REMARK  Name = ZINC39661094
REMARK  3 active torsions:
REMARK  status: ('A' for Active; 'I' for Inactive)
REMARK    1  A    between atoms: C_2  and  C_9
REMARK    2  A    between atoms: C_13  and  C_22
REMARK    3  A    between atoms: N_24  and  C_25
REMARK                            x       y       z     vdW  Elec       q    Type
REMARK                         _______ _______ _______ _____ _____    ______ ____
ROOT
ATOM      1  C   UNL     1       1.171   3.564   0.009  0.00  0.00    +0.247 C 
ATOM      2  O   UNL     1       0.118   4.162  -0.087  0.00  0.00    -0.270 OA
ATOM      3  N   UNL     1       2.329   4.248   0.104  0.00  0.00    -0.296 N 
ATOM      4  C   UNL     1       3.708   3.705   0.098  0.00  0.00    +0.121 C 
ATOM      5  C   UNL     1       4.522   4.717  -0.740  0.00  0.00    +0.100 C 
ATOM      6  C   UNL     1       3.732   6.032  -0.643  0.00  0.00    -0.004 C 
ATOM      7  C   UNL     1       2.510   5.714   0.231  0.00  0.00    +0.115 C 
ATOM      8  C   UNL     1       3.279   6.480  -2.030  0.00  0.00    -0.010 C 
ATOM      9  C   UNL     1       2.545   7.819  -1.915  0.00  0.00    -0.082 C 
ATOM     10  N   UNL     1       3.440   8.820  -1.324  0.00  0.00    +0.379 N 
ATOM     11  C   UNL     1       3.797   8.428   0.045  0.00  0.00    -0.082 C 
ATOM     12  C   UNL     1       4.584   7.114   0.013  0.00  0.00    -0.010 C 
ATOM     13  H   UNL     1       4.278   8.891  -1.881  0.00  0.00    -0.086 HD
ATOM     14  H   UNL     1       2.976   9.716  -1.305  0.00  0.00    -0.086 HD
ENDROOT
BRANCH   1  16
ATOM     15  C   UNL     1       0.139   1.371  -0.569  0.00  0.00    +0.033 A 
ATOM     16  C   UNL     1       1.184   2.085   0.020  0.00  0.00    +0.040 A 
ATOM     17  C   UNL     1       2.240   1.398   0.620  0.00  0.00    +0.033 A 
ATOM     18  C   UNL     1       2.246   0.017   0.627  0.00  0.00    +0.043 A 
ATOM     19  C   UNL     1       1.207  -0.685   0.041  0.00  0.00    +0.040 A 
ATOM     20  C   UNL     1       0.156  -0.009  -0.555  0.00  0.00    +0.043 A 
ATOM     21 CL   UNL     1      -1.142  -0.899  -1.287  0.00  0.00    -0.083 Cl
ATOM     22 CL   UNL     1       3.560  -0.839   1.372  0.00  0.00    -0.083 Cl
ENDBRANCH   1  16
BRANCH   5  23
ATOM     23  C   UNL     1       5.902   4.887  -0.160  0.00  0.00    +0.219 C 
ATOM     24  O   UNL     1       6.098   4.664   1.016  0.00  0.00    -0.275 OA
ATOM     25  N   UNL     1       6.920   5.288  -0.949  0.00  0.00    -0.304 N 
ATOM     26  H   UNL     1       6.763   5.467  -1.889  0.00  0.00    +0.149 HD
BRANCH  25  27
ATOM     27  C   UNL     1       8.262   5.454  -0.385  0.00  0.00    +0.151 C 
ATOM     28  C   UNL     1       9.296   5.244  -1.493  0.00  0.00    +0.042 C 
ATOM     29  C   UNL     1      10.596   5.966  -1.066  0.00  0.00    +0.079 C 
ATOM     30  S   UNL     1       9.940   7.340  -0.043  0.00  0.00    -0.086 S 
ATOM     31  C   UNL     1       8.368   6.828   0.234  0.00  0.00    +0.209 C 
ATOM     32  O   UNL     1       7.494   7.437   0.814  0.00  0.00    -0.283 OA
ENDBRANCH  25  27
ENDBRANCH   5  23
TORSDOF 3
