REMARK  Name = ZINC50588702
REMARK  6 active torsions:
REMARK  status: ('A' for Active; 'I' for Inactive)
REMARK    1  A    between atoms: C_1  and  C_2
REMARK    2  A    between atoms: C_4  and  C_18
REMARK    3  A    between atoms: N_5  and  C_7
REMARK    4  A    between atoms: C_7  and  C_8
REMARK    5  A    between atoms: C_11  and  C_15
REMARK    6  A    between atoms: C_13  and  N_14
REMARK                            x       y       z     vdW  Elec       q    Type
REMARK                         _______ _______ _______ _____ _____    ______ ____
ROOT
ATOM      1  C   UNL     1       1.481  -3.682   1.774  0.00  0.00    -0.005 A 
ATOM      2  C   UNL     1       2.107  -4.636   0.994  0.00  0.00    +0.008 A 
ATOM      3  C   UNL     1       3.414  -4.996   1.252  0.00  0.00    +0.013 A 
ATOM      4  C   UNL     1       4.109  -4.395   2.304  0.00  0.00    +0.038 A 
ATOM      5  C   UNL     1       3.478  -3.433   3.091  0.00  0.00    +0.036 A 
ATOM      6  C   UNL     1       2.166  -3.074   2.820  0.00  0.00    +0.030 A 
ENDROOT
BRANCH   4   7
ATOM      7  C   UNL     1       5.509  -4.779   2.583  0.00  0.00    +0.242 C 
ATOM      8  O   UNL     1       6.112  -4.255   3.499  0.00  0.00    -0.270 OA
ATOM      9  N   UNL     1       6.117  -5.710   1.821  0.00  0.00    -0.325 N 
ATOM     10  H   UNL     1       5.636  -6.129   1.090  0.00  0.00    +0.145 HD
ATOM     11  H   UNL     1       7.036  -5.963   2.004  0.00  0.00    +0.145 HD
ENDBRANCH   4   7
BRANCH   6  12
ATOM     12  N   UNL     1       1.530  -2.106   3.602  0.00  0.00    -0.358 N 
ATOM     13  H   UNL     1       0.611  -1.858   3.415  0.00  0.00    +0.142 HD
ATOM     14  H   UNL     1       2.008  -1.682   4.332  0.00  0.00    +0.142 HD
ENDBRANCH   6  12
BRANCH   1  15
ATOM     15  C   UNL     1       0.053  -3.295   1.486  0.00  0.00    +0.180 C 
BRANCH  15  20
ATOM     16  C   UNL     1      -0.018   1.503   0.010  0.00  0.00    +0.068 C 
ATOM     17  C   UNL     1       0.002  -0.004   0.002  0.00  0.00    +0.074 A 
ATOM     18  C   UNL     1       0.008  -0.818  -1.136  0.00  0.00    +0.061 A 
ATOM     19  C   UNL     1       0.027  -2.108  -0.725  0.00  0.00    +0.051 A 
ATOM     20  N   UNL     1       0.034  -2.109   0.625  0.00  0.00    -0.263 N 
ATOM     21  N   UNL     1       0.023  -0.777   1.058  0.00  0.00    -0.175 NA
ATOM     22  C   UNL     1       0.039  -3.324  -1.615  0.00  0.00    +0.066 C 
ATOM     23 BR   UNL     1      -0.009  -0.222  -2.930  0.00  0.00    -0.047 Br
ENDBRANCH  15  20
ENDBRANCH   1  15
TORSDOF 4
