REMARK  Name = ZINC39486588
REMARK  9 active torsions:
REMARK  status: ('A' for Active; 'I' for Inactive)
REMARK    1  A    between atoms: C_1  and  C_2
REMARK    2  A    between atoms: C_2  and  C_3
REMARK    3  A    between atoms: C_3  and  C_4
REMARK    4  A    between atoms: C_8  and  C_10
REMARK    5  A    between atoms: C_16  and  O_37
REMARK    6  A    between atoms: N_26  and  C_28
REMARK    7  A    between atoms: C_33  and  O_34
REMARK    8  A    between atoms: O_34  and  C_35
REMARK    9  A    between atoms: C_35  and  C_36
REMARK                            x       y       z     vdW  Elec       q    Type
REMARK                         _______ _______ _______ _____ _____    ______ ____
ROOT
ATOM      1  C   UNL     1      -1.396  -4.854  -2.520  0.00  0.00    +0.062 C 
ATOM      2  C   UNL     1      -2.082  -5.670  -1.470  0.00  0.00    -0.022 A 
ATOM      3  C   UNL     1      -2.137  -5.168  -0.188  0.00  0.00    +0.054 A 
ATOM      4  C   UNL     1      -2.778  -5.925   0.789  0.00  0.00    +0.170 A 
ATOM      5  C   UNL     1      -3.359  -7.167   0.489  0.00  0.00    +0.208 A 
ATOM      6  C   UNL     1      -3.311  -7.685  -0.799  0.00  0.00    +0.173 A 
ATOM      7  C   UNL     1      -2.651  -6.909  -1.778  0.00  0.00    +0.067 A 
ATOM      8  C   UNL     1      -2.554  -7.422  -3.144  0.00  0.00    +0.172 C 
ATOM      9  O   UNL     1      -3.170  -8.426  -3.434  0.00  0.00    -0.292 OA
ATOM     10  C   UNL     1      -1.732  -6.763  -4.187  0.00  0.00    +0.091 C 
ATOM     11  C   UNL     1      -0.826  -5.647  -3.673  0.00  0.00    +0.099 C 
ATOM     12  C   UNL     1      -0.708  -4.721  -4.877  0.00  0.00    +0.225 C 
ATOM     13  O   UNL     1       0.170  -3.902  -5.046  0.00  0.00    -0.275 OA
ATOM     14  N   UNL     1      -1.729  -4.951  -5.725  0.00  0.00    -0.267 N 
ATOM     15  C   UNL     1      -2.594  -6.034  -5.236  0.00  0.00    +0.126 C 
ATOM     16  O   UNL     1      -3.907  -7.678   1.616  0.00  0.00    -0.449 OA
ATOM     17  C   UNL     1      -3.321  -6.928   2.701  0.00  0.00    +0.467 C 
ATOM     18  O   UNL     1      -2.966  -5.664   2.101  0.00  0.00    -0.452 OA
ENDROOT
BRANCH   1  23
ATOM     19  C   UNL     1       0.739  -2.004  -1.265  0.00  0.00    -0.047 A 
ATOM     20  C   UNL     1       1.788  -2.685  -0.675  0.00  0.00    +0.003 A 
ATOM     21  C   UNL     1       1.806  -4.067  -0.683  0.00  0.00    +0.001 A 
ATOM     22  C   UNL     1       0.776  -4.769  -1.280  0.00  0.00    +0.004 A 
ATOM     23  C   UNL     1      -0.273  -4.089  -1.869  0.00  0.00    -0.039 A 
ATOM     24  C   UNL     1      -0.294  -2.706  -1.857  0.00  0.00    +0.008 A 
BRANCH  19  25
ATOM     25  C   UNL     1       0.718  -0.497  -1.257  0.00  0.00    +0.035 C 
BRANCH  25  27
ATOM     26  C   UNL     1      -0.019   1.526   0.010  0.00  0.00    +0.004 C 
ATOM     27  C   UNL     1       0.002  -0.004   0.002  0.00  0.00    +0.001 C 
ENDBRANCH  25  27
ENDBRANCH  19  25
ENDBRANCH   1  23
BRANCH  14  28
ATOM     28  C   UNL     1      -1.943  -4.247  -6.917  0.00  0.00    +0.078 A 
ATOM     29  C   UNL     1      -1.382  -4.699  -8.102  0.00  0.00    +0.027 A 
ATOM     30  C   UNL     1      -1.595  -4.002  -9.277  0.00  0.00    +0.002 A 
ATOM     31  C   UNL     1      -2.366  -2.854  -9.274  0.00  0.00    +0.004 A 
ATOM     32  C   UNL     1      -2.928  -2.398  -8.097  0.00  0.00    +0.047 A 
ATOM     33  C   UNL     1      -2.724  -3.093  -6.916  0.00  0.00    +0.142 A 
BRANCH  33  34
ATOM     34  O   UNL     1      -3.281  -2.649  -5.758  0.00  0.00    -0.490 OA
BRANCH  34  35
ATOM     35  C   UNL     1      -4.070  -1.460  -5.832  0.00  0.00    +0.226 C 
ATOM     36  C   UNL     1      -4.609  -1.117  -4.442  0.00  0.00    +0.048 C 
ENDBRANCH  34  35
ENDBRANCH  33  34
ENDBRANCH  14  28
BRANCH   6  37
ATOM     37  O   UNL     1      -3.872  -8.882  -1.103  0.00  0.00    -0.503 OA
ATOM     38  H   UNL     1      -4.796  -8.824  -1.383  0.00  0.00    +0.292 HD
ENDBRANCH   6  37
TORSDOF 7
