REMARK  Name = ZINC03624818
REMARK  8 active torsions:
REMARK  status: ('A' for Active; 'I' for Inactive)
REMARK    1  A    between atoms: C_1  and  C_2
REMARK    2  A    between atoms: C_2  and  C_3
REMARK    3  A    between atoms: C_3  and  C_4
REMARK    4  A    between atoms: C_4  and  N_5
REMARK    5  A    between atoms: C_11  and  C_25
REMARK    6  A    between atoms: C_13  and  O_24
REMARK    7  A    between atoms: C_15  and  O_22
REMARK    8  A    between atoms: C_15  and  O_23
REMARK                            x       y       z     vdW  Elec       q    Type
REMARK                         _______ _______ _______ _____ _____    ______ ____
ROOT
ATOM      1  N   UNL     1       1.084   2.007   0.003  0.00  0.00    -0.274 N 
ATOM      2  C   UNL     1      -0.014   1.210   0.009  0.00  0.00    +0.288 C 
ATOM      3  O   UNL     1       0.002  -0.004   0.002  0.00  0.00    -0.266 OA
ATOM      4  C   UNL     1      -1.246   2.055   0.018  0.00  0.00    +0.249 C 
ATOM      5  O   UNL     1      -2.394   1.649   0.060  0.00  0.00    -0.282 OA
ATOM      6  C   UNL     1      -0.848   3.393  -0.026  0.00  0.00    +0.082 C 
ATOM      7  C   UNL     1      -1.102   4.715   0.247  0.00  0.00    +0.141 C 
ATOM      8  O   UNL     1       0.034   5.447   0.306  0.00  0.00    -0.453 OA
ATOM      9  C   UNL     1       1.172   4.550   0.434  0.00  0.00    +0.269 C 
ATOM     10  C   UNL     1       0.636   3.329  -0.325  0.00  0.00    +0.198 C 
ATOM     11  C   UNL     1       0.918   3.696  -1.794  0.00  0.00    +0.226 C 
ATOM     12  C   UNL     1       2.126   4.609  -1.736  0.00  0.00    +0.023 A 
ATOM     13  C   UNL     1       2.277   5.098  -0.450  0.00  0.00    +0.034 A 
ATOM     14  C   UNL     1       3.325   5.952  -0.155  0.00  0.00    +0.010 A 
ATOM     15  C   UNL     1       4.218   6.321  -1.142  0.00  0.00    +0.000 A 
ATOM     16  C   UNL     1       4.065   5.837  -2.427  0.00  0.00    +0.000 A 
ATOM     17  C   UNL     1       3.021   4.982  -2.723  0.00  0.00    +0.009 A 
ENDROOT
BRANCH   7  18
ATOM     18  C   UNL     1      -2.451   5.269   0.451  0.00  0.00    +0.017 A 
ATOM     19  C   UNL     1      -3.573   4.438   0.366  0.00  0.00    +0.012 A 
ATOM     20  C   UNL     1      -4.832   4.963   0.563  0.00  0.00    +0.016 A 
ATOM     21  C   UNL     1      -4.989   6.312   0.834  0.00  0.00    +0.018 A 
ATOM     22  C   UNL     1      -3.883   7.143   0.915  0.00  0.00    +0.016 A 
ATOM     23  C   UNL     1      -2.618   6.631   0.725  0.00  0.00    +0.012 A 
ATOM     24 BR   UNL     1      -6.721   7.024   1.095  0.00  0.00    -0.050 Br
ENDBRANCH   7  18
BRANCH  11  25
ATOM     25  O   UNL     1       1.218   2.522  -2.552  0.00  0.00    -0.359 OA
ATOM     26  H   UNL     1       1.404   2.693  -3.485  0.00  0.00    +0.213 HD
ENDBRANCH  11  25
BRANCH  11  27
ATOM     27  O   UNL     1      -0.200   4.383  -2.360  0.00  0.00    -0.359 OA
ATOM     28  H   UNL     1      -0.078   4.638  -3.284  0.00  0.00    +0.213 HD
ENDBRANCH  11  27
BRANCH   9  29
ATOM     29  O   UNL     1       1.559   4.283   1.783  0.00  0.00    -0.350 OA
ATOM     30  H   UNL     1       1.896   5.056   2.256  0.00  0.00    +0.214 HD
ENDBRANCH   9  29
BRANCH   1  31
ATOM     31  C   UNL     1       2.462   1.597   0.279  0.00  0.00    +0.109 C 
BRANCH  31  32
ATOM     32  C   UNL     1       3.139   1.173  -1.026  0.00  0.00    +0.019 C 
BRANCH  32  34
ATOM     33  C   UNL     1       5.256   0.319  -2.043  0.00  0.00    +0.004 C 
ATOM     34  C   UNL     1       4.579   0.743  -0.738  0.00  0.00    -0.002 C 
ENDBRANCH  32  34
ENDBRANCH  31  32
ENDBRANCH   1  31
TORSDOF 7
