REMARK  Name = ZINC48880066
REMARK  7 active torsions:
REMARK  status: ('A' for Active; 'I' for Inactive)
REMARK    1  A    between atoms: C_1  and  N_2
REMARK    2  A    between atoms: N_2  and  C_3
REMARK    3  A    between atoms: N_2  and  C_11
REMARK    4  A    between atoms: C_3  and  C_4
REMARK    5  A    between atoms: C_13  and  N_21
REMARK    6  A    between atoms: C_15  and  S_17
REMARK    7  A    between atoms: S_17  and  N_20
REMARK                            x       y       z     vdW  Elec       q    Type
REMARK                         _______ _______ _______ _____ _____    ______ ____
ROOT
ATOM      1  C   UNL     1       0.000  -0.696  -1.211  0.00  0.00    +0.033 A 
ATOM      2  C   UNL     1       0.013  -2.084  -1.220  0.00  0.00    +0.046 A 
ATOM      3  C   UNL     1       0.011  -2.767  -2.427  0.00  0.00    +0.028 A 
ATOM      4  C   UNL     1      -0.004  -2.060  -3.624  0.00  0.00    +0.051 A 
ATOM      5  C   UNL     1      -0.017  -0.679  -3.612  0.00  0.00    +0.108 A 
ATOM      6  C   UNL     1      -0.021   0.004  -2.411  0.00  0.00    +0.051 A 
ENDROOT
BRANCH   5   7
ATOM      7  S   UNL     1      -0.036   0.213  -5.131  0.00  0.00    +0.056 S 
ATOM      8  O   UNL     1       0.504   1.498  -4.855  0.00  0.00    -0.153 OA
ATOM      9  O   UNL     1       0.516  -0.650  -6.116  0.00  0.00    -0.153 OA
BRANCH   7  10
ATOM     10  N   UNL     1      -1.623   0.446  -5.542  0.00  0.00    -0.204 NA
ATOM     11  H   UNL     1      -1.883   1.230  -6.051  0.00  0.00    +0.144 HD
ATOM     12  H   UNL     1      -2.294  -0.202  -5.275  0.00  0.00    +0.144 HD
ENDBRANCH   7  10
ENDBRANCH   5   7
BRANCH   3  13
ATOM     13  N   UNL     1       0.025  -4.164  -2.440  0.00  0.00    -0.358 N 
ATOM     14  H   UNL     1       0.035  -4.656  -1.605  0.00  0.00    +0.142 HD
ATOM     15  H   UNL     1       0.023  -4.641  -3.285  0.00  0.00    +0.142 HD
ENDBRANCH   3  13
BRANCH   1  17
ATOM     16  C   UNL     1      -0.018   1.461   0.010  0.00  0.00    +0.129 C 
ATOM     17  N   UNL     1       0.002  -0.004   0.002  0.00  0.00    -0.329 N 
BRANCH  17  18
ATOM     18  C   UNL     1       0.024  -0.743   1.267  0.00  0.00    +0.139 C 
BRANCH  18  19
ATOM     19  C   UNL     1      -1.389  -1.016   1.714  0.00  0.00    -0.030 A 
ATOM     20  C   UNL     1      -2.047  -0.105   2.518  0.00  0.00    +0.006 A 
ATOM     21  C   UNL     1      -3.343  -0.354   2.929  0.00  0.00    +0.020 A 
ATOM     22  C   UNL     1      -3.982  -1.517   2.534  0.00  0.00    +0.041 A 
ATOM     23  C   UNL     1      -3.322  -2.428   1.729  0.00  0.00    +0.020 A 
ATOM     24  C   UNL     1      -2.028  -2.175   1.314  0.00  0.00    +0.006 A 
ATOM     25 CL   UNL     1      -5.609  -1.831   3.050  0.00  0.00    -0.084 Cl
ENDBRANCH  18  19
ENDBRANCH  17  18
ENDBRANCH   1  17
TORSDOF 6
