REMARK  Name = ZINC02746440
REMARK  9 active torsions:
REMARK  status: ('A' for Active; 'I' for Inactive)
REMARK    1  A    between atoms: C_1  and  C_2
REMARK    2  A    between atoms: C_2  and  C_3
REMARK    3  A    between atoms: C_3  and  N_4
REMARK    4  A    between atoms: C_14  and  S_17
REMARK    5  A    between atoms: S_17  and  C_18
REMARK    6  A    between atoms: C_18  and  C_20
REMARK    7  A    between atoms: C_18  and  C_22
REMARK    8  A    between atoms: C_20  and  C_21
REMARK    9  A    between atoms: N_24  and  C_25
REMARK                            x       y       z     vdW  Elec       q    Type
REMARK                         _______ _______ _______ _____ _____    ______ ____
ROOT
ATOM      1  S   UNL     1      -6.289   2.717   0.555  0.00  0.00    -0.072 S 
ENDROOT
BRANCH   1  12
ATOM      2  N   UNL     1     -11.018   4.282   1.879  0.00  0.00    -0.323 N 
ATOM      3  C   UNL     1     -11.680   5.490   1.727  0.00  0.00    +0.053 A 
ATOM      4  C   UNL     1     -12.957   5.909   2.086  0.00  0.00    +0.026 A 
ATOM      5  C   UNL     1     -13.365   7.196   1.808  0.00  0.00    +0.002 A 
ATOM      6  C   UNL     1     -12.512   8.084   1.169  0.00  0.00    +0.001 A 
ATOM      7  C   UNL     1     -11.243   7.687   0.805  0.00  0.00    +0.012 A 
ATOM      8  C   UNL     1     -10.819   6.389   1.081  0.00  0.00    +0.029 A 
ATOM      9  C   UNL     1      -9.563   5.659   0.836  0.00  0.00    +0.138 A 
ATOM     10  C   UNL     1      -9.752   4.361   1.354  0.00  0.00    +0.165 A 
ATOM     11  N   UNL     1      -8.751   3.491   1.258  0.00  0.00    -0.201 NA
ATOM     12  C   UNL     1      -7.617   3.868   0.684  0.00  0.00    +0.212 A 
ATOM     13  N   UNL     1      -7.460   5.099   0.208  0.00  0.00    -0.122 NA
ATOM     14  N   UNL     1      -8.405   5.973   0.274  0.00  0.00    -0.143 NA
BRANCH   2  15
ATOM     15  C   UNL     1     -11.589   3.090   2.510  0.00  0.00    +0.123 C 
BRANCH  15  17
ATOM     16  C   UNL     1     -11.882   1.866   4.669  0.00  0.00    +0.005 C 
ATOM     17  C   UNL     1     -11.285   3.111   4.010  0.00  0.00    +0.018 C 
ENDBRANCH  15  17
ENDBRANCH   2  15
ENDBRANCH   1  12
BRANCH   1  18
ATOM     18  C   UNL     1      -5.010   3.790  -0.144  0.00  0.00    +0.140 C 
BRANCH  18  19
ATOM     19  C   UNL     1      -3.683   3.075  -0.115  0.00  0.00    +0.231 C 
ATOM     20  O   UNL     1      -3.648   1.863  -0.109  0.00  0.00    -0.274 OA
ATOM     21  N   UNL     1      -2.537   3.783  -0.094  0.00  0.00    -0.284 N 
ATOM     22  H   UNL     1      -2.564   4.749  -0.013  0.00  0.00    +0.155 HD
BRANCH  21  23
ATOM     23  C   UNL     1      -1.309   3.126  -0.188  0.00  0.00    +0.041 A 
ATOM     24  C   UNL     1      -1.226   1.890  -0.794  0.00  0.00    +0.024 A 
ATOM     25  C   UNL     1      -0.008   1.224  -0.888  0.00  0.00    +0.002 A 
ATOM     26  C   UNL     1       1.135   1.776  -0.397  0.00  0.00    +0.008 A 
ATOM     27  C   UNL     1       1.095   3.037   0.223  0.00  0.00    -0.016 A 
ATOM     28  C   UNL     1      -0.140   3.723   0.330  0.00  0.00    +0.003 A 
ATOM     29  C   UNL     1      -0.178   4.982   0.948  0.00  0.00    +0.010 A 
ATOM     30  C   UNL     1       0.970   5.528   1.437  0.00  0.00    +0.001 A 
ATOM     31  C   UNL     1       2.185   4.855   1.332  0.00  0.00    +0.001 A 
ATOM     32  C   UNL     1       2.260   3.632   0.739  0.00  0.00    +0.008 A 
ENDBRANCH  21  23
ENDBRANCH  18  19
BRANCH  18  33
ATOM     33  C   UNL     1      -5.370   4.137  -1.590  0.00  0.00    +0.020 C 
ATOM     34  C   UNL     1      -4.298   5.059  -2.175  0.00  0.00    +0.005 C 
ENDBRANCH  18  33
ENDBRANCH   1  18
TORSDOF 7
