REMARK  Name = ZINC04464206
REMARK  4 active torsions:
REMARK  status: ('A' for Active; 'I' for Inactive)
REMARK    1  A    between atoms: C_1  and  C_2
REMARK    2  A    between atoms: C_3  and  C_8
REMARK    3  A    between atoms: N_10  and  N_11
REMARK    4  A    between atoms: N_11  and  C_12
REMARK                            x       y       z     vdW  Elec       q    Type
REMARK                         _______ _______ _______ _____ _____    ______ ____
ROOT
ATOM      1  C   UNL     1      -0.008  -0.258  -2.565  0.00  0.00    +0.269 C 
ATOM      2  O   UNL     1      -0.025   0.937  -2.802  0.00  0.00    -0.268 OA
ATOM      3  N   UNL     1      -0.001  -1.145  -3.580  0.00  0.00    -0.232 N 
ATOM      4  H   UNL     1       0.014  -2.097  -3.391  0.00  0.00    +0.173 HD
ENDROOT
BRANCH   1   7
ATOM      5  C   UNL     1      -0.018   1.503   0.010  0.00  0.00    +0.067 C 
ATOM      6  C   UNL     1       0.002  -0.004   0.002  0.00  0.00    +0.060 A 
ATOM      7  C   UNL     1       0.006  -0.729  -1.181  0.00  0.00    +0.099 A 
ATOM      8  S   UNL     1       0.032  -2.397  -0.545  0.00  0.00    -0.048 S 
ATOM      9  C   UNL     1       0.035  -2.022   1.096  0.00  0.00    +0.156 A 
ATOM     10  N   UNL     1       0.022  -0.700   1.111  0.00  0.00    -0.230 NA
ATOM     11  N   UNL     1       0.052  -2.886   2.169  0.00  0.00    -0.337 N 
ATOM     12  H   UNL     1       0.065  -3.845   2.019  0.00  0.00    +0.144 HD
ATOM     13  H   UNL     1       0.051  -2.537   3.074  0.00  0.00    +0.144 HD
ENDBRANCH   1   7
BRANCH   3  14
ATOM     14  N   UNL     1      -0.014  -0.694  -4.906  0.00  0.00    -0.271 N 
ATOM     15  H   UNL     1      -0.028   0.258  -5.094  0.00  0.00    +0.169 HD
BRANCH  14  16
ATOM     16  C   UNL     1      -0.006  -1.578  -5.916  0.00  0.00    +0.099 C 
ATOM     17  C   UNL     1      -0.019  -1.128  -7.237  0.00  0.00    +0.037 C 
ATOM     18  C   UNL     1      -0.034   0.258  -7.514  0.00  0.00    +0.017 C 
ATOM     19  C   UNL     1      -0.046   0.692  -8.798  0.00  0.00    +0.051 C 
ATOM     20  C   UNL     1      -0.044  -0.234  -9.860  0.00  0.00    +0.183 C 
ATOM     21  O   UNL     1      -0.055   0.164 -11.018  0.00  0.00    -0.288 OA
ATOM     22  C   UNL     1      -0.030  -1.612  -9.596  0.00  0.00    +0.102 C 
ATOM     23  C   UNL     1      -0.012  -2.060  -8.306  0.00  0.00    +0.191 C 
ATOM     24  O   UNL     1       0.007  -3.390  -8.048  0.00  0.00    -0.287 OA
ENDBRANCH  14  16
ENDBRANCH   3  14
TORSDOF 3
