REMARK  Name = ZINC40785036
REMARK  8 active torsions:
REMARK  status: ('A' for Active; 'I' for Inactive)
REMARK    1  A    between atoms: C_5  and  C_7
REMARK    2  A    between atoms: N_9  and  N_10
REMARK    3  A    between atoms: C_12  and  N_26
REMARK    4  A    between atoms: C_13  and  N_17
REMARK    5  A    between atoms: N_17  and  C_18
REMARK    6  A    between atoms: C_18  and  C_19
REMARK    7  A    between atoms: C_19  and  C_20
REMARK    8  A    between atoms: C_20  and  N_21
REMARK                            x       y       z     vdW  Elec       q    Type
REMARK                         _______ _______ _______ _____ _____    ______ ____
ROOT
ATOM      1  N   UNL     1       0.121  -4.257  -0.022  0.00  0.00    -0.247 N 
ATOM      2  C   UNL     1      -1.069  -4.974  -0.014  0.00  0.00    +0.161 A 
ATOM      3  C   UNL     1      -1.056  -6.370  -0.017  0.00  0.00    +0.107 A 
ATOM      4  C   UNL     1      -2.279  -7.041  -0.008  0.00  0.00    +0.145 A 
ATOM      5  N   UNL     1      -3.404  -6.330   0.002  0.00  0.00    -0.219 NA
ATOM      6  C   UNL     1      -3.373  -5.013   0.004  0.00  0.00    +0.225 A 
ATOM      7  N   UNL     1      -2.239  -4.341   0.001  0.00  0.00    -0.217 NA
ATOM      8  H   UNL     1       0.970  -4.726  -0.034  0.00  0.00    +0.172 HD
ENDROOT
BRANCH   1  11
ATOM      9  C   UNL     1       1.250  -2.160  -0.022  0.00  0.00    +0.261 C 
ATOM     10  O   UNL     1       2.313  -2.748  -0.036  0.00  0.00    -0.269 OA
ATOM     11  N   UNL     1       0.095  -2.856  -0.014  0.00  0.00    -0.231 N 
ATOM     12  H   UNL     1      -0.754  -2.387  -0.003  0.00  0.00    +0.173 HD
BRANCH   9  17
ATOM     13  C   UNL     1      -0.017   1.375   0.010  0.00  0.00    +0.001 A 
ATOM     14  C   UNL     1       1.170   2.087   0.002  0.00  0.00    +0.001 A 
ATOM     15  C   UNL     1       2.383   1.422  -0.013  0.00  0.00    +0.016 A 
ATOM     16  C   UNL     1       2.417   0.041  -0.021  0.00  0.00    +0.030 A 
ATOM     17  C   UNL     1       1.222  -0.683  -0.013  0.00  0.00    +0.052 A 
ATOM     18  C   UNL     1       0.002  -0.004   0.002  0.00  0.00    +0.014 A 
ATOM     19 BR   UNL     1       4.075  -0.867  -0.043  0.00  0.00    -0.050 Br
ENDBRANCH   9  17
ENDBRANCH   1  11
BRANCH   3  20
ATOM     20  N   UNL     1       0.157  -7.080  -0.028  0.00  0.00    -0.353 N 
ATOM     21  H   UNL     1       1.000  -6.600  -0.034  0.00  0.00    +0.143 HD
ATOM     22  H   UNL     1       0.150  -8.050  -0.029  0.00  0.00    +0.143 HD
ENDBRANCH   3  20
BRANCH   4  23
ATOM     23  N   UNL     1      -2.322  -8.430  -0.010  0.00  0.00    -0.327 N 
ATOM     24  H   UNL     1      -1.498  -8.941  -0.018  0.00  0.00    +0.148 HD
BRANCH  23  25
ATOM     25  C   UNL     1      -3.613  -9.123  -0.001  0.00  0.00    +0.105 C 
BRANCH  25  26
ATOM     26  C   UNL     1      -3.381 -10.635  -0.005  0.00  0.00    +0.040 C 
BRANCH  26  27
ATOM     27  C   UNL     1      -4.729 -11.358   0.004  0.00  0.00    +0.124 C 
BRANCH  27  28
ATOM     28  N   UNL     1      -4.506 -12.806   0.000  0.00  0.00    -0.338 N 
ATOM     29  C   UNL     1      -4.386 -13.606  -1.104  0.00  0.00    +0.104 A 
ATOM     30  C   UNL     1      -4.190 -14.861  -0.657  0.00  0.00    +0.101 A 
ATOM     31  N   UNL     1      -4.192 -14.829   0.684  0.00  0.00    -0.352 N 
ATOM     32  C   UNL     1      -4.375 -13.600   1.085  0.00  0.00    +0.173 A 
ATOM     33  H   UNL     1      -4.072 -15.597   1.265  0.00  0.00    +0.166 HD
ENDBRANCH  27  28
ENDBRANCH  26  27
ENDBRANCH  25  26
ENDBRANCH  23  25
ENDBRANCH   4  23
TORSDOF 8
