REMARK  Name = ZINC40755238
REMARK  7 active torsions:
REMARK  status: ('A' for Active; 'I' for Inactive)
REMARK    1  A    between atoms: C_1  and  C_2
REMARK    2  A    between atoms: C_6  and  N_9
REMARK    3  A    between atoms: C_7  and  C_8
REMARK    4  A    between atoms: C_11  and  N_25
REMARK    5  A    between atoms: C_12  and  N_16
REMARK    6  A    between atoms: N_16  and  C_17
REMARK    7  A    between atoms: C_17  and  C_18
REMARK                            x       y       z     vdW  Elec       q    Type
REMARK                         _______ _______ _______ _____ _____    ______ ____
ROOT
ATOM      1  N   UNL     1       0.052  -2.797   2.391  0.00  0.00    -0.298 N 
ATOM      2  C   UNL     1      -0.033  -4.185   2.383  0.00  0.00    +0.149 A 
ATOM      3  C   UNL     1      -0.129  -4.896   3.581  0.00  0.00    +0.105 A 
ATOM      4  C   UNL     1      -0.213  -6.288   3.516  0.00  0.00    +0.145 A 
ATOM      5  N   UNL     1      -0.199  -6.880   2.325  0.00  0.00    -0.219 NA
ATOM      6  C   UNL     1      -0.107  -6.171   1.217  0.00  0.00    +0.225 A 
ATOM      7  N   UNL     1      -0.031  -4.856   1.234  0.00  0.00    -0.219 NA
ATOM      8  H   UNL     1       0.134  -2.321   3.232  0.00  0.00    +0.154 HD
ENDROOT
BRANCH   1  14
ATOM      9  C   UNL     1       1.194   1.238  -0.174  0.00  0.00    +0.044 C 
ATOM     10  C   UNL     1       0.567  -0.130  -0.085  0.00  0.00    -0.046 A 
ATOM     11  C   UNL     1      -0.038  -0.686  -1.198  0.00  0.00    +0.004 A 
ATOM     12  C   UNL     1      -0.614  -1.940  -1.121  0.00  0.00    +0.002 A 
ATOM     13  C   UNL     1      -0.585  -2.643   0.068  0.00  0.00    +0.023 A 
ATOM     14  C   UNL     1       0.022  -2.088   1.187  0.00  0.00    +0.036 A 
ATOM     15  C   UNL     1       0.604  -0.829   1.105  0.00  0.00    -0.026 A 
ATOM     16  C   UNL     1       1.269  -0.226   2.315  0.00  0.00    +0.046 C 
ENDBRANCH   1  14
BRANCH   3  17
ATOM     17  N   UNL     1      -0.140  -4.229   4.817  0.00  0.00    -0.353 N 
ATOM     18  H   UNL     1      -0.081  -3.261   4.846  0.00  0.00    +0.143 HD
ATOM     19  H   UNL     1      -0.207  -4.736   5.641  0.00  0.00    +0.143 HD
ENDBRANCH   3  17
BRANCH   4  20
ATOM     20  N   UNL     1      -0.310  -7.043   4.679  0.00  0.00    -0.323 N 
ATOM     21  H   UNL     1      -0.319  -6.604   5.543  0.00  0.00    +0.148 HD
BRANCH  20  22
ATOM     22  C   UNL     1      -0.397  -8.504   4.598  0.00  0.00    +0.138 C 
BRANCH  22  23
ATOM     23  C   UNL     1      -0.492  -9.079   5.987  0.00  0.00    -0.030 A 
ATOM     24  C   UNL     1       0.659  -9.412   6.677  0.00  0.00    +0.008 A 
ATOM     25  C   UNL     1       0.573  -9.939   7.952  0.00  0.00    +0.038 A 
ATOM     26  C   UNL     1      -0.667 -10.134   8.538  0.00  0.00    +0.123 A 
ATOM     27  C   UNL     1      -1.819  -9.800   7.846  0.00  0.00    +0.038 A 
ATOM     28  C   UNL     1      -1.730  -9.268   6.573  0.00  0.00    +0.008 A 
ATOM     29  F   UNL     1      -0.752 -10.650   9.784  0.00  0.00    -0.205 F 
ENDBRANCH  22  23
ENDBRANCH  20  22
ENDBRANCH   4  20
TORSDOF 5
