REMARK  Name = ZINC66471185
REMARK  6 active torsions:
REMARK  status: ('A' for Active; 'I' for Inactive)
REMARK    1  A    between atoms: C_1  and  C_2
REMARK    2  A    between atoms: C_2  and  C_4
REMARK    3  A    between atoms: C_2  and  N_16
REMARK    4  A    between atoms: C_10  and  C_13
REMARK    5  A    between atoms: C_19  and  N_22
REMARK    6  A    between atoms: C_23  and  C_25
REMARK                            x       y       z     vdW  Elec       q    Type
REMARK                         _______ _______ _______ _____ _____    ______ ____
ROOT
ATOM      1  N   UNL     1      -1.346  -0.602  -0.023  0.00  0.00    +0.387 N 
ATOM      2  C   UNL     1      -1.267  -2.068  -0.056  0.00  0.00    -0.076 C 
ATOM      3  C   UNL     1      -2.679  -2.657  -0.084  0.00  0.00    +0.004 C 
ATOM      4  C   UNL     1      -3.410  -2.156  -1.333  0.00  0.00    +0.070 C 
ATOM      5  C   UNL     1      -3.421  -0.625  -1.326  0.00  0.00    +0.004 C 
ATOM      6  C   UNL     1      -1.982  -0.110  -1.251  0.00  0.00    -0.076 C 
ATOM      7  H   UNL     1      -1.891  -0.314   0.775  0.00  0.00    -0.081 HD
ENDROOT
BRANCH   4   8
ATOM      8  N   UNL     1      -4.787  -2.656  -1.327  0.00  0.00    -0.308 N 
ATOM      9  C   UNL     1      -5.459  -2.792  -2.488  0.00  0.00    +0.251 C 
ATOM     10  O   UNL     1      -4.922  -2.501  -3.540  0.00  0.00    -0.270 OA
ATOM     11  H   UNL     1      -5.216  -2.888  -0.489  0.00  0.00    +0.149 HD
BRANCH   9  12
ATOM     12  C   UNL     1      -6.837  -3.292  -2.482  0.00  0.00    +0.074 A 
ATOM     13  C   UNL     1      -7.692  -3.510  -3.552  0.00  0.00    +0.021 A 
ATOM     14  C   UNL     1      -8.940  -3.990  -3.231  0.00  0.00    +0.008 A 
ATOM     15  C   UNL     1      -9.245  -4.213  -1.929  0.00  0.00    +0.046 A 
ATOM     16  S   UNL     1      -7.848  -3.787  -1.099  0.00  0.00    -0.092 S 
ENDBRANCH   9  12
ENDBRANCH   4   8
BRANCH   1  18
ATOM     17  C   UNL     1      -0.063   1.484   0.011  0.00  0.00    -0.004 C 
ATOM     18  C   UNL     1       0.009  -0.043   0.083  0.00  0.00    +0.016 C 
BRANCH  18  19
ATOM     19  C   UNL     1       0.622  -0.456   1.396  0.00  0.00    +0.202 C 
ATOM     20  O   UNL     1      -0.091  -0.782   2.322  0.00  0.00    -0.277 OA
ATOM     21  N   UNL     1       1.961  -0.464   1.541  0.00  0.00    -0.302 N 
ATOM     22  C   UNL     1       2.840  -0.170   0.401  0.00  0.00    +0.108 C 
ATOM     23  C   UNL     1       3.801   0.955   0.797  0.00  0.00    +0.020 C 
ATOM     24  C   UNL     1       4.543   0.561   2.076  0.00  0.00    +0.016 C 
ATOM     25  C   UNL     1       3.535   0.364   3.212  0.00  0.00    +0.092 C 
ATOM     26  C   UNL     1       2.571  -0.761   2.845  0.00  0.00    +0.120 C 
BRANCH  25  27
ATOM     27  C   UNL     1       4.269   0.008   4.479  0.00  0.00    +0.215 C 
ATOM     28  O   UNL     1       4.042  -1.045   5.035  0.00  0.00    -0.276 OA
ATOM     29  N   UNL     1       5.177   0.861   4.994  0.00  0.00    -0.329 N 
ATOM     30  H   UNL     1       5.359   1.703   4.549  0.00  0.00    +0.145 HD
ATOM     31  H   UNL     1       5.650   0.631   5.809  0.00  0.00    +0.145 HD
ENDBRANCH  25  27
ENDBRANCH  18  19
ENDBRANCH   1  18
TORSDOF 5
