REMARK  Name = ZINC39743622
REMARK  12 active torsions:
REMARK  status: ('A' for Active; 'I' for Inactive)
REMARK    1  A    between atoms: C_1  and  C_2
REMARK    2  A    between atoms: C_2  and  C_4
REMARK    3  A    between atoms: C_2  and  N_24
REMARK    4  A    between atoms: C_7  and  S_13
REMARK    5  A    between atoms: N_8  and  C_9
REMARK    6  A    between atoms: C_9  and  C_10
REMARK    7  A    between atoms: C_10  and  C_11
REMARK    8  A    between atoms: C_10  and  C_12
REMARK    9  A    between atoms: S_13  and  C_14
REMARK   10  A    between atoms: C_14  and  C_15
REMARK   11  A    between atoms: C_15  and  C_17
REMARK   12  A    between atoms: C_25  and  C_27
REMARK                            x       y       z     vdW  Elec       q    Type
REMARK                         _______ _______ _______ _____ _____    ______ ____
ROOT
ATOM      1  C   UNL     1      -1.412  -0.526   0.013  0.00  0.00    +0.154 A 
ATOM      2  N   UNL     1      -2.222  -0.538   1.033  0.00  0.00    -0.132 NA
ATOM      3  N   UNL     1      -3.351  -1.052   0.693  0.00  0.00    -0.122 NA
ATOM      4  C   UNL     1      -3.320  -1.398  -0.573  0.00  0.00    +0.192 A 
ATOM      5  N   UNL     1      -2.083  -1.068  -1.048  0.00  0.00    -0.304 N 
ENDROOT
BRANCH   1   7
ATOM      6  C   UNL     1      -0.019   1.526   0.010  0.00  0.00    +0.036 C 
ATOM      7  C   UNL     1       0.002  -0.004   0.002  0.00  0.00    +0.138 C 
BRANCH   7   8
ATOM      8  N   UNL     1       0.711  -0.489   1.189  0.00  0.00    -0.302 N 
ATOM      9  C   UNL     1       2.054  -0.600   1.174  0.00  0.00    +0.245 C 
ATOM     10  O   UNL     1       2.677  -0.297   0.175  0.00  0.00    -0.270 OA
ATOM     11  H   UNL     1       0.213  -0.731   1.986  0.00  0.00    +0.150 HD
BRANCH   9  12
ATOM     12  C   UNL     1       2.768  -1.089   2.371  0.00  0.00    +0.037 A 
ATOM     13  C   UNL     1       2.055  -1.444   3.517  0.00  0.00    +0.014 A 
ATOM     14  C   UNL     1       2.727  -1.900   4.631  0.00  0.00    +0.021 A 
ATOM     15  C   UNL     1       4.108  -2.007   4.614  0.00  0.00    +0.041 A 
ATOM     16  C   UNL     1       4.822  -1.657   3.480  0.00  0.00    +0.021 A 
ATOM     17  C   UNL     1       4.160  -1.205   2.358  0.00  0.00    +0.014 A 
ATOM     18 CL   UNL     1       4.948  -2.582   6.021  0.00  0.00    -0.084 Cl
ENDBRANCH   9  12
ENDBRANCH   7   8
ENDBRANCH   1   7
BRANCH   5  19
ATOM     19  C   UNL     1      -1.580  -1.258  -2.410  0.00  0.00    +0.128 C 
BRANCH  19  20
ATOM     20  C   UNL     1      -0.919  -2.634  -2.522  0.00  0.00    +0.003 C 
ATOM     21  C   UNL     1      -1.975  -3.724  -2.325  0.00  0.00    +0.009 C 
ATOM     22  C   UNL     1      -0.284  -2.783  -3.906  0.00  0.00    +0.009 C 
ENDBRANCH  19  20
ENDBRANCH   5  19
BRANCH   4  23
ATOM     23  S   UNL     1      -4.630  -2.141  -1.487  0.00  0.00    -0.078 S 
BRANCH  23  24
ATOM     24  C   UNL     1      -5.975  -2.298  -0.280  0.00  0.00    +0.157 C 
BRANCH  24  25
ATOM     25  C   UNL     1      -7.173  -2.928  -0.942  0.00  0.00    +0.173 C 
ATOM     26  O   UNL     1      -7.125  -3.241  -2.112  0.00  0.00    -0.291 OA
BRANCH  25  27
ATOM     27  C   UNL     1      -8.401  -3.164  -0.167  0.00  0.00    +0.018 A 
ATOM     28  C   UNL     1      -8.463  -2.800   1.182  0.00  0.00    +0.013 A 
ATOM     29  C   UNL     1      -9.617  -3.023   1.901  0.00  0.00    +0.020 A 
ATOM     30  C   UNL     1     -10.715  -3.609   1.291  0.00  0.00    +0.041 A 
ATOM     31  C   UNL     1     -10.661  -3.972  -0.045  0.00  0.00    +0.020 A 
ATOM     32  C   UNL     1      -9.515  -3.749  -0.778  0.00  0.00    +0.013 A 
ATOM     33 CL   UNL     1     -12.164  -3.888   2.205  0.00  0.00    -0.084 Cl
ENDBRANCH  25  27
ENDBRANCH  24  25
ENDBRANCH  23  24
ENDBRANCH   4  23
TORSDOF 9
