REMARK  Name = ZINC03557552
REMARK  8 active torsions:
REMARK  status: ('A' for Active; 'I' for Inactive)
REMARK    1  A    between atoms: C_1  and  N_2
REMARK    2  A    between atoms: C_6  and  C_8
REMARK    3  A    between atoms: C_8  and  C_10
REMARK    4  A    between atoms: C_8  and  O_16
REMARK    5  A    between atoms: O_16  and  C_17
REMARK    6  A    between atoms: C_17  and  C_19
REMARK    7  A    between atoms: C_23  and  S_25
REMARK    8  A    between atoms: S_25  and  N_28
REMARK                            x       y       z     vdW  Elec       q    Type
REMARK                         _______ _______ _______ _____ _____    ______ ____
ROOT
ATOM      1  C   UNL     1       6.830  -1.018  -2.424  0.00  0.00    +0.340 C 
ATOM      2  O   UNL     1       7.595  -0.361  -1.746  0.00  0.00    -0.245 OA
ENDROOT
BRANCH   1   3
ATOM      3  C   UNL     1       5.502  -1.386  -1.892  0.00  0.00    +0.061 A 
ATOM      4  C   UNL     1       4.620  -2.141  -2.669  0.00  0.00    +0.016 A 
ATOM      5  C   UNL     1       3.383  -2.482  -2.167  0.00  0.00    +0.023 A 
ATOM      6  C   UNL     1       3.015  -2.082  -0.893  0.00  0.00    +0.067 A 
ATOM      7  C   UNL     1       3.882  -1.329  -0.120  0.00  0.00    +0.124 A 
ATOM      8  C   UNL     1       5.123  -0.981  -0.611  0.00  0.00    +0.045 A 
ATOM      9 CL   UNL     1       1.457  -2.521  -0.265  0.00  0.00    -0.082 Cl
BRANCH   7  10
ATOM     10  S   UNL     1       3.402  -0.819   1.497  0.00  0.00    +0.062 S 
ATOM     11  O   UNL     1       4.504  -0.106   2.042  0.00  0.00    -0.153 OA
ATOM     12  O   UNL     1       2.844  -1.960   2.134  0.00  0.00    -0.153 OA
BRANCH  10  13
ATOM     13  N   UNL     1       2.171   0.274   1.321  0.00  0.00    -0.177 NA
ATOM     14  C   UNL     1       0.770  -0.149   1.448  0.00  0.00    +0.109 C 
ATOM     15  C   UNL     1       0.006   0.291   0.195  0.00  0.00    +0.017 C 
ATOM     16  C   UNL     1       0.192   1.797  -0.007  0.00  0.00    +0.003 C 
ATOM     17  C   UNL     1       1.677   2.107  -0.213  0.00  0.00    +0.017 C 
ATOM     18  C   UNL     1       2.459   1.687   1.035  0.00  0.00    +0.109 C 
ENDBRANCH  10  13
ENDBRANCH   7  10
ENDBRANCH   1   3
BRANCH   1  19
ATOM     19  O   UNL     1       7.192  -1.410  -3.660  0.00  0.00    -0.444 OA
BRANCH  19  20
ATOM     20  C   UNL     1       8.512  -1.012  -4.118  0.00  0.00    +0.292 C 
BRANCH  20  26
ATOM     21  C   UNL     1      12.549  -3.759  -7.822  0.00  0.00    +0.129 C 
ATOM     22  N   UNL     1      12.032  -2.755  -6.890  0.00  0.00    -0.302 N 
ATOM     23  C   UNL     1      10.776  -2.862  -6.412  0.00  0.00    +0.306 C 
ATOM     24  O   UNL     1      10.073  -3.793  -6.754  0.00  0.00    -0.252 OA
ATOM     25  N   UNL     1      10.300  -1.938  -5.554  0.00  0.00    -0.237 N 
ATOM     26  C   UNL     1       9.044  -2.045  -5.077  0.00  0.00    +0.266 C 
ATOM     27  O   UNL     1       8.343  -2.974  -5.418  0.00  0.00    -0.271 OA
ATOM     28  H   UNL     1      12.593  -2.012  -6.617  0.00  0.00    +0.150 HD
ATOM     29  H   UNL     1      10.861  -1.195  -5.281  0.00  0.00    +0.159 HD
ENDBRANCH  20  26
BRANCH  20  30
ATOM     30  C   UNL     1       8.421   0.321  -4.815  0.00  0.00    +0.002 A 
ATOM     31  C   UNL     1       7.305   0.631  -5.570  0.00  0.00    +0.008 A 
ATOM     32  C   UNL     1       7.220   1.855  -6.207  0.00  0.00    +0.000 A 
ATOM     33  C   UNL     1       8.254   2.766  -6.096  0.00  0.00    +0.000 A 
ATOM     34  C   UNL     1       9.372   2.454  -5.345  0.00  0.00    +0.000 A 
ATOM     35  C   UNL     1       9.455   1.231  -4.705  0.00  0.00    +0.008 A 
ENDBRANCH  20  30
ENDBRANCH  19  20
ENDBRANCH   1  19
TORSDOF 7
