REMARK  Name = ZINC40701682
REMARK  7 active torsions:
REMARK  status: ('A' for Active; 'I' for Inactive)
REMARK    1  A    between atoms: C_1  and  C_2
REMARK    2  A    between atoms: C_3  and  N_9
REMARK    3  A    between atoms: C_11  and  N_24
REMARK    4  A    between atoms: C_12  and  N_16
REMARK    5  A    between atoms: N_16  and  C_17
REMARK    6  A    between atoms: C_17  and  C_18
REMARK    7  A    between atoms: C_18  and  C_19
REMARK                            x       y       z     vdW  Elec       q    Type
REMARK                         _______ _______ _______ _____ _____    ______ ____
ROOT
ATOM      1  N   UNL     1      -0.010   0.010  -2.412  0.00  0.00    -0.298 N 
ATOM      2  C   UNL     1       0.099  -0.676  -3.617  0.00  0.00    +0.149 A 
ATOM      3  C   UNL     1       0.195   0.021  -4.823  0.00  0.00    +0.105 A 
ATOM      4  C   UNL     1       0.302  -0.716  -6.003  0.00  0.00    +0.145 A 
ATOM      5  N   UNL     1       0.308  -2.045  -5.935  0.00  0.00    -0.219 NA
ATOM      6  C   UNL     1       0.215  -2.664  -4.775  0.00  0.00    +0.225 A 
ATOM      7  N   UNL     1       0.118  -2.006  -3.638  0.00  0.00    -0.219 NA
ATOM      8  H   UNL     1      -0.107   0.975  -2.410  0.00  0.00    +0.154 HD
ENDROOT
BRANCH   1  11
ATOM      9  C   UNL     1      -1.259   1.189  -0.143  0.00  0.00    +0.047 C 
ATOM     10  C   UNL     1      -0.577  -0.153  -0.071  0.00  0.00    -0.011 A 
ATOM     11  C   UNL     1       0.021  -0.692  -1.204  0.00  0.00    +0.037 A 
ATOM     12  C   UNL     1       0.648  -1.929  -1.133  0.00  0.00    +0.023 A 
ATOM     13  C   UNL     1       0.676  -2.620   0.062  0.00  0.00    +0.003 A 
ATOM     14  C   UNL     1       0.081  -2.083   1.188  0.00  0.00    +0.020 A 
ATOM     15  C   UNL     1      -0.540  -0.847   1.123  0.00  0.00    +0.046 A 
ATOM     16 CL   UNL     1      -1.280  -0.173   2.541  0.00  0.00    -0.083 Cl
ENDBRANCH   1  11
BRANCH   3  17
ATOM     17  N   UNL     1       0.183   1.425  -4.848  0.00  0.00    -0.353 N 
ATOM     18  H   UNL     1       0.108   1.924  -4.019  0.00  0.00    +0.143 HD
ATOM     19  H   UNL     1       0.251   1.896  -5.693  0.00  0.00    +0.143 HD
ENDBRANCH   3  17
BRANCH   4  20
ATOM     20  N   UNL     1       0.400  -0.072  -7.231  0.00  0.00    -0.327 N 
ATOM     21  H   UNL     1       0.394   0.897  -7.272  0.00  0.00    +0.148 HD
BRANCH  20  22
ATOM     22  C   UNL     1       0.511  -0.857  -8.463  0.00  0.00    +0.108 C 
BRANCH  22  23
ATOM     23  C   UNL     1       0.604   0.087  -9.663  0.00  0.00    +0.061 C 
BRANCH  23  24
ATOM     24  C   UNL     1       0.719  -0.720 -10.930  0.00  0.00    -0.009 A 
ATOM     25  C   UNL     1      -0.265  -1.183 -11.740  0.00  0.00    +0.011 A 
ATOM     26  C   UNL     1       0.079  -1.910 -12.864  0.00  0.00    +0.008 A 
ATOM     27  C   UNL     1       1.389  -2.139 -13.123  0.00  0.00    +0.045 A 
ATOM     28  S   UNL     1       2.187  -1.309 -11.759  0.00  0.00    -0.102 S 
ENDBRANCH  23  24
ENDBRANCH  22  23
ENDBRANCH  20  22
ENDBRANCH   4  20
TORSDOF 6
