REMARK  Name = ZINC22080664
REMARK  11 active torsions:
REMARK  status: ('A' for Active; 'I' for Inactive)
REMARK    1  A    between atoms: C_1  and  C_2
REMARK    2  A    between atoms: C_2  and  C_4
REMARK    3  A    between atoms: C_2  and  N_13
REMARK    4  A    between atoms: C_14  and  C_16
REMARK    5  A    between atoms: C_16  and  N_17
REMARK    6  A    between atoms: C_20  and  C_24
REMARK    7  A    between atoms: C_20  and  C_25
REMARK    8  A    between atoms: C_25  and  C_26
REMARK    9  A    between atoms: C_26  and  C_27
REMARK   10  A    between atoms: C_30  and  O_33
REMARK   11  A    between atoms: O_33  and  C_34
REMARK                            x       y       z     vdW  Elec       q    Type
REMARK                         _______ _______ _______ _____ _____    ______ ____
ROOT
ATOM      1  N   UNL     1      -2.112   0.252   2.509  0.00  0.00    -0.215 N 
ATOM      2  C   UNL     1      -2.112   0.968   1.368  0.00  0.00    +0.247 C 
ATOM      3  O   UNL     1      -3.029   1.097   0.585  0.00  0.00    -0.273 OA
ATOM      4  C   UNL     1      -0.729   1.579   1.267  0.00  0.00    +0.110 C 
ATOM      5  N   UNL     1      -0.045   1.091   2.477  0.00  0.00    -0.285 N 
ATOM      6  C   UNL     1      -0.933   0.325   3.137  0.00  0.00    +0.310 C 
ATOM      7  O   UNL     1      -0.690  -0.237   4.187  0.00  0.00    -0.252 OA
ATOM      8  C   UNL     1      -0.013   1.086   0.008  0.00  0.00    +0.041 C 
ATOM      9  H   UNL     1       0.997   1.380   2.675  0.00  0.00    +0.151 HD
ENDROOT
BRANCH   1  10
ATOM     10  C   UNL     1      -3.261  -0.512   3.002  0.00  0.00    +0.213 C 
BRANCH  10  12
ATOM     11  N   UNL     1      -5.224  -0.125   4.457  0.00  0.00    -0.304 N 
ATOM     12  C   UNL     1      -4.106   0.368   3.887  0.00  0.00    +0.232 C 
ATOM     13  O   UNL     1      -3.781   1.519   4.086  0.00  0.00    -0.274 OA
ATOM     14  H   UNL     1      -5.519  -1.169   4.276  0.00  0.00    +0.149 HD
BRANCH  11  16
ATOM     15  C   UNL     1      -7.018   1.537   4.454  0.00  0.00    +0.036 C 
ATOM     16  C   UNL     1      -6.046   0.730   5.317  0.00  0.00    +0.136 C 
BRANCH  16  17
ATOM     17  C   UNL     1      -6.823  -0.127   6.282  0.00  0.00    +0.126 A 
ATOM     18  C   UNL     1      -7.036   0.169   7.571  0.00  0.00    +0.055 A 
ATOM     19  C   UNL     1      -7.832  -0.936   8.119  0.00  0.00    +0.020 A 
ATOM     20  C   UNL     1      -8.370  -1.223   9.373  0.00  0.00    +0.011 A 
ATOM     21  C   UNL     1      -9.085  -2.374   9.557  0.00  0.00    +0.001 A 
ATOM     22  C   UNL     1      -9.279  -3.256   8.504  0.00  0.00    +0.004 A 
ATOM     23  C   UNL     1      -8.755  -2.989   7.257  0.00  0.00    +0.047 A 
ATOM     24  C   UNL     1      -8.025  -1.826   7.049  0.00  0.00    +0.135 A 
ATOM     25  O   UNL     1      -7.409  -1.297   5.972  0.00  0.00    -0.458 OA
ENDBRANCH  16  17
ENDBRANCH  11  16
ENDBRANCH  10  12
ENDBRANCH   1  10
BRANCH   4  26
ATOM     26  C   UNL     1      -0.810   3.107   1.274  0.00  0.00    +0.039 C 
BRANCH  26  27
ATOM     27  C   UNL     1       0.603   3.693   1.227  0.00  0.00    +0.038 C 
BRANCH  27  28
ATOM     28  C   UNL     1       0.522   5.198   1.234  0.00  0.00    -0.047 A 
ATOM     29  C   UNL     1       0.450   5.891   0.040  0.00  0.00    +0.007 A 
ATOM     30  C   UNL     1       0.371   7.270   0.044  0.00  0.00    +0.046 A 
ATOM     31  C   UNL     1       0.376   7.960   1.247  0.00  0.00    +0.127 A 
ATOM     32  C   UNL     1       0.454   7.263   2.444  0.00  0.00    +0.046 A 
ATOM     33  C   UNL     1       0.527   5.884   2.435  0.00  0.00    +0.007 A 
BRANCH  31  34
ATOM     34  O   UNL     1       0.303   9.318   1.254  0.00  0.00    -0.434 OA
BRANCH  34  35
ATOM     35  C   UNL     1       0.225   9.969  -0.016  0.00  0.00    +0.541 C 
ATOM     36  F   UNL     1       1.361   9.657  -0.771  0.00  0.00    -0.166 F 
ATOM     37  F   UNL     1      -0.919   9.535  -0.693  0.00  0.00    -0.166 F 
ENDBRANCH  34  35
ENDBRANCH  31  34
ENDBRANCH  27  28
ENDBRANCH  26  27
ENDBRANCH   4  26
TORSDOF 9
