REMARK  Name = ZINC00887535
REMARK  11 active torsions:
REMARK  status: ('A' for Active; 'I' for Inactive)
REMARK    1  A    between atoms: C_1  and  C_2
REMARK    2  A    between atoms: C_5  and  C_8
REMARK    3  A    between atoms: C_8  and  C_10
REMARK    4  A    between atoms: C_8  and  N_20
REMARK    5  A    between atoms: N_12  and  C_13
REMARK    6  A    between atoms: C_13  and  C_14
REMARK    7  A    between atoms: N_20  and  C_21
REMARK    8  A    between atoms: C_25  and  C_27
REMARK    9  A    between atoms: C_28  and  C_30
REMARK   10  A    between atoms: C_30  and  N_31
REMARK   11  A    between atoms: C_33  and  C_36
REMARK                            x       y       z     vdW  Elec       q    Type
REMARK                         _______ _______ _______ _____ _____    ______ ____
ROOT
ATOM      1  N   UNL     1      -0.728  -4.749   1.080  0.00  0.00    -0.254 N 
ATOM      2  C   UNL     1      -0.815  -6.094   1.111  0.00  0.00    +0.244 C 
ATOM      3  O   UNL     1      -0.291  -6.756   0.240  0.00  0.00    -0.273 OA
ENDROOT
BRANCH   1   4
ATOM      4  C   UNL     1      -1.413  -3.982   2.028  0.00  0.00    +0.038 A 
ATOM      5  C   UNL     1      -2.503  -3.211   1.643  0.00  0.00    +0.023 A 
ATOM      6  C   UNL     1      -3.178  -2.455   2.581  0.00  0.00    +0.002 A 
ATOM      7  C   UNL     1      -2.769  -2.465   3.902  0.00  0.00    +0.003 A 
ATOM      8  C   UNL     1      -1.685  -3.230   4.288  0.00  0.00    -0.049 A 
ATOM      9  C   UNL     1      -1.010  -3.994   3.356  0.00  0.00    +0.027 A 
ATOM     10  C   UNL     1      -1.243  -3.237   5.729  0.00  0.00    +0.044 C 
ENDBRANCH   1   4
BRANCH   1  11
ATOM     11  C   UNL     1       0.085  -4.091   0.053  0.00  0.00    +0.197 C 
BRANCH  11  16
ATOM     12  C   UNL     1      -0.593   1.634   0.442  0.00  0.00    +0.044 C 
ATOM     13  C   UNL     1      -0.416   0.141   0.341  0.00  0.00    -0.050 A 
ATOM     14  C   UNL     1      -0.702  -0.510  -0.845  0.00  0.00    +0.004 A 
ATOM     15  C   UNL     1      -0.539  -1.879  -0.938  0.00  0.00    +0.006 A 
ATOM     16  C   UNL     1      -0.091  -2.598   0.155  0.00  0.00    -0.018 A 
ATOM     17  C   UNL     1       0.195  -1.947   1.340  0.00  0.00    +0.006 A 
ATOM     18  C   UNL     1       0.037  -0.577   1.432  0.00  0.00    +0.004 A 
ENDBRANCH  11  16
BRANCH  11  19
ATOM     19  C   UNL     1       1.536  -4.441   0.261  0.00  0.00    +0.239 C 
ATOM     20  O   UNL     1       1.860  -5.169   1.176  0.00  0.00    -0.273 OA
ATOM     21  N   UNL     1       2.474  -3.946  -0.570  0.00  0.00    -0.309 N 
ATOM     22  H   UNL     1       2.215  -3.364  -1.302  0.00  0.00    +0.149 HD
BRANCH  21  23
ATOM     23  C   UNL     1       3.885  -4.286  -0.369  0.00  0.00    +0.139 C 
BRANCH  23  24
ATOM     24  C   UNL     1       4.721  -3.609  -1.424  0.00  0.00    -0.030 A 
ATOM     25  C   UNL     1       4.971  -4.250  -2.623  0.00  0.00    +0.005 A 
ATOM     26  C   UNL     1       5.738  -3.629  -3.592  0.00  0.00    +0.000 A 
ATOM     27  C   UNL     1       6.253  -2.367  -3.361  0.00  0.00    +0.000 A 
ATOM     28  C   UNL     1       6.002  -1.726  -2.162  0.00  0.00    +0.000 A 
ATOM     29  C   UNL     1       5.232  -2.345  -1.196  0.00  0.00    +0.005 A 
ENDBRANCH  23  24
ENDBRANCH  21  23
ENDBRANCH  11  19
ENDBRANCH   1  11
BRANCH   2  30
ATOM     30  C   UNL     1      -1.563  -6.775   2.227  0.00  0.00    +0.264 C 
BRANCH  30  31
ATOM     31  N   UNL     1      -1.433  -8.228   2.087  0.00  0.00    -0.154 N 
ATOM     32  N   UNL     1      -2.232  -8.986   1.418  0.00  0.00    -0.129 NA
ATOM     33  C   UNL     1      -1.794 -10.226   1.523  0.00  0.00    +0.211 A 
ATOM     34  N   UNL     1      -0.693 -10.180   2.288  0.00  0.00    -0.107 NA
ATOM     35  N   UNL     1      -0.501  -8.946   2.608  0.00  0.00    -0.045 NA
BRANCH  33  36
ATOM     36  C   UNL     1      -2.400 -11.432   0.917  0.00  0.00    +0.060 A 
ATOM     37  C   UNL     1      -1.992 -12.736   0.999  0.00  0.00    +0.019 A 
ATOM     38  C   UNL     1      -2.724 -13.702   0.343  0.00  0.00    +0.008 A 
ATOM     39  C   UNL     1      -3.825 -13.333  -0.361  0.00  0.00    +0.046 A 
ATOM     40  S   UNL     1      -3.858 -11.566  -0.104  0.00  0.00    -0.093 S 
ENDBRANCH  33  36
ENDBRANCH  30  31
ENDBRANCH   2  30
TORSDOF 9
