REMARK  Name = ZINC38595989
REMARK  11 active torsions:
REMARK  status: ('A' for Active; 'I' for Inactive)
REMARK    1  A    between atoms: C_1  and  C_2
REMARK    2  A    between atoms: C_2  and  O_3
REMARK    3  A    between atoms: O_3  and  C_4
REMARK    4  A    between atoms: C_13  and  C_14
REMARK    5  A    between atoms: N_16  and  C_17
REMARK    6  A    between atoms: C_17  and  C_19
REMARK    7  A    between atoms: C_17  and  C_20
REMARK    8  A    between atoms: C_20  and  C_22
REMARK    9  A    between atoms: C_20  and  N_27
REMARK   10  A    between atoms: N_30  and  C_33
REMARK   11  A    between atoms: C_33  and  C_34
REMARK                            x       y       z     vdW  Elec       q    Type
REMARK                         _______ _______ _______ _____ _____    ______ ____
ROOT
ATOM      1  C   UNL     1       0.662   0.656  -6.208  0.00  0.00    +0.113 C 
ENDROOT
BRANCH   1   2
ATOM      2  N   UNL     1       1.130   1.507  -7.311  0.00  0.00    -0.297 NA
ATOM      3  C   UNL     1       2.131   2.475  -6.842  0.00  0.00    +0.066 C 
ATOM      4  C   UNL     1       2.635   3.299  -8.029  0.00  0.00    -0.063 C 
ATOM      5  N   UNL     1       1.505   4.001  -8.652  0.00  0.00    +0.384 N 
ATOM      6  C   UNL     1       0.525   3.021  -9.137  0.00  0.00    -0.063 C 
ATOM      7  C   UNL     1       0.004   2.194  -7.960  0.00  0.00    +0.066 C 
ATOM      8  H   UNL     1       1.068   4.605  -7.972  0.00  0.00    -0.081 HD
BRANCH   5   9
ATOM      9  C   UNL     1       1.991   4.807  -9.780  0.00  0.00    -0.043 C 
BRANCH   9  10
ATOM     10  C   UNL     1       0.855   5.622 -10.342  0.00  0.00    -0.064 A 
ATOM     11  C   UNL     1       0.063   5.101 -11.348  0.00  0.00    +0.002 A 
ATOM     12  C   UNL     1      -0.979   5.848 -11.864  0.00  0.00    +0.000 A 
ATOM     13  C   UNL     1      -1.230   7.116 -11.373  0.00  0.00    +0.000 A 
ATOM     14  C   UNL     1      -0.438   7.636 -10.367  0.00  0.00    +0.000 A 
ATOM     15  C   UNL     1       0.601   6.887  -9.848  0.00  0.00    +0.002 A 
ENDBRANCH   9  10
ENDBRANCH   5   9
ENDBRANCH   1   2
BRANCH   1  16
ATOM     16  C   UNL     1      -0.134   1.488  -5.236  0.00  0.00    +0.009 A 
ATOM     17  C   UNL     1      -1.355   1.241  -4.702  0.00  0.00    +0.013 A 
ATOM     18  C   UNL     1      -1.898   2.155  -3.819  0.00  0.00    +0.008 A 
ATOM     19  C   UNL     1      -1.193   3.271  -3.512  0.00  0.00    +0.045 A 
ATOM     20  S   UNL     1       0.290   3.049  -4.480  0.00  0.00    -0.100 S 
ENDBRANCH   1  16
BRANCH   1  21
ATOM     21  C   UNL     1       1.867   0.045  -5.490  0.00  0.00    +0.092 C 
ATOM     22  C   UNL     1       2.676  -0.798  -6.478  0.00  0.00    +0.030 C 
BRANCH  21  25
ATOM     23  C   UNL     1       2.204  -1.037  -3.333  0.00  0.00    +0.248 C 
ATOM     24  O   UNL     1       3.316  -0.544  -3.293  0.00  0.00    -0.270 OA
ATOM     25  N   UNL     1       1.401  -0.803  -4.390  0.00  0.00    -0.307 N 
ATOM     26  H   UNL     1       0.515  -1.196  -4.423  0.00  0.00    +0.149 HD
BRANCH  23  36
ATOM     27  C   UNL     1       1.062  -1.337  -1.140  0.00  0.00    +0.133 A 
ATOM     28  C   UNL     1       0.616  -2.153  -0.098  0.00  0.00    +0.047 A 
ATOM     29  C   UNL     1       0.824  -3.494  -0.102  0.00  0.00    +0.012 A 
ATOM     30  C   UNL     1       1.503  -4.116  -1.167  0.00  0.00    -0.017 A 
ATOM     31  C   UNL     1       1.722  -5.503  -1.180  0.00  0.00    +0.008 A 
ATOM     32  C   UNL     1       2.383  -6.071  -2.227  0.00  0.00    +0.001 A 
ATOM     33  C   UNL     1       2.845  -5.297  -3.288  0.00  0.00    +0.001 A 
ATOM     34  C   UNL     1       2.649  -3.948  -3.307  0.00  0.00    +0.009 A 
ATOM     35  C   UNL     1       1.974  -3.332  -2.247  0.00  0.00    -0.002 A 
ATOM     36  C   UNL     1       1.737  -1.889  -2.230  0.00  0.00    +0.086 A 
BRANCH  27  37
ATOM     37  O   UNL     1       0.833  -0.002  -1.095  0.00  0.00    -0.491 OA
BRANCH  37  39
ATOM     38  C   UNL     1      -0.028   2.015  -0.079  0.00  0.00    +0.048 C 
ATOM     39  C   UNL     1       0.137   0.499   0.048  0.00  0.00    +0.226 C 
ENDBRANCH  37  39
ENDBRANCH  27  37
ENDBRANCH  23  36
ENDBRANCH  21  25
ENDBRANCH   1  21
TORSDOF 9
