REMARK  Name = ZINC08645495
REMARK  13 active torsions:
REMARK  status: ('A' for Active; 'I' for Inactive)
REMARK    1  A    between atoms: C_1  and  C_2
REMARK    2  A    between atoms: C_2  and  C_4
REMARK    3  A    between atoms: C_2  and  S_12
REMARK    4  A    between atoms: N_6  and  C_7
REMARK    5  A    between atoms: S_12  and  C_13
REMARK    6  A    between atoms: C_16  and  C_24
REMARK    7  A    between atoms: N_17  and  C_18
REMARK    8  A    between atoms: C_26  and  O_34
REMARK    9  A    between atoms: C_27  and  O_32
REMARK   10  A    between atoms: C_28  and  O_30
REMARK   11  A    between atoms: O_30  and  C_31
REMARK   12  A    between atoms: O_32  and  C_33
REMARK   13  A    between atoms: O_34  and  C_35
REMARK                            x       y       z     vdW  Elec       q    Type
REMARK                         _______ _______ _______ _____ _____    ______ ____
ROOT
ATOM      1  C   UNL     1      -2.724  -2.376  -0.073  0.00  0.00    +0.193 A 
ATOM      2  N   UNL     1      -3.328  -1.217  -0.207  0.00  0.00    -0.122 NA
ATOM      3  N   UNL     1      -2.487  -0.259  -0.042  0.00  0.00    -0.128 NA
ATOM      4  C   UNL     1      -1.295  -0.747   0.209  0.00  0.00    +0.165 A 
ATOM      5  N   UNL     1      -1.409  -2.118   0.191  0.00  0.00    -0.299 N 
ENDROOT
BRANCH   5   6
ATOM      6  C   UNL     1      -0.342  -3.098   0.413  0.00  0.00    +0.091 C 
ATOM      7  C   UNL     1      -0.286  -4.067  -0.770  0.00  0.00    +0.025 C 
ATOM      8  C   UNL     1       0.828  -5.090  -0.539  0.00  0.00    +0.002 C 
ATOM      9  C   UNL     1       0.545  -5.870   0.746  0.00  0.00    +0.000 C 
ATOM     10  C   UNL     1       0.489  -4.901   1.929  0.00  0.00    +0.002 C 
ATOM     11  C   UNL     1      -0.625  -3.878   1.698  0.00  0.00    +0.025 C 
ENDBRANCH   5   6
BRANCH   4  12
ATOM     12  C   UNL     1      -0.062   0.029   0.458  0.00  0.00    +0.026 A 
ATOM     13  C   UNL     1       0.923  -0.476   1.308  0.00  0.00    +0.061 A 
ATOM     14  C   UNL     1       2.076   0.252   1.539  0.00  0.00    +0.166 A 
ATOM     15  C   UNL     1       2.255   1.487   0.924  0.00  0.00    +0.204 A 
ATOM     16  C   UNL     1       1.275   1.993   0.076  0.00  0.00    +0.166 A 
ATOM     17  C   UNL     1       0.119   1.269  -0.158  0.00  0.00    +0.061 A 
BRANCH  16  18
ATOM     18  O   UNL     1       1.452   3.201  -0.522  0.00  0.00    -0.491 OA
ATOM     19  C   UNL     1       0.405   3.660  -1.380  0.00  0.00    +0.277 C 
ENDBRANCH  16  18
BRANCH  15  20
ATOM     20  O   UNL     1       3.390   2.202   1.153  0.00  0.00    -0.488 OA
ATOM     21  C   UNL     1       3.372   3.116   2.251  0.00  0.00    +0.277 C 
ENDBRANCH  15  20
BRANCH  14  22
ATOM     22  O   UNL     1       3.036  -0.239   2.367  0.00  0.00    -0.491 OA
ATOM     23  C   UNL     1       2.787  -1.513   2.965  0.00  0.00    +0.277 C 
ENDBRANCH  14  22
ENDBRANCH   4  12
BRANCH   1  24
ATOM     24  S   UNL     1      -3.470  -3.966  -0.213  0.00  0.00    -0.074 S 
BRANCH  24  26
ATOM     25  C   UNL     1      -5.233  -2.768  -1.923  0.00  0.00    +0.029 C 
ATOM     26  C   UNL     1      -5.177  -3.481  -0.570  0.00  0.00    +0.137 C 
BRANCH  26  27
ATOM     27  C   UNL     1      -6.049  -4.710  -0.613  0.00  0.00    +0.226 C 
ATOM     28  O   UNL     1      -5.551  -5.801  -0.787  0.00  0.00    -0.275 OA
ATOM     29  N   UNL     1      -7.383  -4.595  -0.460  0.00  0.00    -0.312 N 
ATOM     30  H   UNL     1      -7.782  -3.721  -0.321  0.00  0.00    +0.149 HD
BRANCH  29  31
ATOM     31  C   UNL     1      -8.231  -5.789  -0.502  0.00  0.00    +0.073 C 
ATOM     32  C   UNL     1      -8.644  -6.093  -1.957  0.00  0.00    +0.022 C 
ATOM     33  C   UNL     1     -10.102  -6.602  -1.840  0.00  0.00    +0.002 C 
ATOM     34  C   UNL     1     -10.690  -5.701  -0.726  0.00  0.00    +0.002 C 
ATOM     35  C   UNL     1      -9.532  -5.539   0.281  0.00  0.00    +0.022 C 
ENDBRANCH  29  31
ENDBRANCH  26  27
ENDBRANCH  24  26
ENDBRANCH   1  24
TORSDOF 9
