REMARK  Name = ZINC12363899
REMARK  13 active torsions:
REMARK  status: ('A' for Active; 'I' for Inactive)
REMARK    1  A    between atoms: C_1  and  C_2
REMARK    2  A    between atoms: C_2  and  C_34
REMARK    3  A    between atoms: C_3  and  C_4
REMARK    4  A    between atoms: C_4  and  C_5
REMARK    5  A    between atoms: C_5  and  C_6
REMARK    6  A    between atoms: C_6  and  C_33
REMARK    7  A    between atoms: C_10  and  C_32
REMARK    8  A    between atoms: C_11  and  C_31
REMARK    9  A    between atoms: N_13  and  C_17
REMARK   10  A    between atoms: C_17  and  C_18
REMARK   11  A    between atoms: C_18  and  C_19
REMARK   12  A    between atoms: C_26  and  O_29
REMARK   13  A    between atoms: O_29  and  C_30
REMARK                            x       y       z     vdW  Elec       q    Type
REMARK                         _______ _______ _______ _____ _____    ______ ____
ROOT
ATOM      1  C   UNL     1      -6.323  -0.138   1.836  0.00  0.00    +0.070 C 
ATOM      2  C   UNL     1      -6.559  -0.879   3.195  0.00  0.00    +0.035 C 
ATOM      3  C   UNL     1      -7.127  -2.228   2.906  0.00  0.00    +0.007 C 
ATOM      4  C   UNL     1      -6.198  -3.209   2.248  0.00  0.00    +0.052 C 
ATOM      5  C   UNL     1      -6.240  -3.213   0.736  0.00  0.00    +0.158 C 
ATOM      6  C   UNL     1      -5.552  -1.929   0.203  0.00  0.00    +0.178 C 
ATOM      7  O   UNL     1      -5.386  -0.902   1.120  0.00  0.00    -0.346 OA
ATOM      8  N   UNL     1      -4.215  -2.421  -0.213  0.00  0.00    -0.235 N 
ATOM      9  C   UNL     1      -4.228  -3.758  -0.220  0.00  0.00    +0.406 C 
ATOM     10  O   UNL     1      -3.296  -4.433  -0.628  0.00  0.00    -0.226 OA
ATOM     11  O   UNL     1      -5.359  -4.285   0.259  0.00  0.00    -0.439 OA
ATOM     12  C   UNL     1      -6.250  -1.472  -1.087  0.00  0.00    +0.068 C 
ATOM     13  C   UNL     1      -7.657  -3.395   0.179  0.00  0.00    +0.060 C 
ATOM     14  C   UNL     1      -7.659   0.118   1.142  0.00  0.00    +0.041 C 
ENDROOT
BRANCH   1  15
ATOM     15  C   UNL     1      -5.697   1.242   2.163  0.00  0.00    +0.039 C 
BRANCH  15  16
ATOM     16  C   UNL     1      -5.327   1.956   0.861  0.00  0.00    +0.030 C 
BRANCH  16  19
ATOM     17  C   UNL     1      -6.153   4.376  -0.327  0.00  0.00    +0.038 C 
ATOM     18  C   UNL     1      -5.029   4.372   0.676  0.00  0.00    -0.080 C 
ATOM     19  C   UNL     1      -4.604   3.239   1.179  0.00  0.00    -0.028 C 
ATOM     20  C   UNL     1      -4.392   5.670   1.099  0.00  0.00    +0.038 C 
ENDBRANCH  16  19
ENDBRANCH  15  16
ENDBRANCH   1  15
BRANCH   8  21
ATOM     21  C   UNL     1      -3.084  -1.560  -0.565  0.00  0.00    +0.119 C 
BRANCH  21  22
ATOM     22  C   UNL     1      -3.035  -1.379  -2.083  0.00  0.00    +0.056 C 
BRANCH  22  23
ATOM     23  C   UNL     1      -1.820  -0.567  -2.453  0.00  0.00    -0.021 A 
ATOM     24  C   UNL     1      -1.789   0.751  -2.710  0.00  0.00    +0.087 A 
ATOM     25  N   UNL     1      -0.511   1.137  -3.010  0.00  0.00    -0.360 N 
ATOM     26  H   UNL     1      -0.239   2.042  -3.230  0.00  0.00    +0.165 HD
ATOM     27  C   UNL     1       0.333   0.048  -2.952  0.00  0.00    +0.047 A 
ATOM     28  C   UNL     1      -0.451  -1.065  -2.601  0.00  0.00    +0.006 A 
ATOM     29  C   UNL     1       0.141  -2.323  -2.472  0.00  0.00    +0.056 A 
ATOM     30  C   UNL     1       1.499  -2.463  -2.682  0.00  0.00    +0.121 A 
ATOM     31  C   UNL     1       2.272  -1.359  -3.029  0.00  0.00    +0.047 A 
ATOM     32  C   UNL     1       1.698  -0.114  -3.164  0.00  0.00    +0.030 A 
BRANCH  30  33
ATOM     33  O   UNL     1       2.082  -3.685  -2.554  0.00  0.00    -0.495 OA
ATOM     34  C   UNL     1       3.505  -3.741  -2.678  0.00  0.00    +0.277 C 
ENDBRANCH  30  33
ENDBRANCH  22  23
ENDBRANCH  21  22
ENDBRANCH   8  21
TORSDOF 7
