REMARK  Name = ZINC24037388
REMARK  12 active torsions:
REMARK  status: ('A' for Active; 'I' for Inactive)
REMARK    1  A    between atoms: C_1  and  C_2
REMARK    2  A    between atoms: C_5  and  C_34
REMARK    3  A    between atoms: C_6  and  S_8
REMARK    4  A    between atoms: S_8  and  O_11
REMARK    5  A    between atoms: O_11  and  C_12
REMARK    6  A    between atoms: C_15  and  C_20
REMARK    7  A    between atoms: C_17  and  O_18
REMARK    8  A    between atoms: O_18  and  C_19
REMARK    9  A    between atoms: N_21  and  N_22
REMARK   10  A    between atoms: C_23  and  C_25
REMARK   11  A    between atoms: C_25  and  O_26
REMARK   12  A    between atoms: O_26  and  C_27
REMARK                            x       y       z     vdW  Elec       q    Type
REMARK                         _______ _______ _______ _____ _____    ______ ____
ROOT
ATOM      1  C   UNL     1       2.284  10.742   0.038  0.00  0.00    +0.198 A 
ATOM      2  C   UNL     1       1.196   9.881   0.043  0.00  0.00    +0.053 A 
ATOM      3  C   UNL     1       1.393   8.516   0.029  0.00  0.00    +0.013 A 
ATOM      4  C   UNL     1       2.691   7.997   0.019  0.00  0.00    -0.002 A 
ATOM      5  C   UNL     1       3.786   8.865   0.013  0.00  0.00    +0.059 A 
ATOM      6  C   UNL     1       3.581  10.232   0.023  0.00  0.00    +0.165 A 
ENDROOT
BRANCH   6   7
ATOM      7  O   UNL     1       4.644  11.080   0.017  0.00  0.00    -0.491 OA
ATOM      8  C   UNL     1       5.945  10.488   0.001  0.00  0.00    +0.277 C 
ENDBRANCH   6   7
BRANCH   4   9
ATOM      9  C   UNL     1       2.904   6.539   0.009  0.00  0.00    +0.138 C 
ATOM     10  N   UNL     1       1.885   5.734   0.015  0.00  0.00    -0.188 NA
BRANCH  10  11
ATOM     11  N   UNL     1       2.088   4.348   0.005  0.00  0.00    -0.204 N 
ATOM     12  C   UNL     1       1.030   3.513   0.011  0.00  0.00    +0.270 C 
ATOM     13  O   UNL     1      -0.097   3.961   0.024  0.00  0.00    -0.270 OA
ATOM     14  H   UNL     1       3.110   3.942  -0.006  0.00  0.00    +0.177 HD
BRANCH  12  15
ATOM     15  C   UNL     1       1.248   2.021   0.001  0.00  0.00    +0.326 C 
BRANCH  15  16
ATOM     16  O   UNL     1      -0.016   1.355   0.009  0.00  0.00    -0.480 OA
BRANCH  16  17
ATOM     17  C   UNL     1       0.002  -0.004   0.002  0.00  0.00    +0.156 A 
ATOM     18  C   UNL     1       1.211  -0.682  -0.019  0.00  0.00    +0.048 A 
ATOM     19  C   UNL     1       1.228  -2.064  -0.022  0.00  0.00    +0.004 A 
ATOM     20  C   UNL     1       0.040  -2.772  -0.015  0.00  0.00    +0.003 A 
ATOM     21  C   UNL     1      -1.168  -2.099   0.002  0.00  0.00    +0.042 A 
ATOM     22  C   UNL     1      -1.190  -0.716   0.010  0.00  0.00    +0.165 A 
ATOM     23  F   UNL     1      -2.371  -0.059   0.024  0.00  0.00    -0.202 F 
ENDBRANCH  16  17
ENDBRANCH  15  16
ENDBRANCH  12  15
ENDBRANCH  10  11
ENDBRANCH   4   9
BRANCH   1  24
ATOM     24  O   UNL     1       2.084  12.086   0.047  0.00  0.00    -0.339 OA
BRANCH  24  25
ATOM     25  S   UNL     1       1.980  12.706  -1.339  0.00  0.00    +0.151 S 
ATOM     26  O   UNL     1       1.984  14.115  -1.155  0.00  0.00    -0.131 OA
ATOM     27  O   UNL     1       2.935  12.041  -2.154  0.00  0.00    -0.131 OA
BRANCH  25  33
ATOM     28  C   UNL     1      -1.197   9.530  -4.011  0.00  0.00    +0.044 C 
ATOM     29  C   UNL     1      -1.017  10.796  -3.213  0.00  0.00    -0.049 A 
ATOM     30  C   UNL     1      -2.097  11.628  -2.985  0.00  0.00    +0.004 A 
ATOM     31  C   UNL     1      -1.932  12.789  -2.253  0.00  0.00    +0.005 A 
ATOM     32  C   UNL     1      -0.687  13.118  -1.750  0.00  0.00    -0.022 A 
ATOM     33  C   UNL     1       0.393  12.287  -1.979  0.00  0.00    +0.131 A 
ATOM     34  C   UNL     1       0.229  11.128  -2.715  0.00  0.00    +0.034 A 
ATOM     35  C   UNL     1      -0.507  14.385  -0.953  0.00  0.00    +0.046 C 
ENDBRANCH  25  33
ENDBRANCH  24  25
ENDBRANCH   1  24
TORSDOF 9
