REMARK  Name = ZINC20149612
REMARK  9 active torsions:
REMARK  status: ('A' for Active; 'I' for Inactive)
REMARK    1  A    between atoms: C_4  and  C_7
REMARK    2  A    between atoms: C_7  and  N_8
REMARK    3  A    between atoms: C_10  and  N_29
REMARK    4  A    between atoms: C_13  and  C_15
REMARK    5  A    between atoms: N_17  and  C_18
REMARK    6  A    between atoms: C_18  and  C_19
REMARK    7  A    between atoms: C_19  and  C_20
REMARK    8  A    between atoms: N_29  and  C_30
REMARK    9  A    between atoms: C_30  and  C_31
REMARK                            x       y       z     vdW  Elec       q    Type
REMARK                         _______ _______ _______ _____ _____    ______ ____
ROOT
ATOM      1  N   UNL     1       1.182   8.250   4.033  0.00  0.00    +0.391 N 
ATOM      2  C   UNL     1       1.681   9.640   3.880  0.00  0.00    -0.059 C 
ATOM      3  C   UNL     1       2.736   9.553   2.755  0.00  0.00    +0.036 C 
ATOM      4  C   UNL     1       2.351   8.301   1.941  0.00  0.00    +0.010 C 
ATOM      5  C   UNL     1       1.096   7.737   2.641  0.00  0.00    +0.021 C 
ATOM      6  H   UNL     1       1.829   7.633   4.674  0.00  0.00    -0.080 HD
ENDROOT
BRANCH   5   7
ATOM      7  C   UNL     1       1.122   6.231   2.633  0.00  0.00    +0.200 C 
ATOM      8  O   UNL     1       1.142   5.619   3.680  0.00  0.00    -0.278 OA
ATOM      9  N   UNL     1       1.123   5.563   1.463  0.00  0.00    -0.316 N 
ATOM     10  H   UNL     1       1.104   6.117   0.513  0.00  0.00    +0.149 HD
BRANCH   9  11
ATOM     11  C   UNL     1       1.148   4.098   1.455  0.00  0.00    +0.109 C 
BRANCH  11  12
ATOM     12  C   UNL     1       1.143   3.595   0.010  0.00  0.00    +0.054 C 
BRANCH  12  13
ATOM     13  C   UNL     1       1.169   2.089   0.002  0.00  0.00    -0.042 A 
ATOM     14  C   UNL     1      -0.017   1.378   0.010  0.00  0.00    +0.007 A 
ATOM     15  C   UNL     1       0.002  -0.004   0.002  0.00  0.00    +0.050 A 
ATOM     16  C   UNL     1       1.211  -0.681  -0.013  0.00  0.00    +0.166 A 
ATOM     17  C   UNL     1       2.405   0.035  -0.021  0.00  0.00    +0.166 A 
ATOM     18  C   UNL     1       2.379   1.420  -0.013  0.00  0.00    +0.053 A 
ATOM     19  O   UNL     1       3.444  -0.851  -0.036  0.00  0.00    -0.453 OA
ATOM     20  C   UNL     1       2.881  -2.111   0.375  0.00  0.00    +0.466 C 
ATOM     21  O   UNL     1       1.501  -2.015  -0.024  0.00  0.00    -0.453 OA
ENDBRANCH  12  13
ENDBRANCH  11  12
ENDBRANCH   9  11
ENDBRANCH   5   7
BRANCH   3  22
ATOM     22  N   UNL     1       2.678  10.752   1.907  0.00  0.00    -0.311 NA
ATOM     23  H   UNL     1       2.996  10.494   0.886  0.00  0.00    +0.122 HD
BRANCH  22  24
ATOM     24  C   UNL     1       3.562  11.805   2.424  0.00  0.00    +0.122 C 
BRANCH  24  25
ATOM     25  C   UNL     1       3.477  13.015   1.530  0.00  0.00    +0.037 A 
ATOM     26  C   UNL     1       4.340  13.146   0.457  0.00  0.00    +0.131 A 
ATOM     27  C   UNL     1       4.257  14.256  -0.368  0.00  0.00    +0.039 A 
ATOM     28  C   UNL     1       3.319  15.239  -0.111  0.00  0.00    +0.006 A 
ATOM     29  C   UNL     1       2.460  15.112   0.964  0.00  0.00    +0.039 A 
ATOM     30  C   UNL     1       2.538  14.000   1.786  0.00  0.00    +0.131 A 
ATOM     31  F   UNL     1       1.698  13.876   2.837  0.00  0.00    -0.205 F 
ATOM     32  F   UNL     1       5.261  12.189   0.209  0.00  0.00    -0.205 F 
ENDBRANCH  24  25
ENDBRANCH  22  24
ENDBRANCH   3  22
BRANCH   1  33
ATOM     33  C   UNL     1      -0.136   8.232   4.683  0.00  0.00    -0.042 C 
BRANCH  33  37
ATOM     34  C   UNL     1       0.320   9.051   8.850  0.00  0.00    +0.000 A 
ATOM     35  C   UNL     1       0.124  10.089   7.959  0.00  0.00    +0.000 A 
ATOM     36  C   UNL     1      -0.023   9.825   6.611  0.00  0.00    +0.002 A 
ATOM     37  C   UNL     1       0.025   8.521   6.153  0.00  0.00    -0.064 A 
ATOM     38  C   UNL     1       0.216   7.482   7.044  0.00  0.00    +0.002 A 
ATOM     39  C   UNL     1       0.369   7.747   8.392  0.00  0.00    +0.000 A 
ENDBRANCH  33  37
ENDBRANCH   1  33
TORSDOF 9
