REMARK  Name = ZINC09572963
REMARK  8 active torsions:
REMARK  status: ('A' for Active; 'I' for Inactive)
REMARK    1  A    between atoms: C_1  and  C_2
REMARK    2  A    between atoms: C_6  and  N_8
REMARK    3  A    between atoms: C_9  and  C_30
REMARK    4  A    between atoms: C_12  and  S_13
REMARK    5  A    between atoms: S_13  and  C_14
REMARK    6  A    between atoms: C_14  and  C_15
REMARK    7  A    between atoms: N_17  and  C_18
REMARK    8  A    between atoms: C_19  and  C_27
REMARK                            x       y       z     vdW  Elec       q    Type
REMARK                         _______ _______ _______ _____ _____    ______ ____
ROOT
ATOM      1  C   UNL     1       2.010   7.072  -4.584  0.00  0.00    +0.228 C 
ATOM      2  O   UNL     1       2.223   5.963  -5.024  0.00  0.00    -0.275 OA
ATOM      3  N   UNL     1       2.329   8.159  -5.314  0.00  0.00    -0.279 N 
ATOM      4  H   UNL     1       2.159   9.047  -4.962  0.00  0.00    +0.155 HD
ENDROOT
BRANCH   3   5
ATOM      5  C   UNL     1       2.902   8.009  -6.568  0.00  0.00    +0.084 A 
ATOM      6  C   UNL     1       3.291   8.996  -7.462  0.00  0.00    +0.068 A 
ATOM      7  C   UNL     1       3.875   8.568  -8.722  0.00  0.00    -0.023 A 
ATOM      8  C   UNL     1       3.966   7.231  -8.889  0.00  0.00    -0.004 A 
ATOM      9  S   UNL     1       3.297   6.542  -7.402  0.00  0.00    -0.077 S 
ATOM     10  C   UNL     1       4.513   6.504 -10.079  0.00  0.00    +0.043 C 
ATOM     11  C   UNL     1       4.617   7.497 -11.246  0.00  0.00    +0.005 C 
ATOM     12  C   UNL     1       5.295   8.776 -10.747  0.00  0.00    +0.005 C 
ATOM     13  C   UNL     1       4.356   9.528  -9.803  0.00  0.00    +0.037 C 
BRANCH   6  14
ATOM     14  C   UNL     1       3.124  10.418  -7.146  0.00  0.00    +0.244 C 
ATOM     15  O   UNL     1       4.014  11.024  -6.579  0.00  0.00    -0.270 OA
ATOM     16  N   UNL     1       1.984  11.053  -7.482  0.00  0.00    -0.325 N 
ATOM     17  H   UNL     1       1.274  10.570  -7.934  0.00  0.00    +0.145 HD
ATOM     18  H   UNL     1       1.873  11.994  -7.272  0.00  0.00    +0.145 HD
ENDBRANCH   6  14
ENDBRANCH   3   5
BRANCH   1  19
ATOM     19  C   UNL     1       1.388   7.236  -3.221  0.00  0.00    +0.173 C 
BRANCH  19  20
ATOM     20  S   UNL     1       1.078   5.606  -2.499  0.00  0.00    -0.076 S 
BRANCH  20  25
ATOM     21  N   UNL     1      -0.069   5.245   0.030  0.00  0.00    -0.274 N 
ATOM     22  C   UNL     1      -0.537   6.061   1.026  0.00  0.00    +0.135 A 
ATOM     23  N   UNL     1      -0.365   7.291   0.631  0.00  0.00    -0.133 NA
ATOM     24  N   UNL     1       0.167   7.310  -0.538  0.00  0.00    -0.122 NA
ATOM     25  C   UNL     1       0.371   6.083  -0.958  0.00  0.00    +0.197 A 
ATOM     26  C   UNL     1      -1.137   5.618   2.335  0.00  0.00    +0.088 C 
BRANCH  21  32
ATOM     27  C   UNL     1       2.490   1.044  -0.016  0.00  0.00    +0.044 C 
ATOM     28  C   UNL     1       1.176   1.782   0.000  0.00  0.00    -0.048 A 
ATOM     29  C   UNL     1      -0.013   1.076   0.008  0.00  0.00    +0.003 A 
ATOM     30  C   UNL     1      -1.220   1.749   0.017  0.00  0.00    +0.002 A 
ATOM     31  C   UNL     1      -1.242   3.131   0.030  0.00  0.00    +0.026 A 
ATOM     32  C   UNL     1      -0.050   3.842   0.022  0.00  0.00    +0.050 A 
ATOM     33  C   UNL     1       1.161   3.163   0.007  0.00  0.00    +0.029 A 
ENDBRANCH  21  32
ENDBRANCH  20  25
ENDBRANCH  19  20
ENDBRANCH   1  19
TORSDOF 6
