REMARK  Name = ZINC47137657
REMARK  10 active torsions:
REMARK  status: ('A' for Active; 'I' for Inactive)
REMARK    1  A    between atoms: C_1  and  C_2
REMARK    2  A    between atoms: C_2  and  O_3
REMARK    3  A    between atoms: O_3  and  C_4
REMARK    4  A    between atoms: C_6  and  C_11
REMARK    5  A    between atoms: C_9  and  O_10
REMARK    6  A    between atoms: N_12  and  N_13
REMARK    7  A    between atoms: N_15  and  C_28
REMARK    8  A    between atoms: C_19  and  C_20
REMARK    9  A    between atoms: C_25  and  O_26
REMARK   10  A    between atoms: C_28  and  C_29
REMARK                            x       y       z     vdW  Elec       q    Type
REMARK                         _______ _______ _______ _____ _____    ______ ____
ROOT
ATOM      1  N   UNL     1       1.795  -6.750   0.081  0.00  0.00    -0.126 NA
ATOM      2  C   UNL     1       1.724  -8.049   0.295  0.00  0.00    +0.190 C 
ATOM      3  N   UNL     1       1.345  -9.043  -0.581  0.00  0.00    -0.237 N 
ATOM      4  C   UNL     1       1.331 -10.308  -0.199  0.00  0.00    +0.259 C 
ATOM      5  O   UNL     1       0.999 -11.199  -0.960  0.00  0.00    -0.269 OA
ATOM      6  C   UNL     1       1.736 -10.593   1.191  0.00  0.00    +0.078 C 
ATOM      7  C   UNL     1       1.812 -11.784   1.840  0.00  0.00    +0.032 C 
ATOM      8  S   UNL     1       2.104  -8.950   1.789  0.00  0.00    -0.047 S 
ENDROOT
BRANCH   7   9
ATOM      9  C   UNL     1       2.410 -11.853   3.178  0.00  0.00    +0.018 A 
ATOM     10  C   UNL     1       3.221 -10.811   3.643  0.00  0.00    +0.011 A 
ATOM     11  C   UNL     1       3.778 -10.883   4.901  0.00  0.00    +0.001 A 
ATOM     12  C   UNL     1       3.539 -11.982   5.709  0.00  0.00    +0.004 A 
ATOM     13  C   UNL     1       2.741 -13.019   5.264  0.00  0.00    +0.046 A 
ATOM     14  C   UNL     1       2.167 -12.962   4.005  0.00  0.00    +0.124 A 
BRANCH  14  15
ATOM     15  O   UNL     1       1.378 -13.977   3.569  0.00  0.00    -0.506 OA
ATOM     16  H   UNL     1       1.858 -14.678   3.106  0.00  0.00    +0.292 HD
ENDBRANCH  14  15
ENDBRANCH   7   9
BRANCH   1  18
ATOM     17  C   UNL     1       1.549  -4.982  -1.286  0.00  0.00    +0.143 C 
ATOM     18  N   UNL     1       1.479  -6.269  -1.074  0.00  0.00    -0.155 NA
BRANCH  17  21
ATOM     19  C   UNL     1       2.704  -1.893   0.505  0.00  0.00    +0.162 A 
ATOM     20  C   UNL     1       2.243  -2.729  -0.494  0.00  0.00    +0.059 A 
ATOM     21  C   UNL     1       2.039  -4.087  -0.227  0.00  0.00    -0.002 A 
ATOM     22  C   UNL     1       2.303  -4.591   1.051  0.00  0.00    +0.013 A 
ATOM     23  C   UNL     1       2.762  -3.750   2.042  0.00  0.00    +0.050 A 
ATOM     24  C   UNL     1       2.969  -2.405   1.774  0.00  0.00    +0.158 A 
BRANCH  24  25
ATOM     25  O   UNL     1       3.427  -1.581   2.754  0.00  0.00    -0.503 OA
ATOM     26  H   UNL     1       2.728  -1.170   3.281  0.00  0.00    +0.292 HD
ENDBRANCH  24  25
BRANCH  19  27
ATOM     27  O   UNL     1       2.904  -0.573   0.249  0.00  0.00    -0.489 OA
BRANCH  27  29
ATOM     28  C   UNL     1       2.895   1.383  -1.170  0.00  0.00    +0.048 C 
ATOM     29  C   UNL     1       2.611  -0.117  -1.073  0.00  0.00    +0.226 C 
ENDBRANCH  27  29
ENDBRANCH  19  27
ENDBRANCH  17  21
ENDBRANCH   1  18
BRANCH   3  30
ATOM     30  C   UNL     1       0.954  -8.693  -1.948  0.00  0.00    +0.190 C 
BRANCH  30  31
ATOM     31  C   UNL     1       2.169  -8.716  -2.840  0.00  0.00    +0.123 A 
ATOM     32  C   UNL     1       2.620  -9.781  -3.527  0.00  0.00    +0.046 A 
ATOM     33  C   UNL     1       3.775  -9.359  -4.225  0.00  0.00    +0.041 A 
ATOM     34  C   UNL     1       3.961  -8.061  -3.922  0.00  0.00    +0.195 A 
ATOM     35  O   UNL     1       2.982  -7.676  -3.087  0.00  0.00    -0.466 OA
ENDBRANCH  30  31
ENDBRANCH   3  30
TORSDOF 9
