REMARK  Name = ZINC09210443
REMARK  15 active torsions:
REMARK  status: ('A' for Active; 'I' for Inactive)
REMARK    1  A    between atoms: C_1  and  C_2
REMARK    2  A    between atoms: C_2  and  N_70
REMARK    3  A    between atoms: C_3  and  C_4
REMARK    4  A    between atoms: C_3  and  N_70
REMARK    5  A    between atoms: C_5  and  C_6
REMARK    6  A    between atoms: C_5  and  N_70
REMARK    7  A    between atoms: C_6  and  C_7
REMARK    8  A    between atoms: C_7  and  N_8
REMARK    9  A    between atoms: C_15  and  C_19
REMARK   10  A    between atoms: C_19  and  C_20
REMARK   11  A    between atoms: C_19  and  C_21
REMARK   12  A    between atoms: C_24  and  C_26
REMARK   13  A    between atoms: C_24  and  C_27
REMARK   14  A    between atoms: C_29  and  S_31
REMARK   15  A    between atoms: S_31  and  C_32
REMARK                            x       y       z     vdW  Elec       q    Type
REMARK                         _______ _______ _______ _____ _____    ______ ____
ROOT
ATOM      1  N   UNL     1      -0.981   3.805   1.365  0.00  0.00    -0.328 N 
ATOM      2  C   UNL     1      -0.886   2.474   1.739  0.00  0.00    +0.138 A 
ATOM      3  C   UNL     1       0.353   1.875   1.927  0.00  0.00    +0.080 A 
ATOM      4  C   UNL     1       0.456   0.532   2.305  0.00  0.00    +0.094 A 
ATOM      5  C   UNL     1       1.827   0.011   2.467  0.00  0.00    +0.037 A 
ATOM      6  C   UNL     1       2.216  -1.296   2.838  0.00  0.00    -0.026 A 
ATOM      7  C   UNL     1       3.552  -1.599   2.937  0.00  0.00    +0.004 A 
ATOM      8  C   UNL     1       4.503  -0.620   2.676  0.00  0.00    +0.051 A 
ATOM      9  N   UNL     1       4.135   0.598   2.333  0.00  0.00    -0.244 NA
ATOM     10  C   UNL     1       2.866   0.927   2.224  0.00  0.00    +0.111 A 
ATOM     11  S   UNL     1       2.030   2.433   1.792  0.00  0.00    -0.064 S 
ATOM     12  C   UNL     1       4.016  -2.981   3.319  0.00  0.00    +0.197 C 
ATOM     13  O   UNL     1       2.940  -3.718   3.900  0.00  0.00    -0.369 OA
ATOM     14  C   UNL     1       1.756  -3.720   3.095  0.00  0.00    +0.068 C 
ATOM     15  C   UNL     1       1.147  -2.316   3.123  0.00  0.00    +0.070 C 
ATOM     16  C   UNL     1       2.113  -4.097   1.656  0.00  0.00    +0.041 C 
ATOM     17  C   UNL     1       0.754  -4.731   3.657  0.00  0.00    +0.041 C 
ATOM     18  N   UNL     1      -0.711  -0.130   2.476  0.00  0.00    -0.221 NA
ATOM     19  C   UNL     1      -1.870   0.468   2.295  0.00  0.00    +0.190 A 
ATOM     20  N   UNL     1      -1.980   1.741   1.936  0.00  0.00    -0.206 NA
ATOM     21  H   UNL     1      -0.176   4.330   1.231  0.00  0.00    +0.147 HD
ENDROOT
BRANCH   8  22
ATOM     22  C   UNL     1       5.968  -0.955   2.786  0.00  0.00    +0.032 C 
ATOM     23  C   UNL     1       6.647  -0.726   1.435  0.00  0.00    +0.014 C 
ATOM     24  C   UNL     1       6.618  -0.057   3.842  0.00  0.00    +0.014 C 
ENDBRANCH   8  22
BRANCH  19  25
ATOM     25  S   UNL     1      -3.344  -0.466   2.540  0.00  0.00    -0.089 S 
ATOM     26  C   UNL     1      -4.583   0.800   2.169  0.00  0.00    +0.093 C 
ENDBRANCH  19  25
BRANCH   1  27
ATOM     27  C   UNL     1      -2.297   4.419   1.171  0.00  0.00    +0.101 C 
BRANCH  27  28
ATOM     28  C   UNL     1      -2.121   5.883   0.764  0.00  0.00    +0.000 C 
BRANCH  28  29
ATOM     29  C   UNL     1      -3.496   6.524   0.561  0.00  0.00    -0.077 C 
BRANCH  29  30
ATOM     30  N   UNL     1      -3.310   7.943   0.190  0.00  0.00    +0.379 N 
ATOM     31  H   UNL     1      -2.688   8.388   0.875  0.00  0.00    -0.082 HD
BRANCH  30  33
ATOM     32  C   UNL     1      -3.580   7.361  -2.198  0.00  0.00    -0.017 C 
ATOM     33  C   UNL     1      -2.693   8.038  -1.150  0.00  0.00    -0.082 C 
ENDBRANCH  30  33
BRANCH  30  34
ATOM     34  C   UNL     1      -4.612   8.642   0.197  0.00  0.00    -0.082 C 
ATOM     35  C   UNL     1      -4.360  10.151   0.175  0.00  0.00    -0.017 C 
ENDBRANCH  30  34
ENDBRANCH  29  30
ENDBRANCH  28  29
ENDBRANCH  27  28
ENDBRANCH   1  27
TORSDOF 8
