REMARK  Name = ZINC13283481
REMARK  6 active torsions:
REMARK  status: ('A' for Active; 'I' for Inactive)
REMARK    1  A    between atoms: C_3  and  N_25
REMARK    2  A    between atoms: C_5  and  O_7
REMARK    3  A    between atoms: O_7  and  C_8
REMARK    4  A    between atoms: C_8  and  C_9
REMARK    5  A    between atoms: C_10  and  C_17
REMARK    6  A    between atoms: C_11  and  N_16
REMARK                            x       y       z     vdW  Elec       q    Type
REMARK                         _______ _______ _______ _____ _____    ______ ____
ROOT
ATOM      1  C   UNL     1       0.993   7.359   0.028  0.00  0.00    +0.093 A 
ATOM      2  C   UNL     1       0.905   8.052   1.233  0.00  0.00    +0.046 A 
ATOM      3  C   UNL     1       0.707   9.445   1.187  0.00  0.00    +0.129 A 
ATOM      4  N   UNL     1       0.611  10.040   0.004  0.00  0.00    -0.199 NA
ATOM      5  C   UNL     1       0.701   9.340  -1.116  0.00  0.00    +0.215 A 
ATOM      6  N   UNL     1       0.892   8.028  -1.109  0.00  0.00    -0.215 NA
ATOM      7  N   UNL     1       0.597   9.996  -2.329  0.00  0.00    -0.327 N 
ATOM      8  H   UNL     1       0.460  10.957  -2.351  0.00  0.00    +0.145 HD
ATOM      9  H   UNL     1       0.660   9.497  -3.159  0.00  0.00    +0.145 HD
ENDROOT
BRANCH   2  10
ATOM     10  C   UNL     1       1.018   7.342   2.529  0.00  0.00    -0.011 A 
ATOM     11  C   UNL     1       0.047   6.415   2.906  0.00  0.00    +0.010 A 
ATOM     12  C   UNL     1       0.159   5.753   4.111  0.00  0.00    +0.022 A 
ATOM     13  C   UNL     1       1.228   6.014   4.951  0.00  0.00    +0.059 A 
ATOM     14  C   UNL     1       2.193   6.938   4.584  0.00  0.00    +0.060 A 
ATOM     15  C   UNL     1       2.093   7.603   3.378  0.00  0.00    +0.030 A 
ATOM     16 CL   UNL     1       3.531   7.261   5.643  0.00  0.00    -0.082 Cl
ATOM     17 CL   UNL     1       1.359   5.183   6.470  0.00  0.00    -0.082 Cl
ENDBRANCH   2  10
BRANCH   3  18
ATOM     18  N   UNL     1       0.613  10.181   2.355  0.00  0.00    -0.343 N 
ATOM     19  H   UNL     1       0.684   9.737   3.215  0.00  0.00    +0.144 HD
ATOM     20  H   UNL     1       0.476  11.140   2.314  0.00  0.00    +0.144 HD
ENDBRANCH   3  18
BRANCH   1  21
ATOM     21  C   UNL     1       1.204   5.867   0.019  0.00  0.00    +0.285 C 
BRANCH  21  22
ATOM     22  O   UNL     1      -0.062   5.206   0.028  0.00  0.00    -0.486 OA
BRANCH  22  27
ATOM     23  C   UNL     1       1.175   1.782   0.000  0.00  0.00    +0.005 A 
ATOM     24  C   UNL     1      -0.013   1.076   0.008  0.00  0.00    +0.023 A 
ATOM     25  C   UNL     1      -1.225   1.754   0.017  0.00  0.00    +0.028 A 
ATOM     26  C   UNL     1      -1.242   3.142   0.030  0.00  0.00    +0.068 A 
ATOM     27  C   UNL     1      -0.049   3.847   0.022  0.00  0.00    +0.123 A 
ATOM     28  C   UNL     1       1.159   3.164   0.007  0.00  0.00    +0.046 A 
BRANCH  25  29
ATOM     29  N   UNL     1      -2.426   1.040   0.019  0.00  0.00    -0.358 N 
ATOM     30  H   UNL     1      -2.413   0.070   0.013  0.00  0.00    +0.142 HD
ATOM     31  H   UNL     1      -3.272   1.514   0.025  0.00  0.00    +0.142 HD
ENDBRANCH  25  29
ENDBRANCH  22  27
ENDBRANCH  21  22
ENDBRANCH   1  21
TORSDOF 6
