REMARK  Name = ZINC37037601
REMARK  4 active torsions:
REMARK  status: ('A' for Active; 'I' for Inactive)
REMARK    1  A    between atoms: C_2  and  C_11
REMARK    2  A    between atoms: C_11  and  S_12
REMARK    3  A    between atoms: S_12  and  C_13
REMARK    4  A    between atoms: C_19  and  N_21
REMARK                            x       y       z     vdW  Elec       q    Type
REMARK                         _______ _______ _______ _____ _____    ______ ____
ROOT
ATOM      1  S   UNL     1       2.896   4.177  -0.003  0.00  0.00    -0.082 S 
ENDROOT
BRANCH   1   2
ATOM      2  C   UNL     1       2.723   5.930   0.008  0.00  0.00    +0.171 A 
ATOM      3  N   UNL     1       3.839   6.711  -0.004  0.00  0.00    -0.302 N 
ATOM      4  H   UNL     1       4.718   6.299  -0.019  0.00  0.00    +0.171 HD
ATOM      5  C   UNL     1       3.726   8.055   0.004  0.00  0.00    +0.254 A 
ATOM      6  O   UNL     1       4.721   8.763  -0.007  0.00  0.00    -0.268 OA
ATOM      7  C   UNL     1       2.449   8.625   0.025  0.00  0.00    +0.113 A 
ATOM      8  C   UNL     1       1.344   7.786   0.037  0.00  0.00    +0.124 A 
ATOM      9  N   UNL     1       1.517   6.460   0.022  0.00  0.00    -0.209 NA
BRANCH   8  10
ATOM     10  N   UNL     1       0.070   8.318   0.057  0.00  0.00    -0.343 N 
ATOM     11  H   UNL     1      -0.054   9.280   0.064  0.00  0.00    +0.144 HD
ATOM     12  H   UNL     1      -0.701   7.730   0.065  0.00  0.00    +0.144 HD
ENDBRANCH   8  10
ENDBRANCH   1   2
BRANCH   1  13
ATOM     13  C   UNL     1       1.187   3.567   0.010  0.00  0.00    +0.133 C 
BRANCH  13  15
ATOM     14  C   UNL     1      -0.017   1.364   0.009  0.00  0.00    +0.096 A 
ATOM     15  C   UNL     1       1.191   2.060   0.002  0.00  0.00    +0.061 A 
ATOM     16  N   UNL     1       2.335   1.409  -0.013  0.00  0.00    -0.215 NA
ATOM     17  C   UNL     1       2.367   0.072  -0.021  0.00  0.00    +0.256 A 
ATOM     18  N   UNL     1       3.368  -0.802  -0.035  0.00  0.00    -0.197 NA
ATOM     19  C   UNL     1       2.884  -2.037  -0.037  0.00  0.00    +0.247 A 
ATOM     20  N   UNL     1       1.574  -1.997  -0.024  0.00  0.00    -0.149 NA
ATOM     21  N   UNL     1       1.204  -0.646  -0.013  0.00  0.00    -0.160 N 
ATOM     22  C   UNL     1       0.002  -0.004   0.002  0.00  0.00    +0.276 A 
ATOM     23  O   UNL     1      -1.153  -0.707   0.009  0.00  0.00    -0.266 OA
ENDBRANCH  13  15
ENDBRANCH   1  13
TORSDOF 4
