REMARK  Name = ZINC43285115
REMARK  7 active torsions:
REMARK  status: ('A' for Active; 'I' for Inactive)
REMARK    1  A    between atoms: C_1  and  C_2
REMARK    2  A    between atoms: C_2  and  C_3
REMARK    3  A    between atoms: C_3  and  C_5
REMARK    4  A    between atoms: C_3  and  N_22
REMARK    5  A    between atoms: C_5  and  C_7
REMARK    6  A    between atoms: C_5  and  N_13
REMARK    7  A    between atoms: C_17  and  C_19
REMARK                            x       y       z     vdW  Elec       q    Type
REMARK                         _______ _______ _______ _____ _____    ______ ____
ROOT
ATOM      1  C   UNL     1      -2.536  -1.370  -0.659  0.00  0.00    -0.013 C 
ENDROOT
BRANCH   1   2
ATOM      2  C   UNL     1      -2.751  -1.844   0.755  0.00  0.00    -0.021 A 
ATOM      3  C   UNL     1      -3.889  -2.285   1.344  0.00  0.00    +0.025 A 
ATOM      4  C   UNL     1      -3.851  -2.675   2.670  0.00  0.00    +0.025 A 
ATOM      5  C   UNL     1      -2.675  -2.603   3.342  0.00  0.00    +0.060 A 
ATOM      6  S   UNL     1      -1.570  -1.978   2.088  0.00  0.00    -0.102 S 
ATOM      7 BR   UNL     1      -5.414  -3.296   3.534  0.00  0.00    -0.050 Br
ENDBRANCH   1   2
BRANCH   1   8
ATOM      8  N   UNL     1      -1.252  -1.880  -1.157  0.00  0.00    +0.393 N 
ATOM      9  C   UNL     1      -1.227  -3.364  -1.083  0.00  0.00    -0.077 C 
ATOM     10  C   UNL     1      -0.136  -3.752  -2.113  0.00  0.00    -0.020 C 
ATOM     11  C   UNL     1      -0.351  -2.724  -3.248  0.00  0.00    -0.008 C 
ATOM     12  C   UNL     1      -1.090  -1.545  -2.588  0.00  0.00    +0.020 C 
ATOM     13  H   UNL     1      -0.491  -1.492  -0.620  0.00  0.00    -0.080 HD
BRANCH  12  14
ATOM     14  C   UNL     1      -0.276  -0.284  -2.731  0.00  0.00    +0.197 C 
ATOM     15  O   UNL     1       0.562  -0.006  -1.900  0.00  0.00    -0.278 OA
ATOM     16  N   UNL     1      -0.480   0.533  -3.783  0.00  0.00    -0.331 N 
ATOM     17  H   UNL     1      -1.151   0.311  -4.448  0.00  0.00    +0.145 HD
ATOM     18  H   UNL     1       0.043   1.345  -3.875  0.00  0.00    +0.145 HD
ENDBRANCH  12  14
ENDBRANCH   1   8
BRANCH   1  19
ATOM     19  C   UNL     1      -2.522   0.160  -0.687  0.00  0.00    +0.042 C 
BRANCH  19  20
ATOM     20  N   UNL     1      -3.819   0.670  -0.221  0.00  0.00    -0.328 NA
ATOM     21  H   UNL     1      -4.561   0.395  -0.847  0.00  0.00    +0.118 HD
ATOM     22  H   UNL     1      -4.009   0.365   0.722  0.00  0.00    +0.118 HD
ENDBRANCH  19  20
BRANCH  19  24
ATOM     23  C   UNL     1      -1.307   2.197   0.096  0.00  0.00    +0.005 C 
ATOM     24  C   UNL     1      -1.411   0.677   0.229  0.00  0.00    +0.014 C 
ENDBRANCH  19  24
ENDBRANCH   1  19
TORSDOF 6
