REMARK  Name = ZINC13545169
REMARK  6 active torsions:
REMARK  status: ('A' for Active; 'I' for Inactive)
REMARK    1  A    between atoms: C_3  and  S_19
REMARK    2  A    between atoms: C_6  and  N_7
REMARK    3  A    between atoms: N_7  and  C_8
REMARK    4  A    between atoms: C_8  and  N_10
REMARK    5  A    between atoms: N_10  and  C_11
REMARK    6  A    between atoms: S_19  and  N_22
REMARK                            x       y       z     vdW  Elec       q    Type
REMARK                         _______ _______ _______ _____ _____    ______ ____
ROOT
ATOM      1  N   UNL     1      -1.284  -0.725   0.300  0.00  0.00    -0.297 N 
ATOM      2  H   UNL     1      -2.128  -0.257   0.198  0.00  0.00    +0.154 HD
ENDROOT
BRANCH   1   8
ATOM      3  C   UNL     1       1.075  -0.351  -0.059  0.00  0.00    +0.025 A 
ATOM      4  C   UNL     1       2.228   0.360   0.211  0.00  0.00    +0.030 A 
ATOM      5  C   UNL     1       2.199   1.414   1.106  0.00  0.00    +0.105 A 
ATOM      6  C   UNL     1       1.016   1.758   1.735  0.00  0.00    +0.030 A 
ATOM      7  C   UNL     1      -0.140   1.051   1.470  0.00  0.00    +0.025 A 
ATOM      8  C   UNL     1      -0.115  -0.007   0.571  0.00  0.00    +0.033 A 
BRANCH   5   9
ATOM      9  S   UNL     1       3.672   2.318   1.447  0.00  0.00    +0.056 S 
ATOM     10  O   UNL     1       3.500   2.906   2.729  0.00  0.00    -0.153 OA
ATOM     11  O   UNL     1       4.758   1.453   1.145  0.00  0.00    -0.153 OA
BRANCH   9  12
ATOM     12  N   UNL     1       3.744   3.565   0.360  0.00  0.00    -0.204 NA
ATOM     13  H   UNL     1       4.179   4.397   0.604  0.00  0.00    +0.144 HD
ATOM     14  H   UNL     1       3.350   3.464  -0.521  0.00  0.00    +0.144 HD
ENDBRANCH   9  12
ENDBRANCH   5   9
ENDBRANCH   1   8
BRANCH   1  15
ATOM     15  C   UNL     1      -1.239  -2.067   0.182  0.00  0.00    +0.139 C 
ATOM     16  S   UNL     1       0.217  -2.906   0.506  0.00  0.00    -0.018 S 
BRANCH  15  17
ATOM     17  N   UNL     1      -2.340  -2.748  -0.193  0.00  0.00    -0.297 N 
ATOM     18  H   UNL     1      -3.141  -2.268  -0.457  0.00  0.00    +0.154 HD
BRANCH  17  19
ATOM     19  C   UNL     1      -2.329  -4.147  -0.201  0.00  0.00    +0.034 A 
ATOM     20  C   UNL     1      -1.716  -4.843   0.834  0.00  0.00    +0.024 A 
ATOM     21  C   UNL     1      -1.706  -6.224   0.824  0.00  0.00    +0.018 A 
ATOM     22  C   UNL     1      -2.305  -6.915  -0.215  0.00  0.00    +0.036 A 
ATOM     23  C   UNL     1      -2.916  -6.223  -1.247  0.00  0.00    +0.057 A 
ATOM     24  C   UNL     1      -2.934  -4.841  -1.239  0.00  0.00    +0.044 A 
ATOM     25 CL   UNL     1      -3.666  -7.093  -2.549  0.00  0.00    -0.082 Cl
ATOM     26 BR   UNL     1      -2.289  -8.805  -0.224  0.00  0.00    -0.049 Br
ENDBRANCH  17  19
ENDBRANCH  15  17
ENDBRANCH   1  15
TORSDOF 6
