REMARK  Name = ZINC00638008
REMARK  7 active torsions:
REMARK  status: ('A' for Active; 'I' for Inactive)
REMARK    1  A    between atoms: C_1  and  N_2
REMARK    2  A    between atoms: N_2  and  C_3
REMARK    3  A    between atoms: N_2  and  C_4
REMARK    4  A    between atoms: C_7  and  C_10
REMARK    5  A    between atoms: C_21  and  C_23
REMARK    6  A    between atoms: C_28  and  O_29
REMARK    7  A    between atoms: O_29  and  C_30
REMARK                            x       y       z     vdW  Elec       q    Type
REMARK                         _______ _______ _______ _____ _____    ______ ____
ROOT
ATOM      1  C   UNL     1       0.002  -2.870  -4.900  0.00  0.00    +0.159 C 
ATOM      2  C   UNL     1      -1.437  -3.034  -5.338  0.00  0.00    +0.027 C 
ATOM      3  C   UNL     1      -1.800  -2.516  -6.529  0.00  0.00    +0.083 C 
ATOM      4  C   UNL     1      -3.213  -2.694  -6.950  0.00  0.00    +0.042 A 
ATOM      5  C   UNL     1      -3.763  -1.943  -7.979  0.00  0.00    +0.013 A 
ATOM      6  C   UNL     1      -5.082  -2.140  -8.338  0.00  0.00    +0.001 A 
ATOM      7  C   UNL     1      -5.852  -3.080  -7.676  0.00  0.00    +0.004 A 
ATOM      8  C   UNL     1      -5.312  -3.833  -6.649  0.00  0.00    +0.046 A 
ATOM      9  C   UNL     1      -3.991  -3.647  -6.280  0.00  0.00    +0.131 A 
ATOM     10  O   UNL     1      -3.433  -4.377  -5.281  0.00  0.00    -0.479 OA
ATOM     11  C   UNL     1      -2.438  -3.744  -4.474  0.00  0.00    +0.238 C 
ATOM     12  N   UNL     1      -0.914  -1.859  -7.316  0.00  0.00    -0.213 NA
ATOM     13  C   UNL     1       0.349  -1.671  -7.013  0.00  0.00    +0.237 C 
ATOM     14  N   UNL     1       0.874  -2.143  -5.830  0.00  0.00    -0.208 N 
ATOM     15  N   UNL     1       2.222  -1.778  -5.821  0.00  0.00    -0.251 N 
ATOM     16  C   UNL     1       2.448  -1.105  -6.982  0.00  0.00    +0.203 C 
ATOM     17  N   UNL     1       1.352  -1.050  -7.671  0.00  0.00    -0.205 NA
ATOM     18  H   UNL     1       2.870  -1.967  -5.124  0.00  0.00    +0.171 HD
ENDROOT
BRANCH   1  22
ATOM     19  C   UNL     1       0.030  -0.804  -1.158  0.00  0.00    +0.029 A 
ATOM     20  C   UNL     1       0.163  -2.187  -1.191  0.00  0.00    +0.023 A 
ATOM     21  C   UNL     1       0.153  -2.851  -2.402  0.00  0.00    +0.007 A 
ATOM     22  C   UNL     1       0.012  -2.142  -3.580  0.00  0.00    -0.021 A 
ATOM     23  C   UNL     1      -0.120  -0.765  -3.551  0.00  0.00    +0.007 A 
ATOM     24  C   UNL     1      -0.117  -0.095  -2.344  0.00  0.00    +0.023 A 
BRANCH  19  26
ATOM     25  C   UNL     1      -0.106   1.328   0.098  0.00  0.00    +0.129 C 
ATOM     26  N   UNL     1       0.040  -0.129   0.065  0.00  0.00    -0.336 N 
ATOM     27  C   UNL     1       0.195  -0.878   1.314  0.00  0.00    +0.129 C 
ENDBRANCH  19  26
ENDBRANCH   1  22
BRANCH  11  28
ATOM     28  C   UNL     1      -3.100  -2.747  -3.558  0.00  0.00    +0.039 A 
ATOM     29  C   UNL     1      -3.282  -1.442  -3.972  0.00  0.00    +0.011 A 
ATOM     30  C   UNL     1      -3.889  -0.527  -3.132  0.00  0.00    +0.001 A 
ATOM     31  C   UNL     1      -4.316  -0.916  -1.875  0.00  0.00    +0.004 A 
ATOM     32  C   UNL     1      -4.138  -2.220  -1.457  0.00  0.00    +0.046 A 
ATOM     33  C   UNL     1      -3.533  -3.141  -2.300  0.00  0.00    +0.127 A 
BRANCH  33  34
ATOM     34  O   UNL     1      -3.361  -4.426  -1.893  0.00  0.00    -0.495 OA
ATOM     35  C   UNL     1      -3.937  -4.792  -0.637  0.00  0.00    +0.277 C 
ENDBRANCH  33  34
ENDBRANCH  11  28
TORSDOF 4
