REMARK  Name = ZINC22616324
REMARK  7 active torsions:
REMARK  status: ('A' for Active; 'I' for Inactive)
REMARK    1  A    between atoms: C_4  and  C_7
REMARK    2  A    between atoms: C_7  and  C_8
REMARK    3  A    between atoms: C_8  and  C_10
REMARK    4  A    between atoms: C_8  and  N_22
REMARK    5  A    between atoms: N_12  and  C_13
REMARK    6  A    between atoms: C_13  and  C_14
REMARK    7  A    between atoms: C_14  and  C_15
REMARK                            x       y       z     vdW  Elec       q    Type
REMARK                         _______ _______ _______ _____ _____    ______ ____
ROOT
ATOM      1  C   UNL     1      -2.945   0.711   1.462  0.00  0.00    +0.165 C 
ENDROOT
BRANCH   1   2
ATOM      2  N   UNL     1      -1.968  -0.170   2.108  0.00  0.00    -0.288 N 
ATOM      3  C   UNL     1      -1.732  -1.398   1.605  0.00  0.00    +0.298 C 
ATOM      4  O   UNL     1      -2.329  -1.774   0.615  0.00  0.00    -0.253 OA
ATOM      5  N   UNL     1      -0.834  -2.208   2.199  0.00  0.00    -0.313 N 
ATOM      6  H   UNL     1      -1.428   0.171   3.003  0.00  0.00    +0.151 HD
ATOM      7  H   UNL     1      -0.641  -3.210   1.788  0.00  0.00    +0.146 HD
ATOM      8  H   UNL     1      -0.293  -1.867   3.094  0.00  0.00    +0.146 HD
ENDBRANCH   1   2
BRANCH   1   9
ATOM      9  C   UNL     1      -4.299   0.049   1.467  0.00  0.00    +0.234 C 
ATOM     10  O   UNL     1      -4.386  -1.152   1.614  0.00  0.00    -0.274 OA
ATOM     11  N   UNL     1      -5.412   0.791   1.308  0.00  0.00    -0.313 N 
ATOM     12  H   UNL     1      -5.333   1.880   1.175  0.00  0.00    +0.149 HD
BRANCH  11  13
ATOM     13  C   UNL     1      -6.729   0.147   1.312  0.00  0.00    +0.109 C 
BRANCH  13  14
ATOM     14  C   UNL     1      -7.815   1.206   1.115  0.00  0.00    +0.054 C 
BRANCH  14  15
ATOM     15  C   UNL     1      -9.169   0.544   1.120  0.00  0.00    -0.046 A 
ATOM     16  C   UNL     1      -9.722   0.095  -0.065  0.00  0.00    +0.005 A 
ATOM     17  C   UNL     1     -10.961  -0.517  -0.061  0.00  0.00    +0.020 A 
ATOM     18  C   UNL     1     -11.652  -0.671   1.128  0.00  0.00    +0.041 A 
ATOM     19  C   UNL     1     -11.100  -0.217   2.312  0.00  0.00    +0.020 A 
ATOM     20  C   UNL     1      -9.859   0.390   2.308  0.00  0.00    +0.005 A 
ATOM     21 CL   UNL     1     -13.212  -1.435   1.133  0.00  0.00    -0.084 Cl
ENDBRANCH  14  15
ENDBRANCH  13  14
ENDBRANCH  11  13
ENDBRANCH   1   9
BRANCH   1  22
ATOM     22  C   UNL     1      -2.514   0.980   0.019  0.00  0.00    +0.067 C 
BRANCH  22  26
ATOM     23  C   UNL     1       1.156   3.165   0.008  0.00  0.00    +0.000 A 
ATOM     24  C   UNL     1       1.175   1.783   0.000  0.00  0.00    +0.000 A 
ATOM     25  C   UNL     1      -0.013   1.076   0.008  0.00  0.00    +0.004 A 
ATOM     26  C   UNL     1      -1.219   1.751   0.017  0.00  0.00    -0.045 A 
ATOM     27  C   UNL     1      -1.238   3.133   0.030  0.00  0.00    +0.004 A 
ATOM     28  C   UNL     1      -0.050   3.840   0.022  0.00  0.00    +0.000 A 
ENDBRANCH  22  26
ENDBRANCH   1  22
TORSDOF 7
