REMARK  Name = ZINC13500595
REMARK  11 active torsions:
REMARK  status: ('A' for Active; 'I' for Inactive)
REMARK    1  A    between atoms: C_1  and  C_2
REMARK    2  A    between atoms: C_4  and  C_36
REMARK    3  A    between atoms: C_9  and  C_14
REMARK    4  A    between atoms: C_14  and  N_75
REMARK    5  A    between atoms: C_15  and  N_75
REMARK    6  A    between atoms: C_21  and  C_23
REMARK    7  A    between atoms: C_21  and  C_33
REMARK    8  A    between atoms: C_21  and  N_75
REMARK    9  A    between atoms: N_27  and  C_28
REMARK   10  A    between atoms: C_33  and  C_34
REMARK   11  A    between atoms: C_33  and  C_35
REMARK                            x       y       z     vdW  Elec       q    Type
REMARK                         _______ _______ _______ _____ _____    ______ ____
ROOT
ATOM      1  N   UNL     1      -1.523   7.748  -1.195  0.00  0.00    +0.391 N 
ATOM      2  H   UNL     1      -0.868   7.297  -1.844  0.00  0.00    -0.080 HD
ENDROOT
BRANCH   1   3
ATOM      3  C   UNL     1      -2.904   7.507  -1.664  0.00  0.00    -0.067 C 
ATOM      4  C   UNL     1      -3.882   8.448  -0.957  0.00  0.00    -0.015 C 
ATOM      5  C   UNL     1      -5.301   8.184  -1.463  0.00  0.00    -0.002 C 
ATOM      6  C   UNL     1      -5.686   6.733  -1.168  0.00  0.00    -0.000 C 
ATOM      7  C   UNL     1      -4.709   5.792  -1.876  0.00  0.00    -0.002 C 
ATOM      8  C   UNL     1      -3.289   6.056  -1.369  0.00  0.00    -0.015 C 
ENDBRANCH   1   3
BRANCH   1   9
ATOM      9  C   UNL     1      -1.339   7.171   0.153  0.00  0.00    -0.036 C 
BRANCH   9  18
ATOM     10  C   UNL     1      -7.659   7.537   4.096  0.00  0.00    +0.044 C 
ATOM     11  C   UNL     1      -6.320   8.107   3.703  0.00  0.00    -0.050 A 
ATOM     12  C   UNL     1      -5.888   9.300   4.266  0.00  0.00    +0.008 A 
ATOM     13  C   UNL     1      -4.670   9.842   3.917  0.00  0.00    -0.026 A 
ATOM     14  C   UNL     1      -3.858   9.182   3.000  0.00  0.00    +0.052 A 
ATOM     15  C   UNL     1      -4.300   7.973   2.432  0.00  0.00    -0.001 A 
ATOM     16  C   UNL     1      -5.543   7.444   2.796  0.00  0.00    +0.013 A 
ATOM     17  C   UNL     1      -3.441   7.289   1.462  0.00  0.00    +0.017 A 
ATOM     18  C   UNL     1      -2.247   7.849   1.147  0.00  0.00    +0.001 A 
ATOM     19  C   UNL     1      -1.851   9.064   1.746  0.00  0.00    +0.251 A 
ATOM     20  O   UNL     1      -0.774   9.550   1.448  0.00  0.00    -0.268 OA
ATOM     21  N   UNL     1      -2.633   9.699   2.636  0.00  0.00    -0.322 N 
ATOM     22  H   UNL     1      -2.330  10.533   3.029  0.00  0.00    +0.169 HD
ATOM     23  C   UNL     1      -4.216  11.141   4.531  0.00  0.00    +0.046 C 
ENDBRANCH   9  18
ENDBRANCH   1   9
BRANCH   1  24
ATOM     24  C   UNL     1      -1.246   9.200  -1.165  0.00  0.00    +0.006 C 
BRANCH  24  25
ATOM     25  C   UNL     1      -2.019   9.880  -2.265  0.00  0.00    +0.139 A 
ATOM     26  N   UNL     1      -2.186   9.444  -3.490  0.00  0.00    -0.115 NA
ATOM     27  N   UNL     1      -2.905  10.304  -4.124  0.00  0.00    -0.023 NA
ATOM     28  N   UNL     1      -3.196  11.282  -3.338  0.00  0.00    -0.044 NA
ATOM     29  N   UNL     1      -2.667  11.057  -2.183  0.00  0.00    -0.228 N 
BRANCH  29  30
ATOM     30  C   UNL     1      -2.756  11.921  -1.003  0.00  0.00    +0.111 C 
ATOM     31  C   UNL     1      -4.234  12.148  -0.624  0.00  0.00    +0.027 C 
ATOM     32  C   UNL     1      -4.282  13.622  -0.148  0.00  0.00    +0.002 C 
ATOM     33  C   UNL     1      -3.303  14.327  -1.120  0.00  0.00    +0.002 C 
ATOM     34  C   UNL     1      -2.164  13.306  -1.317  0.00  0.00    +0.027 C 
ENDBRANCH  29  30
ENDBRANCH  24  25
BRANCH  24  35
ATOM     35  C   UNL     1       0.253   9.415  -1.386  0.00  0.00    -0.024 C 
ATOM     36  C   UNL     1       0.591  10.893  -1.182  0.00  0.00    +0.006 C 
ATOM     37  C   UNL     1       1.042   8.568  -0.386  0.00  0.00    +0.006 C 
ENDBRANCH  24  35
ENDBRANCH   1  24
TORSDOF 7
