REMARK  Name = ZINC41250898
REMARK  12 active torsions:
REMARK  status: ('A' for Active; 'I' for Inactive)
REMARK    1  A    between atoms: C_1  and  C_2
REMARK    2  A    between atoms: C_2  and  N_3
REMARK    3  A    between atoms: N_3  and  C_4
REMARK    4  A    between atoms: N_3  and  C_32
REMARK    5  A    between atoms: C_4  and  C_5
REMARK    6  A    between atoms: C_5  and  C_6
REMARK    7  A    between atoms: C_6  and  N_7
REMARK    8  A    between atoms: C_8  and  C_10
REMARK    9  A    between atoms: N_13  and  C_16
REMARK   10  A    between atoms: C_16  and  C_17
REMARK   11  A    between atoms: C_19  and  C_22
REMARK   12  A    between atoms: C_26  and  C_28
REMARK                            x       y       z     vdW  Elec       q    Type
REMARK                         _______ _______ _______ _____ _____    ______ ____
ROOT
ATOM      1  C   UNL     1      -2.926  -5.763   4.796  0.00  0.00    +0.071 C 
ATOM      2  C   UNL     1      -1.720  -6.704   4.723  0.00  0.00    -0.006 C 
ATOM      3  C   UNL     1      -2.205  -8.153   4.813  0.00  0.00    -0.077 C 
ATOM      4  N   UNL     1      -2.912  -8.358   6.083  0.00  0.00    +0.386 N 
ATOM      5  C   UNL     1      -4.109  -7.511   6.129  0.00  0.00    -0.077 C 
ATOM      6  C   UNL     1      -3.698  -6.038   6.090  0.00  0.00    -0.006 C 
ATOM      7  H   UNL     1      -2.301  -8.118   6.849  0.00  0.00    -0.081 HD
ENDROOT
BRANCH   1   9
ATOM      8  N   UNL     1      -1.744  -3.865   3.739  0.00  0.00    -0.315 N 
ATOM      9  C   UNL     1      -2.450  -4.333   4.787  0.00  0.00    +0.216 C 
ATOM     10  O   UNL     1      -2.703  -3.604   5.722  0.00  0.00    -0.276 OA
ATOM     11  H   UNL     1      -1.542  -4.448   2.990  0.00  0.00    +0.149 HD
BRANCH   8  12
ATOM     12  C   UNL     1      -1.282  -2.475   3.730  0.00  0.00    +0.105 C 
BRANCH  12  13
ATOM     13  C   UNL     1      -0.511  -2.202   2.437  0.00  0.00    +0.037 C 
BRANCH  13  14
ATOM     14  C   UNL     1      -0.028  -0.750   2.427  0.00  0.00    +0.106 C 
BRANCH  14  15
ATOM     15  N   UNL     1       0.711  -0.489   1.189  0.00  0.00    -0.330 N 
BRANCH  15  16
ATOM     16  C   UNL     1       2.090  -0.703   1.140  0.00  0.00    +0.030 A 
ATOM     17  C   UNL     1       2.763  -1.169   2.263  0.00  0.00    +0.023 A 
ATOM     18  C   UNL     1       4.126  -1.380   2.211  0.00  0.00    +0.002 A 
ATOM     19  C   UNL     1       4.823  -1.127   1.043  0.00  0.00    +0.000 A 
ATOM     20  C   UNL     1       4.156  -0.664  -0.077  0.00  0.00    +0.002 A 
ATOM     21  C   UNL     1       2.792  -0.456  -0.033  0.00  0.00    +0.023 A 
ENDBRANCH  15  16
BRANCH  15  23
ATOM     22  C   UNL     1      -0.019   1.526   0.010  0.00  0.00    +0.024 C 
ATOM     23  C   UNL     1       0.002  -0.004   0.002  0.00  0.00    +0.102 C 
ENDBRANCH  15  23
ENDBRANCH  14  15
ENDBRANCH  13  14
ENDBRANCH  12  13
ENDBRANCH   8  12
ENDBRANCH   1   9
BRANCH   4  24
ATOM     24  C   UNL     1      -3.307  -9.768   6.199  0.00  0.00    +0.022 C 
BRANCH  24  25
ATOM     25  C   UNL     1      -3.923 -10.008   7.554  0.00  0.00    +0.211 A 
ATOM     26  N   UNL     1      -5.188  -9.899   7.844  0.00  0.00    -0.193 NA
ATOM     27  C   UNL     1      -5.388 -10.184   9.144  0.00  0.00    +0.202 A 
ATOM     28  N   UNL     1      -4.234 -10.479   9.690  0.00  0.00    -0.056 NA
ATOM     29  O   UNL     1      -3.263 -10.373   8.660  0.00  0.00    -0.340 OA
BRANCH  27  30
ATOM     30  C   UNL     1      -6.697 -10.166   9.842  0.00  0.00    +0.023 A 
ATOM     31  C   UNL     1      -7.858  -9.838   9.143  0.00  0.00    +0.012 A 
ATOM     32  C   UNL     1      -9.073  -9.824   9.798  0.00  0.00    +0.001 A 
ATOM     33  C   UNL     1      -9.140 -10.133  11.144  0.00  0.00    +0.012 A 
ATOM     34  C   UNL     1      -7.992 -10.459  11.842  0.00  0.00    +0.055 A 
ATOM     35  C   UNL     1      -6.772 -10.482  11.197  0.00  0.00    +0.024 A 
BRANCH  34  36
ATOM     36  C   UNL     1      -8.072 -10.794  13.309  0.00  0.00    +0.417 C 
ATOM     37  F   UNL     1      -9.402 -10.708  13.735  0.00  0.00    -0.166 F 
ATOM     38  F   UNL     1      -7.599 -12.094  13.517  0.00  0.00    -0.166 F 
ATOM     39  F   UNL     1      -7.291  -9.891  14.038  0.00  0.00    -0.166 F 
ENDBRANCH  34  36
ENDBRANCH  27  30
ENDBRANCH  24  25
ENDBRANCH   4  24
TORSDOF 11
