REMARK  Name = ZINC20438673
REMARK  9 active torsions:
REMARK  status: ('A' for Active; 'I' for Inactive)
REMARK    1  A    between atoms: C_1  and  C_2
REMARK    2  A    between atoms: C_2  and  C_3
REMARK    3  A    between atoms: C_9  and  C_10
REMARK    4  A    between atoms: C_12  and  C_25
REMARK    5  A    between atoms: N_13  and  C_16
REMARK    6  A    between atoms: C_14  and  C_15
REMARK    7  A    between atoms: C_19  and  C_22
REMARK    8  A    between atoms: C_22  and  C_23
REMARK    9  A    between atoms: C_22  and  C_24
REMARK                            x       y       z     vdW  Elec       q    Type
REMARK                         _______ _______ _______ _____ _____    ______ ____
ROOT
ATOM      1  C   UNL     1       4.996  -0.004  -1.356  0.00  0.00    +0.100 C 
ATOM      2  N   UNL     1       4.869   0.538  -2.533  0.00  0.00    -0.169 NA
ATOM      3  N   UNL     1       4.422  -0.193  -3.613  0.00  0.00    -0.154 N 
ATOM      4  C   UNL     1       4.333   0.270  -4.943  0.00  0.00    +0.132 C 
ATOM      5  N   UNL     1       5.034   1.274  -5.402  0.00  0.00    -0.385 N 
ATOM      6  C   UNL     1       3.364  -0.498  -5.773  0.00  0.00    +0.079 C 
ATOM      7  C   UNL     1       2.635   0.101  -6.779  0.00  0.00    +0.026 C 
ATOM      8  C   UNL     1       3.224  -1.940  -5.459  0.00  0.00    +0.273 C 
ATOM      9  O   UNL     1       2.844  -2.732  -6.306  0.00  0.00    -0.268 OA
ATOM     10  N   UNL     1       3.530  -2.351  -4.213  0.00  0.00    -0.152 NA
ATOM     11  C   UNL     1       4.056  -1.499  -3.369  0.00  0.00    +0.181 C 
ATOM     12  S   UNL     1       4.470  -1.687  -1.655  0.00  0.00    -0.038 S 
ATOM     13  H   UNL     1       5.589   1.794  -4.800  0.00  0.00    +0.157 HD
ATOM     14  H   UNL     1       5.000   1.498  -6.345  0.00  0.00    +0.157 HD
ENDROOT
BRANCH   7  15
ATOM     15  C   UNL     1       2.667   1.511  -6.936  0.00  0.00    -0.003 A 
ATOM     16  C   UNL     1       2.807   2.517  -5.874  0.00  0.00    +0.031 A 
ATOM     17  C   UNL     1       2.787   3.715  -6.481  0.00  0.00    +0.022 A 
ATOM     18  N   UNL     1       2.646   3.535  -7.829  0.00  0.00    -0.317 N 
ATOM     19  C   UNL     1       2.578   2.221  -8.122  0.00  0.00    +0.028 A 
ATOM     20  C   UNL     1       2.427   1.628  -9.499  0.00  0.00    +0.064 C 
ATOM     21  C   UNL     1       2.901   5.048  -5.785  0.00  0.00    +0.064 C 
BRANCH  18  22
ATOM     22  C   UNL     1       2.586   4.569  -8.772  0.00  0.00    +0.047 A 
ATOM     23  C   UNL     1       1.423   4.781  -9.500  0.00  0.00    +0.026 A 
ATOM     24  C   UNL     1       1.367   5.801 -10.429  0.00  0.00    +0.006 A 
ATOM     25  C   UNL     1       2.468   6.612 -10.635  0.00  0.00    -0.045 A 
ATOM     26  C   UNL     1       3.629   6.403  -9.912  0.00  0.00    +0.006 A 
ATOM     27  C   UNL     1       3.689   5.388  -8.977  0.00  0.00    +0.026 A 
BRANCH  25  28
ATOM     28  C   UNL     1       2.404   7.724 -11.650  0.00  0.00    +0.013 C 
ATOM     29  C   UNL     1       2.653   9.064 -10.954  0.00  0.00    +0.012 C 
ATOM     30  C   UNL     1       3.473   7.499 -12.721  0.00  0.00    +0.012 C 
ENDBRANCH  25  28
ENDBRANCH  18  22
ENDBRANCH   7  15
BRANCH   1  32
ATOM     31  C   UNL     1       5.809   2.095  -0.318  0.00  0.00    +0.011 C 
ATOM     32  C   UNL     1       5.470   0.624  -0.071  0.00  0.00    +0.061 C 
ENDBRANCH   1  32
TORSDOF 4
