REMARK  Name = ZINC13658902
REMARK  4 active torsions:
REMARK  status: ('A' for Active; 'I' for Inactive)
REMARK    1  A    between atoms: C_5  and  N_8
REMARK    2  A    between atoms: N_8  and  C_9
REMARK    3  A    between atoms: C_9  and  N_11
REMARK    4  A    between atoms: N_11  and  N_12
REMARK                            x       y       z     vdW  Elec       q    Type
REMARK                         _______ _______ _______ _____ _____    ______ ____
ROOT
ATOM      1  C   UNL     1       0.667   1.334   1.222  0.00  0.00    +0.055 A 
ATOM      2  C   UNL     1       1.144   2.083   0.160  0.00  0.00    +0.126 A 
ATOM      3  C   UNL     1       1.652   1.451  -0.962  0.00  0.00    +0.055 A 
ATOM      4  C   UNL     1       1.684   0.071  -1.025  0.00  0.00    +0.043 A 
ATOM      5  C   UNL     1       1.206  -0.682   0.040  0.00  0.00    +0.061 A 
ATOM      6  C   UNL     1       0.697  -0.046   1.165  0.00  0.00    +0.043 A 
ATOM      7 BR   UNL     1       0.045  -1.069   2.616  0.00  0.00    -0.048 Br
ATOM      8 BR   UNL     1       2.377  -0.791  -2.559  0.00  0.00    -0.048 Br
ATOM      9  F   UNL     1       1.113   3.433   0.219  0.00  0.00    -0.205 F 
ENDROOT
BRANCH   5  10
ATOM     10  N   UNL     1       1.236  -2.082  -0.022  0.00  0.00    -0.294 N 
ATOM     11  H   UNL     1       0.422  -2.578  -0.199  0.00  0.00    +0.154 HD
BRANCH  10  12
ATOM     12  C   UNL     1       2.398  -2.739   0.166  0.00  0.00    +0.148 C 
ATOM     13  S   UNL     1       3.823  -1.868   0.541  0.00  0.00    -0.017 S 
BRANCH  12  14
ATOM     14  N   UNL     1       2.438  -4.082   0.058  0.00  0.00    -0.265 N 
ATOM     15  H   UNL     1       3.274  -4.555   0.193  0.00  0.00    +0.168 HD
BRANCH  14  16
ATOM     16  N   UNL     1       1.300  -4.777  -0.241  0.00  0.00    -0.255 NA
ATOM     17  H   UNL     1       0.889  -4.444  -1.101  0.00  0.00    +0.140 HD
ATOM     18  H   UNL     1       1.484  -5.768  -0.288  0.00  0.00    +0.140 HD
ENDBRANCH  14  16
ENDBRANCH  12  14
ENDBRANCH  10  12
ENDBRANCH   5  10
TORSDOF 4
