REMARK  Name = ZINC38903945
REMARK  13 active torsions:
REMARK  status: ('A' for Active; 'I' for Inactive)
REMARK    1  A    between atoms: C_1  and  C_2
REMARK    2  A    between atoms: N_6  and  C_7
REMARK    3  A    between atoms: C_7  and  C_8
REMARK    4  A    between atoms: C_11  and  C_14
REMARK    5  A    between atoms: C_14  and  N_15
REMARK    6  A    between atoms: C_16  and  C_18
REMARK    7  A    between atoms: N_23  and  C_25
REMARK    8  A    between atoms: C_25  and  C_26
REMARK    9  A    between atoms: C_28  and  C_31
REMARK   10  A    between atoms: C_34  and  C_37
REMARK   11  A    between atoms: C_37  and  C_38
REMARK   12  A    between atoms: C_37  and  C_39
REMARK   13  A    between atoms: C_37  and  C_40
REMARK                            x       y       z     vdW  Elec       q    Type
REMARK                         _______ _______ _______ _____ _____    ______ ____
ROOT
ATOM      1  C   UNL     1      -8.769  -1.177   1.902  0.00  0.00    +0.058 C 
ATOM      2  C   UNL     1      -8.382  -2.636   1.645  0.00  0.00    +0.009 C 
ATOM      3  C   UNL     1      -9.302  -3.215   0.566  0.00  0.00    -0.018 C 
ATOM      4  C   UNL     1     -10.758  -3.072   1.014  0.00  0.00    -0.078 C 
ATOM      5  N   UNL     1     -11.074  -1.653   1.219  0.00  0.00    +0.386 N 
ATOM      6  C   UNL     1     -10.245  -1.109   2.301  0.00  0.00    -0.065 C 
ATOM      7  H   UNL     1     -10.890  -1.143   0.368  0.00  0.00    -0.081 HD
ENDROOT
BRANCH   1   9
ATOM      8  N   UNL     1      -6.580  -0.582   2.887  0.00  0.00    -0.311 N 
ATOM      9  C   UNL     1      -7.921  -0.621   3.017  0.00  0.00    +0.215 C 
ATOM     10  O   UNL     1      -8.444  -0.208   4.029  0.00  0.00    -0.276 OA
ATOM     11  H   UNL     1      -6.161  -0.912   2.077  0.00  0.00    +0.149 HD
BRANCH   8  12
ATOM     12  C   UNL     1      -5.755  -0.041   3.970  0.00  0.00    +0.139 C 
BRANCH  12  16
ATOM     13  C   UNL     1      -1.635  -0.239   2.860  0.00  0.00    -0.028 A 
ATOM     14  C   UNL     1      -2.380   0.884   2.553  0.00  0.00    +0.006 A 
ATOM     15  C   UNL     1      -3.713   0.948   2.913  0.00  0.00    +0.005 A 
ATOM     16  C   UNL     1      -4.301  -0.111   3.578  0.00  0.00    -0.030 A 
ATOM     17  C   UNL     1      -3.556  -1.234   3.884  0.00  0.00    +0.005 A 
ATOM     18  C   UNL     1      -2.224  -1.300   3.521  0.00  0.00    +0.006 A 
BRANCH  13  19
ATOM     19  C   UNL     1      -0.181  -0.308   2.468  0.00  0.00    +0.158 C 
BRANCH  19  25
ATOM     20  C   UNL     1      -0.119  -3.266   1.547  0.00  0.00    +0.086 C 
ATOM     21  C   UNL     1      -0.042  -2.049   0.661  0.00  0.00    +0.107 A 
ATOM     22  N   UNL     1       0.058  -2.061  -0.640  0.00  0.00    -0.241 NA
ATOM     23  C   UNL     1       0.102  -0.799  -1.092  0.00  0.00    +0.130 A 
ATOM     24  C   UNL     1       0.026   0.027  -0.030  0.00  0.00    +0.107 A 
ATOM     25  N   UNL     1      -0.070  -0.766   1.081  0.00  0.00    -0.330 N 
ENDBRANCH  19  25
ENDBRANCH  13  19
ENDBRANCH  12  16
ENDBRANCH   8  12
ENDBRANCH   1   9
BRANCH   5  26
ATOM     26  C   UNL     1     -12.492  -1.515   1.573  0.00  0.00    +0.022 C 
BRANCH  26  27
ATOM     27  C   UNL     1     -13.346  -1.950   0.410  0.00  0.00    +0.211 A 
ATOM     28  N   UNL     1     -13.784  -3.158   0.198  0.00  0.00    -0.193 NA
ATOM     29  C   UNL     1     -14.515  -3.191  -0.931  0.00  0.00    +0.202 A 
ATOM     30  N   UNL     1     -14.544  -1.987  -1.447  0.00  0.00    -0.056 NA
ATOM     31  O   UNL     1     -13.786  -1.159  -0.577  0.00  0.00    -0.340 OA
BRANCH  29  32
ATOM     32  C   UNL     1     -15.179  -4.392  -1.498  0.00  0.00    +0.022 A 
ATOM     33  C   UNL     1     -15.076  -5.620  -0.848  0.00  0.00    +0.012 A 
ATOM     34  C   UNL     1     -15.695  -6.733  -1.379  0.00  0.00    +0.005 A 
ATOM     35  C   UNL     1     -16.415  -6.631  -2.556  0.00  0.00    -0.042 A 
ATOM     36  C   UNL     1     -16.520  -5.415  -3.206  0.00  0.00    +0.005 A 
ATOM     37  C   UNL     1     -15.911  -4.294  -2.679  0.00  0.00    +0.012 A 
BRANCH  35  38
ATOM     38  C   UNL     1     -17.088  -7.851  -3.132  0.00  0.00    -0.013 C 
ATOM     39  C   UNL     1     -18.099  -8.400  -2.124  0.00  0.00    +0.015 C 
ATOM     40  C   UNL     1     -17.812  -7.470  -4.425  0.00  0.00    +0.015 C 
ATOM     41  C   UNL     1     -16.035  -8.919  -3.433  0.00  0.00    +0.015 C 
ENDBRANCH  35  38
ENDBRANCH  29  32
ENDBRANCH  26  27
ENDBRANCH   5  26
TORSDOF 9
