REMARK  Name = ZINC57455622
REMARK  10 active torsions:
REMARK  status: ('A' for Active; 'I' for Inactive)
REMARK    1  A    between atoms: C_1  and  C_2
REMARK    2  A    between atoms: C_2  and  C_3
REMARK    3  A    between atoms: C_3  and  C_5
REMARK    4  A    between atoms: C_3  and  C_6
REMARK    5  A    between atoms: C_6  and  C_8
REMARK    6  A    between atoms: C_6  and  N_22
REMARK    7  A    between atoms: N_10  and  C_11
REMARK    8  A    between atoms: C_11  and  C_12
REMARK    9  A    between atoms: C_12  and  C_13
REMARK   10  A    between atoms: C_13  and  C_14
REMARK                            x       y       z     vdW  Elec       q    Type
REMARK                         _______ _______ _______ _____ _____    ______ ____
ROOT
ATOM      1  C   UNL     1      -3.551  -0.833   1.698  0.00  0.00    +0.234 C 
ATOM      2  O   UNL     1      -4.503  -0.137   1.978  0.00  0.00    -0.274 OA
ATOM      3  N   UNL     1      -3.688  -2.173   1.643  0.00  0.00    -0.314 N 
ATOM      4  H   UNL     1      -2.912  -2.734   1.491  0.00  0.00    +0.149 HD
ENDROOT
BRANCH   1   5
ATOM      5  C   UNL     1      -2.213  -0.201   1.411  0.00  0.00    +0.163 C 
BRANCH   5   6
ATOM      6  N   UNL     1      -2.317   1.252   1.567  0.00  0.00    -0.288 N 
ATOM      7  C   UNL     1      -1.277   1.952   2.064  0.00  0.00    +0.298 C 
ATOM      8  O   UNL     1      -0.221   1.394   2.291  0.00  0.00    -0.253 OA
ATOM      9  N   UNL     1      -1.408   3.271   2.308  0.00  0.00    -0.313 N 
ATOM     10  H   UNL     1      -3.133   1.710   1.314  0.00  0.00    +0.151 HD
ATOM     11  H   UNL     1      -2.251   3.717   2.127  0.00  0.00    +0.146 HD
ATOM     12  H   UNL     1      -0.660   3.775   2.665  0.00  0.00    +0.146 HD
ENDBRANCH   5   6
BRANCH   5  13
ATOM     13  C   UNL     1      -1.790  -0.531  -0.022  0.00  0.00    +0.015 C 
ATOM     14  C   UNL     1      -0.363  -0.034  -0.259  0.00  0.00    +0.010 C 
BRANCH  13  16
ATOM     15  C   UNL     1      -4.134  -0.460  -0.883  0.00  0.00    +0.004 C 
ATOM     16  C   UNL     1      -2.739   0.157  -1.005  0.00  0.00    +0.002 C 
ENDBRANCH  13  16
ENDBRANCH   5  13
ENDBRANCH   1   5
BRANCH   3  17
ATOM     17  C   UNL     1      -5.010  -2.781   1.814  0.00  0.00    +0.104 C 
BRANCH  17  18
ATOM     18  C   UNL     1      -4.889  -4.302   1.709  0.00  0.00    +0.023 C 
BRANCH  18  19
ATOM     19  C   UNL     1      -6.269  -4.938   1.887  0.00  0.00    +0.037 C 
BRANCH  19  20
ATOM     20  C   UNL     1      -6.150  -6.436   1.783  0.00  0.00    -0.046 A 
ATOM     21  C   UNL     1      -6.273  -7.056   0.553  0.00  0.00    +0.005 A 
ATOM     22  C   UNL     1      -6.165  -8.430   0.457  0.00  0.00    +0.022 A 
ATOM     23  C   UNL     1      -5.932  -9.187   1.591  0.00  0.00    +0.059 A 
ATOM     24  C   UNL     1      -5.808  -8.567   2.823  0.00  0.00    +0.060 A 
ATOM     25  C   UNL     1      -5.912  -7.190   2.917  0.00  0.00    +0.025 A 
ATOM     26 CL   UNL     1      -5.517  -9.515   4.247  0.00  0.00    -0.082 Cl
ATOM     27 CL   UNL     1      -5.796 -10.913   1.471  0.00  0.00    -0.082 Cl
ENDBRANCH  19  20
ENDBRANCH  18  19
ENDBRANCH  17  18
ENDBRANCH   3  17
TORSDOF 8
