REMARK  Name = ZINC40986364
REMARK  9 active torsions:
REMARK  status: ('A' for Active; 'I' for Inactive)
REMARK    1  A    between atoms: C_1  and  C_2
REMARK    2  A    between atoms: C_5  and  C_8
REMARK    3  A    between atoms: C_8  and  S_9
REMARK    4  A    between atoms: S_9  and  C_12
REMARK    5  A    between atoms: C_15  and  C_19
REMARK    6  A    between atoms: N_21  and  C_22
REMARK    7  A    between atoms: C_22  and  C_23
REMARK    8  A    between atoms: C_23  and  C_25
REMARK    9  A    between atoms: C_23  and  N_30
REMARK                            x       y       z     vdW  Elec       q    Type
REMARK                         _______ _______ _______ _____ _____    ______ ____
ROOT
ATOM      1  C   UNL     1       1.692  -6.622  -0.056  0.00  0.00    +0.272 A 
ATOM      2  N   UNL     1       1.490  -7.260   1.081  0.00  0.00    -0.219 NA
ATOM      3  C   UNL     1       1.473  -8.581   1.127  0.00  0.00    +0.130 A 
ATOM      4  C   UNL     1       1.674  -9.302  -0.055  0.00  0.00    +0.092 A 
ATOM      5  C   UNL     1       1.885  -8.583  -1.240  0.00  0.00    +0.146 A 
ATOM      6  N   UNL     1       1.881  -7.261  -1.194  0.00  0.00    -0.199 NA
ATOM      7 CL   UNL     1       2.142  -9.413  -2.742  0.00  0.00    -0.061 Cl
ENDROOT
BRANCH   4   8
ATOM      8  C   UNL     1       1.665 -10.780  -0.055  0.00  0.00    +0.248 C 
ATOM      9  O   UNL     1       1.842 -11.389  -1.092  0.00  0.00    -0.270 OA
ATOM     10  N   UNL     1       1.461 -11.452   1.095  0.00  0.00    -0.312 N 
ATOM     11  H   UNL     1       1.320 -10.966   1.923  0.00  0.00    +0.149 HD
BRANCH  10  12
ATOM     12  C   UNL     1       1.452 -12.917   1.096  0.00  0.00    +0.094 C 
BRANCH  12  13
ATOM     13  C   UNL     1       1.331 -13.426   2.534  0.00  0.00    -0.013 C 
BRANCH  13  14
ATOM     14  N   UNL     1       1.233 -14.891   2.528  0.00  0.00    +0.386 N 
ATOM     15  C   UNL     1       0.007 -15.295   1.828  0.00  0.00    -0.078 C 
ATOM     16  C   UNL     1      -0.059 -16.822   1.748  0.00  0.00    -0.019 C 
ATOM     17  C   UNL     1      -0.064 -17.402   3.165  0.00  0.00    -0.004 C 
ATOM     18  C   UNL     1       1.181 -16.914   3.910  0.00  0.00    -0.019 C 
ATOM     19  C   UNL     1       1.202 -15.384   3.910  0.00  0.00    -0.078 C 
ATOM     20  H   UNL     1       2.033 -15.279   2.051  0.00  0.00    -0.081 HD
ENDBRANCH  13  14
BRANCH  13  21
ATOM     21  C   UNL     1       2.548 -13.007   3.318  0.00  0.00    -0.022 A 
ATOM     22  C   UNL     1       2.691 -11.976   4.186  0.00  0.00    +0.009 A 
ATOM     23  C   UNL     1       3.914 -11.780   4.799  0.00  0.00    +0.008 A 
ATOM     24  C   UNL     1       4.935 -12.624   4.513  0.00  0.00    +0.045 A 
ATOM     25  S   UNL     1       4.173 -13.745   3.351  0.00  0.00    -0.103 S 
ENDBRANCH  13  21
ENDBRANCH  12  13
ENDBRANCH  10  12
ENDBRANCH   4   8
BRANCH   1  26
ATOM     26  S   UNL     1       1.702  -4.860  -0.054  0.00  0.00    +0.036 S 
ATOM     27  O   UNL     1       2.505  -4.502  -1.171  0.00  0.00    -0.166 OA
ATOM     28  O   UNL     1       2.092  -4.501   1.264  0.00  0.00    -0.166 OA
BRANCH  26  29
ATOM     29  C   UNL     1      -0.023  -4.384  -0.347  0.00  0.00    +0.210 C 
BRANCH  29  34
ATOM     30  C   UNL     1      -0.447   1.379  -0.421  0.00  0.00    +0.044 C 
ATOM     31  C   UNL     1      -0.336  -0.124  -0.402  0.00  0.00    -0.050 A 
ATOM     32  C   UNL     1      -0.084  -0.813  -1.573  0.00  0.00    +0.003 A 
ATOM     33  C   UNL     1       0.017  -2.192  -1.555  0.00  0.00    +0.005 A 
ATOM     34  C   UNL     1      -0.133  -2.881  -0.366  0.00  0.00    -0.026 A 
ATOM     35  C   UNL     1      -0.384  -2.191   0.805  0.00  0.00    +0.005 A 
ATOM     36  C   UNL     1      -0.481  -0.812   0.788  0.00  0.00    +0.003 A 
ENDBRANCH  29  34
ENDBRANCH  26  29
ENDBRANCH   1  26
TORSDOF 8
