REMARK  Name = ZINC03168838
REMARK  10 active torsions:
REMARK  status: ('A' for Active; 'I' for Inactive)
REMARK    1  A    between atoms: C_1  and  C_2
REMARK    2  A    between atoms: C_2  and  C_3
REMARK    3  A    between atoms: C_2  and  C_19
REMARK    4  A    between atoms: C_2  and  O_27
REMARK    5  A    between atoms: C_3  and  N_46
REMARK    6  A    between atoms: CA_4  and  CB_6
REMARK    7  A    between atoms: CA_4  and  C_17
REMARK    8  A    between atoms: CA_4  and  N_46
REMARK    9  A    between atoms: CB_6  and  CG_7
REMARK   10  A    between atoms: C_20  and  C_21
REMARK                            x       y       z     vdW  Elec       q    Type
REMARK                         _______ _______ _______ _____ _____    ______ ____
ROOT
ATOM      1  N   UNL     1      -0.001  -0.005  -2.447  0.00  0.00    +0.391 N 
ATOM      2  H1  UNL     1      -0.015   1.022  -2.433  0.00  0.00    -0.085 HD
ATOM      3  H2  UNL     1      -0.964  -0.360  -2.432  0.00  0.00    -0.085 HD
ENDROOT
BRANCH   1   4
ATOM      4  C   ACE A   0       0.718  -0.497  -1.257  0.00  0.00    -0.033 C 
BRANCH   4   6
ATOM      5  C   UNL     1      -1.433  -0.534   0.013  0.00  0.00    +0.053 C 
ATOM      6  C   UNL     1       0.002  -0.004   0.002  0.00  0.00    +0.109 C 
BRANCH   6   7
ATOM      7  C   UNL     1       0.714  -0.492   1.195  0.00  0.00    -0.065 C 
ATOM      8  C   UNL     1       1.282  -0.881   2.146  0.00  0.00    -0.064 C 
BRANCH   8   9
ATOM      9  C   UNL     1       1.974  -1.355   3.306  0.00  0.00    +0.025 A 
ATOM     10  C   UNL     1       2.507  -0.449   4.223  0.00  0.00    +0.017 A 
ATOM     11  C   UNL     1       3.169  -0.912   5.342  0.00  0.00    +0.001 A 
ATOM     12  C   UNL     1       3.314  -2.272   5.549  0.00  0.00    +0.000 A 
ATOM     13  C   UNL     1       2.793  -3.176   4.640  0.00  0.00    +0.001 A 
ATOM     14  C   UNL     1       2.124  -2.725   3.521  0.00  0.00    +0.017 A 
ENDBRANCH   8   9
ENDBRANCH   6   7
BRANCH   6  15
ATOM     15  O   UNL     1      -0.017   1.425   0.010  0.00  0.00    -0.379 OA
ATOM     16  H   UNL     1       0.861   1.830   0.004  0.00  0.00    +0.211 HD
ENDBRANCH   6  15
ENDBRANCH   4   6
ENDBRANCH   1   4
BRANCH   1  17
ATOM     17  CA  UNL     1       0.668  -0.466  -3.677  0.00  0.00    +0.048 C 
BRANCH  17  18
ATOM     18  C   UNL     1       1.781   0.486  -4.032  0.00  0.00    +0.343 C 
ATOM     19  O   UNL     1       2.002   1.446  -3.331  0.00  0.00    -0.248 OA
ATOM     20  OXT UNL     1       2.528   0.268  -5.126  0.00  0.00    -0.248 OA
ENDBRANCH  17  18
BRANCH  17  21
ATOM     21  CB  UNL     1      -0.350  -0.507  -4.818  0.00  0.00    +0.032 C 
BRANCH  21  22
ATOM     22  CG  UNL     1      -1.397  -1.549  -4.519  0.00  0.00    -0.023 A 
ATOM     23  CD1 UNL     1      -1.405  -2.820  -4.950  0.00  0.00    +0.087 A 
ATOM     24  NE1 UNL     1      -2.513  -3.467  -4.474  0.00  0.00    -0.360 N 
ATOM     25  HE1 UNL     1      -2.735  -4.395  -4.651  0.00  0.00    +0.165 HD
ATOM     26  CE2 UNL     1      -3.269  -2.604  -3.714  0.00  0.00    +0.047 A 
ATOM     27  CD2 UNL     1      -2.604  -1.364  -3.708  0.00  0.00    +0.003 A 
ATOM     28  CE3 UNL     1      -3.146  -0.286  -3.007  0.00  0.00    +0.010 A 
ATOM     29  CZ3 UNL     1      -4.322  -0.440  -2.329  0.00  0.00    +0.001 A 
ATOM     30  CH2 UNL     1      -4.982  -1.661  -2.331  0.00  0.00    +0.002 A 
ATOM     31  CZ2 UNL     1      -4.465  -2.738  -3.017  0.00  0.00    +0.026 A 
ENDBRANCH  21  22
ENDBRANCH  17  21
ENDBRANCH   1  17
TORSDOF 9
