REMARK  Name = ZINC53112593
REMARK  6 active torsions:
REMARK  status: ('A' for Active; 'I' for Inactive)
REMARK    1  A    between atoms: C_1  and  C_2
REMARK    2  A    between atoms: C_7  and  C_9
REMARK    3  A    between atoms: C_7  and  N_11
REMARK    4  A    between atoms: C_9  and  O_10
REMARK    5  A    between atoms: C_12  and  C_14
REMARK    6  A    between atoms: C_15  and  N_19
REMARK                            x       y       z     vdW  Elec       q    Type
REMARK                         _______ _______ _______ _____ _____    ______ ____
ROOT
ATOM      1  N   UNL     1       2.053   1.416   1.195  0.00  0.00    -0.303 N 
ATOM      2  C   UNL     1       1.553   1.863   2.364  0.00  0.00    +0.253 C 
ATOM      3  O   UNL     1       1.218   1.069   3.225  0.00  0.00    -0.270 OA
ATOM      4  H   UNL     1       2.248   2.042   0.480  0.00  0.00    +0.150 HD
ENDROOT
BRANCH   1  10
ATOM      5  C   UNL     1      -0.218   1.226   0.169  0.00  0.00    +0.007 C 
ATOM      6  C   UNL     1       0.042  -0.269  -0.032  0.00  0.00    -0.012 C 
ATOM      7  C   UNL     1       0.692  -0.494  -1.398  0.00  0.00    +0.003 C 
ATOM      8  C   UNL     1       2.018   0.267  -1.464  0.00  0.00    +0.002 C 
ATOM      9  C   UNL     1       2.952  -0.241  -0.363  0.00  0.00    +0.028 C 
ATOM     10  C   UNL     1       2.301  -0.015   1.003  0.00  0.00    +0.058 C 
ATOM     11  C   UNL     1       0.976  -0.776   1.069  0.00  0.00    +0.031 C 
BRANCH  10  12
ATOM     12  C   UNL     1       3.236  -0.522   2.103  0.00  0.00    +0.181 C 
BRANCH  12  13
ATOM     13  O   UNL     1       4.482   0.172   2.027  0.00  0.00    -0.393 OA
ATOM     14  H   UNL     1       5.125  -0.099   2.696  0.00  0.00    +0.209 HD
ENDBRANCH  12  13
ENDBRANCH  10  12
ENDBRANCH   1  10
BRANCH   2  15
ATOM     15  C   UNL     1       1.416   3.253   2.590  0.00  0.00    +0.094 A 
ATOM     16  C   UNL     1       0.933   3.917   3.718  0.00  0.00    +0.044 A 
ATOM     17  C   UNL     1       0.924   5.296   3.635  0.00  0.00    +0.031 A 
ATOM     18  C   UNL     1       1.369   5.889   2.503  0.00  0.00    +0.048 A 
ATOM     19  S   UNL     1       1.824   4.612   1.512  0.00  0.00    -0.090 S 
BRANCH  16  20
ATOM     20  N   UNL     1       0.490   3.236   4.849  0.00  0.00    -0.357 N 
ATOM     21  H   UNL     1       0.511   2.267   4.871  0.00  0.00    +0.142 HD
ATOM     22  H   UNL     1       0.160   3.732   5.615  0.00  0.00    +0.142 HD
ENDBRANCH  16  20
ENDBRANCH   2  15
TORSDOF 5
