REMARK  Name = ZINC59432249
REMARK  9 active torsions:
REMARK  status: ('A' for Active; 'I' for Inactive)
REMARK    1  A    between atoms: C_1  and  C_2
REMARK    2  A    between atoms: C_2  and  C_3
REMARK    3  A    between atoms: C_3  and  C_5
REMARK    4  A    between atoms: C_3  and  C_6
REMARK    5  A    between atoms: C_11  and  O_12
REMARK    6  A    between atoms: O_12  and  C_13
REMARK    7  A    between atoms: C_13  and  C_14
REMARK    8  A    between atoms: N_16  and  C_17
REMARK    9  A    between atoms: C_20  and  C_23
REMARK                            x       y       z     vdW  Elec       q    Type
REMARK                         _______ _______ _______ _____ _____    ______ ____
ROOT
ATOM      1  C   UNL     1      -5.016  -1.166   6.229  0.00  0.00    +0.034 A 
ATOM      2  C   UNL     1      -5.530   0.054   5.803  0.00  0.00    +0.024 A 
ATOM      3  C   UNL     1      -6.018   0.957   6.721  0.00  0.00    +0.015 A 
ATOM      4  C   UNL     1      -5.995   0.646   8.084  0.00  0.00    +0.037 A 
ATOM      5  C   UNL     1      -5.478  -0.581   8.509  0.00  0.00    +0.015 A 
ATOM      6  C   UNL     1      -4.997  -1.481   7.584  0.00  0.00    +0.024 A 
ENDROOT
BRANCH   4   7
ATOM      7  C   UNL     1      -6.516   1.610   9.071  0.00  0.00    +0.232 A 
ATOM      8  N   UNL     1      -6.477   1.293  10.342  0.00  0.00    -0.212 NA
ATOM      9  C   UNL     1      -6.966   2.132  11.287  0.00  0.00    +0.082 A 
ATOM     10  C   UNL     1      -6.732   1.944  12.649  0.00  0.00    +0.029 A 
ATOM     11  C   UNL     1      -7.264   2.831  13.559  0.00  0.00    +0.002 A 
ATOM     12  C   UNL     1      -8.030   3.911  13.139  0.00  0.00    +0.001 A 
ATOM     13  C   UNL     1      -8.273   4.120  11.798  0.00  0.00    +0.017 A 
ATOM     14  C   UNL     1      -7.743   3.238  10.864  0.00  0.00    +0.085 A 
ATOM     15  C   UNL     1      -7.944   3.394   9.413  0.00  0.00    +0.348 A 
ATOM     16  O   UNL     1      -8.875   4.024   8.948  0.00  0.00    -0.244 OA
ATOM     17  O   UNL     1      -7.009   2.786   8.630  0.00  0.00    -0.403 OA
ENDBRANCH   4   7
BRANCH   1  20
ATOM     18  C   UNL     1      -3.883  -1.636   4.194  0.00  0.00    +0.255 C 
ATOM     19  O   UNL     1      -3.809  -0.446   3.973  0.00  0.00    -0.272 OA
ATOM     20  N   UNL     1      -4.523  -2.078   5.295  0.00  0.00    -0.283 N 
ATOM     21  H   UNL     1      -4.640  -3.030   5.439  0.00  0.00    +0.155 HD
BRANCH  18  22
ATOM     22  C   UNL     1      -3.260  -2.620   3.239  0.00  0.00    +0.324 C 
BRANCH  22  23
ATOM     23  O   UNL     1      -2.646  -1.913   2.159  0.00  0.00    -0.482 OA
BRANCH  23  29
ATOM     24  C   UNL     1      -1.418  -2.037   0.126  0.00  0.00    -0.003 A 
ATOM     25  C   UNL     1      -0.791  -2.797  -0.843  0.00  0.00    +0.007 A 
ATOM     26  C   UNL     1      -0.783  -4.176  -0.743  0.00  0.00    +0.001 A 
ATOM     27  C   UNL     1      -1.401  -4.798   0.326  0.00  0.00    +0.004 A 
ATOM     28  C   UNL     1      -2.029  -4.043   1.297  0.00  0.00    +0.046 A 
ATOM     29  C   UNL     1      -2.034  -2.659   1.202  0.00  0.00    +0.125 A 
BRANCH  24  30
ATOM     30  C   UNL     1      -1.428  -0.534   0.016  0.00  0.00    +0.019 C 
ATOM     31  C   UNL     1      -2.128  -0.122  -1.280  0.00  0.00    +0.012 C 
BRANCH  30  33
ATOM     32  C   UNL     1       0.001   1.515   0.020  0.00  0.00    +0.004 C 
ATOM     33  C   UNL     1       0.011  -0.015   0.006  0.00  0.00    +0.004 C 
ENDBRANCH  30  33
ENDBRANCH  24  30
ENDBRANCH  23  29
ENDBRANCH  22  23
ENDBRANCH  18  22
ENDBRANCH   1  20
TORSDOF 7
