REMARK  Name = ZINC07242096
REMARK  8 active torsions:
REMARK  status: ('A' for Active; 'I' for Inactive)
REMARK    1  A    between atoms: C_1  and  C_2
REMARK    2  A    between atoms: C_7  and  N_11
REMARK    3  A    between atoms: N_11  and  C_12
REMARK    4  A    between atoms: C_12  and  C_14
REMARK    5  A    between atoms: C_12  and  C_15
REMARK    6  A    between atoms: N_17  and  C_18
REMARK    7  A    between atoms: C_21  and  S_24
REMARK    8  A    between atoms: S_24  and  N_27
REMARK                            x       y       z     vdW  Elec       q    Type
REMARK                         _______ _______ _______ _____ _____    ______ ____
ROOT
ATOM      1  C   UNL     1       2.410  -2.734  -0.137  0.00  0.00    +0.237 C 
ATOM      2  O   UNL     1       3.452  -2.114  -0.144  0.00  0.00    -0.273 OA
ATOM      3  N   UNL     1       1.237  -2.079  -0.020  0.00  0.00    -0.284 N 
ATOM      4  H   UNL     1       0.409  -2.578   0.062  0.00  0.00    +0.155 HD
ENDROOT
BRANCH   3   5
ATOM      5  C   UNL     1       1.214  -0.680  -0.019  0.00  0.00    +0.034 A 
ATOM      6  C   UNL     1       2.137   0.032  -0.774  0.00  0.00    +0.025 A 
ATOM      7  C   UNL     1       2.111   1.412  -0.771  0.00  0.00    +0.030 A 
ATOM      8  C   UNL     1       1.168   2.086  -0.016  0.00  0.00    +0.105 A 
ATOM      9  C   UNL     1       0.248   1.380   0.737  0.00  0.00    +0.030 A 
ATOM     10  C   UNL     1       0.268  -0.001   0.738  0.00  0.00    +0.025 A 
BRANCH   8  11
ATOM     11  S   UNL     1       1.139   3.848  -0.015  0.00  0.00    +0.056 S 
ATOM     12  O   UNL     1       0.510   4.242   1.197  0.00  0.00    -0.153 OA
ATOM     13  O   UNL     1       2.447   4.276  -0.369  0.00  0.00    -0.153 OA
BRANCH  11  14
ATOM     14  N   UNL     1       0.136   4.322  -1.244  0.00  0.00    -0.204 NA
ATOM     15  H   UNL     1      -0.300   3.656  -1.798  0.00  0.00    +0.144 HD
ATOM     16  H   UNL     1      -0.015   5.266  -1.411  0.00  0.00    +0.144 HD
ENDBRANCH  11  14
ENDBRANCH   8  11
ENDBRANCH   3   5
BRANCH   1  17
ATOM     17  C   UNL     1       2.425  -4.236  -0.258  0.00  0.00    +0.154 C 
ATOM     18  C   UNL     1       1.778  -4.855   0.983  0.00  0.00    +0.038 C 
BRANCH  17  19
ATOM     19  N   UNL     1       3.809  -4.703  -0.371  0.00  0.00    -0.333 N 
ATOM     20  H   UNL     1       4.533  -4.166  -0.011  0.00  0.00    +0.147 HD
BRANCH  19  27
ATOM     21  C   UNL     1       6.879 -11.125  -3.518  0.00  0.00    +0.073 C 
ATOM     22  C   UNL     1       6.277  -9.885  -2.910  0.00  0.00    +0.076 A 
ATOM     23  N   UNL     1       5.022  -9.531  -2.845  0.00  0.00    -0.244 NA
ATOM     24  C   UNL     1       4.616  -8.380  -2.267  0.00  0.00    +0.079 A 
ATOM     25  C   UNL     1       3.297  -7.886  -2.133  0.00  0.00    +0.031 A 
ATOM     26  C   UNL     1       3.054  -6.702  -1.514  0.00  0.00    +0.025 A 
ATOM     27  C   UNL     1       4.088  -5.921  -0.998  0.00  0.00    +0.029 A 
ATOM     28  C   UNL     1       5.396  -6.372  -1.110  0.00  0.00    +0.040 A 
ATOM     29  C   UNL     1       5.644  -7.571  -1.730  0.00  0.00    +0.041 A 
ATOM     30  S   UNL     1       7.100  -8.523  -2.096  0.00  0.00    -0.072 S 
ENDBRANCH  19  27
ENDBRANCH  17  19
ENDBRANCH   1  17
TORSDOF 6
