REMARK  Name = ZINC23003961
REMARK  12 active torsions:
REMARK  status: ('A' for Active; 'I' for Inactive)
REMARK    1  A    between atoms: C_1  and  C_2
REMARK    2  A    between atoms: C_2  and  C_3
REMARK    3  A    between atoms: C_2  and  C_4
REMARK    4  A    between atoms: C_2  and  C_5
REMARK    5  A    between atoms: C_8  and  C_11
REMARK    6  A    between atoms: C_14  and  S_17
REMARK    7  A    between atoms: N_15  and  N_16
REMARK    8  A    between atoms: S_17  and  C_18
REMARK    9  A    between atoms: C_18  and  C_19
REMARK   10  A    between atoms: C_19  and  C_20
REMARK   11  A    between atoms: N_25  and  C_26
REMARK   12  A    between atoms: C_26  and  C_27
REMARK                            x       y       z     vdW  Elec       q    Type
REMARK                         _______ _______ _______ _____ _____    ______ ____
ROOT
ATOM      1  C   UNL     1       1.699   5.989  -0.183  0.00  0.00    +0.182 A 
ATOM      2  N   UNL     1       0.405   5.826  -0.034  0.00  0.00    -0.127 NA
ATOM      3  N   UNL     1       0.140   4.585   0.172  0.00  0.00    -0.121 NA
ATOM      4  C   UNL     1       1.250   3.882   0.178  0.00  0.00    +0.209 A 
ATOM      5  N   UNL     1       2.280   4.749  -0.052  0.00  0.00    -0.224 N 
ENDROOT
BRANCH   1   9
ATOM      6  C   UNL     1       3.711   9.655  -0.929  0.00  0.00    -0.042 A 
ATOM      7  C   UNL     1       4.356   8.454  -1.168  0.00  0.00    +0.005 A 
ATOM      8  C   UNL     1       3.708   7.260  -0.928  0.00  0.00    +0.012 A 
ATOM      9  C   UNL     1       2.399   7.265  -0.443  0.00  0.00    +0.021 A 
ATOM     10  C   UNL     1       1.752   8.480  -0.209  0.00  0.00    +0.012 A 
ATOM     11  C   UNL     1       2.413   9.667  -0.449  0.00  0.00    +0.005 A 
BRANCH   6  13
ATOM     12  C   UNL     1       4.816  11.031  -2.671  0.00  0.00    +0.015 C 
ATOM     13  C   UNL     1       4.425  10.955  -1.194  0.00  0.00    -0.013 C 
ATOM     14  C   UNL     1       3.499  12.124  -0.851  0.00  0.00    +0.015 C 
ATOM     15  C   UNL     1       5.684  11.031  -0.328  0.00  0.00    +0.015 C 
ENDBRANCH   6  13
ENDBRANCH   1   9
BRANCH   5  16
ATOM     16  N   UNL     1       3.610   4.449  -0.134  0.00  0.00    -0.295 N 
ATOM     17  H   UNL     1       3.947   3.409  -0.009  0.00  0.00    +0.163 HD
ATOM     18  H   UNL     1       4.343   5.246  -0.324  0.00  0.00    +0.163 HD
ENDBRANCH   5  16
BRANCH   4  19
ATOM     19  S   UNL     1       1.385   2.143   0.426  0.00  0.00    -0.084 S 
BRANCH  19  20
ATOM     20  C   UNL     1      -0.361   1.723   0.657  0.00  0.00    +0.086 C 
BRANCH  20  21
ATOM     21  C   UNL     1      -0.496   0.217   0.896  0.00  0.00    +0.107 C 
BRANCH  21  22
ATOM     22  C   UNL     1      -1.949  -0.132   1.088  0.00  0.00    +0.221 C 
ATOM     23  O   UNL     1      -2.793   0.736   1.039  0.00  0.00    -0.275 OA
ATOM     24  N   UNL     1      -2.310  -1.411   1.315  0.00  0.00    -0.240 N 
ATOM     25  C   UNL     1      -3.610  -1.724   1.487  0.00  0.00    +0.306 C 
ATOM     26  O   UNL     1      -4.456  -0.853   1.437  0.00  0.00    -0.252 OA
ATOM     27  N   UNL     1      -3.971  -3.002   1.714  0.00  0.00    -0.295 N 
ATOM     28  H   UNL     1      -1.544  -2.199   1.360  0.00  0.00    +0.159 HD
ATOM     29  H   UNL     1      -3.205  -3.790   1.759  0.00  0.00    +0.151 HD
BRANCH  27  30
ATOM     30  C   UNL     1      -5.383  -3.342   1.901  0.00  0.00    +0.141 C 
BRANCH  30  31
ATOM     31  C   UNL     1      -5.516  -4.825   2.136  0.00  0.00    -0.030 A 
ATOM     32  C   UNL     1      -5.696  -5.681   1.066  0.00  0.00    +0.005 A 
ATOM     33  C   UNL     1      -5.813  -7.042   1.282  0.00  0.00    +0.000 A 
ATOM     34  C   UNL     1      -5.761  -7.545   2.569  0.00  0.00    +0.000 A 
ATOM     35  C   UNL     1      -5.587  -6.687   3.639  0.00  0.00    +0.000 A 
ATOM     36  C   UNL     1      -5.464  -5.327   3.423  0.00  0.00    +0.005 A 
ENDBRANCH  30  31
ENDBRANCH  27  30
ENDBRANCH  21  22
ENDBRANCH  20  21
ENDBRANCH  19  20
ENDBRANCH   4  19
TORSDOF 9
