REMARK  Name = ZINC49121984
REMARK  4 active torsions:
REMARK  status: ('A' for Active; 'I' for Inactive)
REMARK    1  A    between atoms: C_3  and  C_9
REMARK    2  A    between atoms: C_4  and  N_8
REMARK    3  A    between atoms: C_6  and  N_7
REMARK    4  A    between atoms: N_13  and  C_14
REMARK                            x       y       z     vdW  Elec       q    Type
REMARK                         _______ _______ _______ _____ _____    ______ ____
ROOT
ATOM      1  C   UNL     1       3.651   2.182   0.005  0.00  0.00    +0.189 A 
ATOM      2  N   UNL     1       4.868   1.679   0.066  0.00  0.00    -0.108 NA
ATOM      3  N   UNL     1       5.745   2.614   0.001  0.00  0.00    -0.022 NA
ATOM      4  N   UNL     1       5.175   3.764  -0.105  0.00  0.00    -0.039 NA
ATOM      5  N   UNL     1       3.788   3.535  -0.112  0.00  0.00    -0.192 N 
ENDROOT
BRANCH   5   6
ATOM      6  C   UNL     1       2.766   4.489  -0.214  0.00  0.00    +0.084 A 
ATOM      7  C   UNL     1       1.702   4.468   0.677  0.00  0.00    +0.044 A 
ATOM      8  C   UNL     1       0.696   5.410   0.574  0.00  0.00    +0.020 A 
ATOM      9  C   UNL     1       0.749   6.374  -0.417  0.00  0.00    +0.016 A 
ATOM     10  C   UNL     1       1.807   6.398  -1.307  0.00  0.00    +0.018 A 
ATOM     11  C   UNL     1       2.820   5.462  -1.204  0.00  0.00    +0.043 A 
ATOM     12 BR   UNL     1       4.271   5.501  -2.416  0.00  0.00    -0.048 Br
ATOM     13 BR   UNL     1      -0.754   5.381   1.787  0.00  0.00    -0.050 Br
ENDBRANCH   5   6
BRANCH   1  16
ATOM     14  C   UNL     1       0.203   0.971  -0.851  0.00  0.00    +0.023 A 
ATOM     15  C   UNL     1       1.385   1.678  -0.894  0.00  0.00    +0.015 A 
ATOM     16  C   UNL     1       2.383   1.426   0.049  0.00  0.00    +0.042 A 
ATOM     17  C   UNL     1       2.178   0.452   1.038  0.00  0.00    +0.037 A 
ATOM     18  C   UNL     1       0.986  -0.253   1.072  0.00  0.00    +0.046 A 
ATOM     19  C   UNL     1      -0.001   0.005   0.130  0.00  0.00    +0.026 A 
BRANCH  19  20
ATOM     20  N   UNL     1      -1.199  -0.706   0.166  0.00  0.00    -0.358 N 
ATOM     21  H   UNL     1      -1.890  -0.527  -0.492  0.00  0.00    +0.142 HD
ATOM     22  H   UNL     1      -1.343  -1.380   0.849  0.00  0.00    +0.142 HD
ENDBRANCH  19  20
BRANCH  17  23
ATOM     23  N   UNL     1       3.169   0.195   1.982  0.00  0.00    -0.357 N 
ATOM     24  H   UNL     1       4.003   0.689   1.956  0.00  0.00    +0.142 HD
ATOM     25  H   UNL     1       3.026  -0.479   2.665  0.00  0.00    +0.142 HD
ENDBRANCH  17  23
ENDBRANCH   1  16
TORSDOF 4
