REMARK  Name = ZINC27094765
REMARK  9 active torsions:
REMARK  status: ('A' for Active; 'I' for Inactive)
REMARK    1  A    between atoms: C_1  and  C_2
REMARK    2  A    between atoms: C_5  and  N_9
REMARK    3  A    between atoms: C_7  and  C_8
REMARK    4  A    between atoms: N_9  and  S_10
REMARK    5  A    between atoms: S_10  and  C_13
REMARK    6  A    between atoms: C_16  and  N_19
REMARK    7  A    between atoms: C_20  and  C_22
REMARK    8  A    between atoms: C_22  and  C_23
REMARK    9  A    between atoms: C_23  and  C_24
REMARK                            x       y       z     vdW  Elec       q    Type
REMARK                         _______ _______ _______ _____ _____    ______ ____
ROOT
ATOM      1  C   UNL     1      12.265  -2.231   2.952  0.00  0.00    +0.109 A 
ATOM      2  C   UNL     1      12.127  -2.519   1.607  0.00  0.00    +0.030 A 
ATOM      3  C   UNL     1      10.886  -2.444   1.007  0.00  0.00    +0.025 A 
ATOM      4  C   UNL     1       9.775  -2.078   1.756  0.00  0.00    +0.033 A 
ATOM      5  C   UNL     1       9.918  -1.783   3.105  0.00  0.00    +0.025 A 
ATOM      6  C   UNL     1      11.161  -1.865   3.701  0.00  0.00    +0.030 A 
ENDROOT
BRANCH   4   7
ATOM      7  N   UNL     1       8.516  -2.001   1.150  0.00  0.00    -0.285 N 
ATOM      8  C   UNL     1       8.181  -2.872   0.178  0.00  0.00    +0.218 C 
ATOM      9  O   UNL     1       9.000  -3.667  -0.232  0.00  0.00    -0.275 OA
ATOM     10  H   UNL     1       7.799  -1.230   1.468  0.00  0.00    +0.155 HD
BRANCH   8  11
ATOM     11  C   UNL     1       6.789  -2.858  -0.400  0.00  0.00    +0.101 C 
BRANCH  11  12
ATOM     12  C   UNL     1       6.674  -3.937  -1.478  0.00  0.00    +0.044 C 
BRANCH  12  13
ATOM     13  C   UNL     1       5.282  -3.923  -2.056  0.00  0.00    -0.043 A 
ATOM     14  C   UNL     1       4.998  -3.126  -3.150  0.00  0.00    +0.007 A 
ATOM     15  C   UNL     1       3.723  -3.110  -3.684  0.00  0.00    +0.050 A 
ATOM     16  C   UNL     1       2.726  -3.892  -3.123  0.00  0.00    +0.166 A 
ATOM     17  C   UNL     1       3.013  -4.695  -2.022  0.00  0.00    +0.166 A 
ATOM     18  C   UNL     1       4.293  -4.707  -1.492  0.00  0.00    +0.053 A 
ATOM     19  O   UNL     1       1.877  -5.361  -1.660  0.00  0.00    -0.453 OA
ATOM     20  C   UNL     1       0.999  -5.270  -2.798  0.00  0.00    +0.466 C 
ATOM     21  O   UNL     1       1.411  -4.055  -3.451  0.00  0.00    -0.453 OA
ENDBRANCH  12  13
ENDBRANCH  11  12
ENDBRANCH   8  11
ENDBRANCH   4   7
BRANCH   1  22
ATOM     22  S   UNL     1      13.851  -2.328   3.715  0.00  0.00    +0.072 S 
ATOM     23  O   UNL     1      13.626  -2.651   5.080  0.00  0.00    -0.150 OA
ATOM     24  O   UNL     1      14.661  -3.129   2.865  0.00  0.00    -0.150 OA
BRANCH  22  25
ATOM     25  N   UNL     1      14.500  -0.804   3.689  0.00  0.00    -0.216 N 
ATOM     26  H   UNL     1      15.421  -0.609   3.121  0.00  0.00    +0.174 HD
BRANCH  25  31
ATOM     27  C   UNL     1      11.975   3.403   6.533  0.00  0.00    +0.044 C 
ATOM     28  C   UNL     1      12.646   2.284   5.777  0.00  0.00    -0.047 A 
ATOM     29  C   UNL     1      12.545   2.225   4.399  0.00  0.00    +0.005 A 
ATOM     30  C   UNL     1      13.163   1.205   3.703  0.00  0.00    +0.025 A 
ATOM     31  C   UNL     1      13.878   0.232   4.390  0.00  0.00    +0.048 A 
ATOM     32  C   UNL     1      13.977   0.294   5.774  0.00  0.00    +0.028 A 
ATOM     33  C   UNL     1      13.361   1.321   6.463  0.00  0.00    -0.046 A 
ATOM     34  C   UNL     1      13.469   1.389   7.965  0.00  0.00    +0.044 C 
ENDBRANCH  25  31
ENDBRANCH  22  25
ENDBRANCH   1  22
TORSDOF 7
