REMARK  Name = ZINC40360355
REMARK  5 active torsions:
REMARK  status: ('A' for Active; 'I' for Inactive)
REMARK    1  A    between atoms: C_5  and  C_6
REMARK    2  A    between atoms: N_8  and  C_9
REMARK    3  A    between atoms: C_9  and  C_11
REMARK    4  A    between atoms: C_9  and  C_17
REMARK    5  A    between atoms: C_17  and  N_19
REMARK                            x       y       z     vdW  Elec       q    Type
REMARK                         _______ _______ _______ _____ _____    ______ ____
ROOT
ATOM      1  C   UNL     1      -2.017  -3.209   0.005  0.00  0.00    +0.128 C 
ENDROOT
BRANCH   1   2
ATOM      2  C   UNL     1      -1.565  -4.543   0.603  0.00  0.00    +0.016 C 
ATOM      3  C   UNL     1      -0.425  -5.119  -0.239  0.00  0.00    +0.006 C 
ATOM      4  C   UNL     1       0.028  -6.453   0.359  0.00  0.00    +0.000 C 
ATOM      5  C   UNL     1      -1.147  -7.433   0.366  0.00  0.00    +0.000 C 
ATOM      6  C   UNL     1      -2.287  -6.857   1.208  0.00  0.00    +0.000 C 
ATOM      7  C   UNL     1      -2.740  -5.523   0.610  0.00  0.00    +0.006 C 
ENDBRANCH   1   2
BRANCH   1  10
ATOM      8  C   UNL     1      -1.123  -0.943   0.008  0.00  0.00    +0.251 C 
ATOM      9  O   UNL     1      -2.265  -0.523   0.022  0.00  0.00    -0.270 OA
ATOM     10  N   UNL     1      -0.892  -2.271  -0.001  0.00  0.00    -0.302 N 
ATOM     11  H   UNL     1       0.018  -2.605  -0.012  0.00  0.00    +0.150 HD
BRANCH   8  16
ATOM     12  C   UNL     1      -0.017   1.383   0.010  0.00  0.00    +0.022 A 
ATOM     13  C   UNL     1       1.212   1.996   0.001  0.00  0.00    +0.024 A 
ATOM     14  C   UNL     1       2.332   1.230  -0.014  0.00  0.00    +0.056 A 
ATOM     15  S   UNL     1       1.751  -0.347  -0.017  0.00  0.00    -0.077 S 
ATOM     16  C   UNL     1       0.002  -0.004   0.002  0.00  0.00    +0.075 A 
ATOM     17 BR   UNL     1       4.134   1.804  -0.028  0.00  0.00    -0.043 Br
ENDBRANCH   8  16
ENDBRANCH   1  10
BRANCH   1  18
ATOM     18  C   UNL     1      -2.496  -3.429  -1.407  0.00  0.00    +0.067 C 
ATOM     19  S   UNL     1      -1.640  -2.872  -2.637  0.00  0.00    -0.039 S 
BRANCH  18  20
ATOM     20  N   UNL     1      -3.647  -4.094  -1.632  0.00  0.00    -0.354 N 
ATOM     21  H   UNL     1      -4.166  -4.431  -0.885  0.00  0.00    +0.143 HD
ATOM     22  H   UNL     1      -3.955  -4.235  -2.541  0.00  0.00    +0.143 HD
ENDBRANCH  18  20
ENDBRANCH   1  18
TORSDOF 5
