REMARK  Name = ZINC10265620
REMARK  11 active torsions:
REMARK  status: ('A' for Active; 'I' for Inactive)
REMARK    1  A    between atoms: C_1  and  C_2
REMARK    2  A    between atoms: C_2  and  C_4
REMARK    3  A    between atoms: C_2  and  O_22
REMARK    4  A    between atoms: N_6  and  C_7
REMARK    5  A    between atoms: C_12  and  O_13
REMARK    6  A    between atoms: O_13  and  C_14
REMARK    7  A    between atoms: O_22  and  C_23
REMARK    8  A    between atoms: C_23  and  C_25
REMARK    9  A    between atoms: C_30  and  N_31
REMARK   10  A    between atoms: N_31  and  S_32
REMARK   11  A    between atoms: S_32  and  C_35
REMARK                            x       y       z     vdW  Elec       q    Type
REMARK                         _______ _______ _______ _____ _____    ______ ____
ROOT
ATOM      1  C   UNL     1      -3.873   6.164   4.845  0.00  0.00    +0.258 C 
ATOM      2  O   UNL     1      -4.669   5.431   5.394  0.00  0.00    -0.271 OA
ATOM      3  N   UNL     1      -3.660   7.406   5.323  0.00  0.00    -0.279 N 
ATOM      4  H   UNL     1      -3.086   8.020   4.839  0.00  0.00    +0.155 HD
ENDROOT
BRANCH   3   5
ATOM      5  C   UNL     1      -4.267   7.810   6.519  0.00  0.00    +0.079 A 
ATOM      6  C   UNL     1      -4.639   6.862   7.456  0.00  0.00    +0.074 A 
ATOM      7  C   UNL     1      -5.237   7.255   8.646  0.00  0.00    +0.138 A 
ATOM      8  C   UNL     1      -5.468   8.618   8.880  0.00  0.00    +0.031 A 
ATOM      9  C   UNL     1      -5.098   9.569   7.933  0.00  0.00    +0.059 A 
ATOM     10  C   UNL     1      -4.499   9.166   6.755  0.00  0.00    +0.142 A 
ATOM     11  C   UNL     1      -6.110   8.693  10.207  0.00  0.00    +0.028 A 
ATOM     12  C   UNL     1      -6.578   9.739  10.995  0.00  0.00    +0.012 A 
ATOM     13  C   UNL     1      -7.142   9.469  12.224  0.00  0.00    +0.001 A 
ATOM     14  C   UNL     1      -7.242   8.161  12.671  0.00  0.00    +0.004 A 
ATOM     15  C   UNL     1      -6.781   7.117  11.897  0.00  0.00    +0.047 A 
ATOM     16  C   UNL     1      -6.209   7.369  10.656  0.00  0.00    +0.136 A 
ATOM     17  O   UNL     1      -5.686   6.555   9.713  0.00  0.00    -0.455 OA
BRANCH  10  18
ATOM     18  O   UNL     1      -4.135  10.091   5.825  0.00  0.00    -0.493 OA
ATOM     19  C   UNL     1      -4.402  11.460   6.134  0.00  0.00    +0.277 C 
ENDBRANCH  10  18
ENDBRANCH   3   5
BRANCH   1  21
ATOM     20  C   UNL     1      -3.442   6.598   2.442  0.00  0.00    +0.062 C 
ATOM     21  C   UNL     1      -3.124   5.686   3.628  0.00  0.00    +0.259 C 
BRANCH  21  22
ATOM     22  O   UNL     1      -3.527   4.326   3.315  0.00  0.00    -0.449 OA
BRANCH  22  23
ATOM     23  C   UNL     1      -2.608   3.537   2.724  0.00  0.00    +0.342 C 
ATOM     24  O   UNL     1      -1.501   3.972   2.478  0.00  0.00    -0.245 OA
BRANCH  23  25
ATOM     25  C   UNL     1      -2.947   2.146   2.378  0.00  0.00    +0.081 A 
ATOM     26  C   UNL     1      -4.221   1.641   2.655  0.00  0.00    +0.017 A 
ATOM     27  C   UNL     1      -4.529   0.338   2.334  0.00  0.00    +0.001 A 
ATOM     28  C   UNL     1      -3.583  -0.477   1.731  0.00  0.00    +0.002 A 
ATOM     29  C   UNL     1      -2.323   0.007   1.446  0.00  0.00    +0.025 A 
ATOM     30  C   UNL     1      -1.993   1.319   1.762  0.00  0.00    +0.062 A 
BRANCH  30  31
ATOM     31  N   UNL     1      -0.726   1.808   1.476  0.00  0.00    -0.220 N 
ATOM     32  H   UNL     1      -0.302   2.439   2.079  0.00  0.00    +0.173 HD
BRANCH  31  33
ATOM     33  S   UNL     1       0.063   1.314   0.106  0.00  0.00    +0.040 S 
ATOM     34  O   UNL     1       0.100  -0.103   0.201  0.00  0.00    -0.155 OA
ATOM     35  O   UNL     1       1.266   2.071   0.088  0.00  0.00    -0.155 OA
ATOM     36  C   UNL     1      -1.016   1.822  -1.261  0.00  0.00    +0.218 C 
ENDBRANCH  31  33
ENDBRANCH  30  31
ENDBRANCH  23  25
ENDBRANCH  22  23
ENDBRANCH  21  22
ENDBRANCH   1  21
TORSDOF 8
