REMARK  Name = ZINC10271795
REMARK  8 active torsions:
REMARK  status: ('A' for Active; 'I' for Inactive)
REMARK    1  A    between atoms: C_3  and  S_6
REMARK    2  A    between atoms: S_6  and  N_9
REMARK    3  A    between atoms: N_9  and  C_10
REMARK    4  A    between atoms: C_13  and  C_16
REMARK    5  A    between atoms: N_18  and  C_19
REMARK    6  A    between atoms: C_19  and  C_20
REMARK    7  A    between atoms: C_23  and  S_25
REMARK    8  A    between atoms: S_25  and  N_28
REMARK                            x       y       z     vdW  Elec       q    Type
REMARK                         _______ _______ _______ _____ _____    ______ ____
ROOT
ATOM      1  C   UNL     1       6.688  -1.372  -5.750  0.00  0.00    +0.048 A 
ATOM      2  C   UNL     1       7.478  -1.603  -4.627  0.00  0.00    +0.025 A 
ATOM      3  C   UNL     1       6.942  -1.465  -3.367  0.00  0.00    +0.015 A 
ATOM      4  C   UNL     1       5.603  -1.093  -3.216  0.00  0.00    +0.037 A 
ATOM      5  C   UNL     1       4.811  -0.867  -4.346  0.00  0.00    +0.015 A 
ATOM      6  C   UNL     1       5.355  -1.000  -5.603  0.00  0.00    +0.025 A 
ENDROOT
BRANCH   4   7
ATOM      7  C   UNL     1       5.025  -0.945  -1.867  0.00  0.00    +0.244 C 
ATOM      8  O   UNL     1       5.713  -1.146  -0.885  0.00  0.00    -0.270 OA
ATOM      9  N   UNL     1       3.734  -0.585  -1.722  0.00  0.00    -0.307 N 
ATOM     10  H   UNL     1       3.185  -0.424  -2.505  0.00  0.00    +0.149 HD
BRANCH   9  11
ATOM     11  C   UNL     1       3.160  -0.438  -0.382  0.00  0.00    +0.147 C 
BRANCH  11  12
ATOM     12  C   UNL     1       1.713  -0.033  -0.497  0.00  0.00    +0.009 A 
ATOM     13  C   UNL     1       0.611  -0.817  -0.572  0.00  0.00    +0.015 A 
ATOM     14  C   UNL     1      -0.632  -0.219  -0.673  0.00  0.00    +0.036 A 
ATOM     15  C   UNL     1      -0.710   1.134  -0.695  0.00  0.00    +0.142 A 
ATOM     16  S   UNL     1       1.007   1.605  -0.569  0.00  0.00    -0.072 S 
BRANCH  15  17
ATOM     17  S   UNL     1      -2.137   2.160  -0.821  0.00  0.00    +0.062 S 
ATOM     18  O   UNL     1      -1.697   3.403  -1.352  0.00  0.00    -0.153 OA
ATOM     19  O   UNL     1      -3.145   1.379  -1.446  0.00  0.00    -0.153 OA
BRANCH  17  20
ATOM     20  N   UNL     1      -2.660   2.463   0.721  0.00  0.00    -0.203 NA
ATOM     21  H   UNL     1      -2.184   2.087   1.477  0.00  0.00    +0.144 HD
ATOM     22  H   UNL     1      -3.443   3.017   0.867  0.00  0.00    +0.144 HD
ENDBRANCH  17  20
ENDBRANCH  15  17
ENDBRANCH  11  12
ENDBRANCH   9  11
ENDBRANCH   4   7
BRANCH   1  23
ATOM     23  N   UNL     1       7.233  -1.512  -7.022  0.00  0.00    -0.216 N 
ATOM     24  H   UNL     1       7.452  -0.725  -7.545  0.00  0.00    +0.174 HD
BRANCH  23  25
ATOM     25  S   UNL     1       7.508  -3.022  -7.643  0.00  0.00    +0.079 S 
ATOM     26  O   UNL     1       8.018  -2.834  -8.956  0.00  0.00    -0.149 OA
ATOM     27  O   UNL     1       8.216  -3.748  -6.648  0.00  0.00    -0.149 OA
BRANCH  25  30
ATOM     28  C   UNL     1       3.936  -4.551  -8.816  0.00  0.00    +0.010 A 
ATOM     29  C   UNL     1       5.136  -3.873  -8.909  0.00  0.00    +0.036 A 
ATOM     30  C   UNL     1       5.940  -3.806  -7.819  0.00  0.00    +0.146 A 
ATOM     31  S   UNL     1       5.001  -4.726  -6.611  0.00  0.00    -0.077 S 
ATOM     32  C   UNL     1       3.597  -5.130  -7.638  0.00  0.00    +0.047 A 
ENDBRANCH  25  30
ENDBRANCH  23  25
ENDBRANCH   1  23
TORSDOF 8
