REMARK  Name = ZINC13032215
REMARK  14 active torsions:
REMARK  status: ('A' for Active; 'I' for Inactive)
REMARK    1  A    between atoms: C_1  and  C_2
REMARK    2  A    between atoms: C_2  and  C_3
REMARK    3  A    between atoms: C_3  and  C_4
REMARK    4  A    between atoms: C_3  and  C_5
REMARK    5  A    between atoms: C_3  and  N_6
REMARK    6  A    between atoms: C_7  and  C_9
REMARK    7  A    between atoms: C_9  and  C_11
REMARK    8  A    between atoms: C_9  and  N_17
REMARK    9  A    between atoms: C_14  and  C_16
REMARK   10  A    between atoms: N_17  and  C_18
REMARK   11  A    between atoms: C_22  and  C_25
REMARK   12  A    between atoms: C_23  and  C_24
REMARK   13  A    between atoms: C_26  and  C_28
REMARK   14  A    between atoms: C_28  and  N_29
REMARK                            x       y       z     vdW  Elec       q    Type
REMARK                         _______ _______ _______ _____ _____    ______ ____
ROOT
ATOM      1  N   UNL     1      -5.046   3.454  -2.130  0.00  0.00    -0.251 N 
ATOM      2  C   UNL     1      -3.719   3.691  -2.142  0.00  0.00    +0.242 C 
ATOM      3  O   UNL     1      -3.094   3.583  -3.175  0.00  0.00    -0.273 OA
ENDROOT
BRANCH   1   4
ATOM      4  C   UNL     1      -5.768   3.579  -0.937  0.00  0.00    +0.041 A 
ATOM      5  C   UNL     1      -5.969   2.469  -0.127  0.00  0.00    +0.024 A 
ATOM      6  C   UNL     1      -6.677   2.596   1.052  0.00  0.00    +0.002 A 
ATOM      7  C   UNL     1      -7.195   3.824   1.421  0.00  0.00    +0.004 A 
ATOM      8  C   UNL     1      -7.001   4.929   0.613  0.00  0.00    -0.046 A 
ATOM      9  C   UNL     1      -6.289   4.810  -0.565  0.00  0.00    -0.026 A 
ATOM     10  C   UNL     1      -6.079   6.016  -1.444  0.00  0.00    +0.046 C 
ATOM     11  C   UNL     1      -7.567   6.266   1.018  0.00  0.00    +0.044 C 
ENDBRANCH   1   4
BRANCH   1  12
ATOM     12  C   UNL     1      -5.733   3.067  -3.365  0.00  0.00    +0.233 C 
BRANCH  12  13
ATOM     13  C   UNL     1      -6.904   3.987  -3.598  0.00  0.00    +0.135 A 
ATOM     14  C   UNL     1      -7.169   4.649  -4.738  0.00  0.00    +0.047 A 
ATOM     15  C   UNL     1      -8.355   5.386  -4.517  0.00  0.00    +0.045 A 
ATOM     16  C   UNL     1      -8.739   5.137  -3.252  0.00  0.00    +0.102 A 
ATOM     17  O   UNL     1      -7.856   4.289  -2.700  0.00  0.00    -0.462 OA
ATOM     18  C   UNL     1      -9.954   5.712  -2.570  0.00  0.00    +0.086 C 
ENDBRANCH  12  13
BRANCH  12  20
ATOM     19  N   UNL     1      -6.926   1.089  -4.248  0.00  0.00    -0.308 N 
ATOM     20  C   UNL     1      -6.225   1.648  -3.242  0.00  0.00    +0.242 C 
ATOM     21  O   UNL     1      -5.990   1.009  -2.239  0.00  0.00    -0.273 OA
ATOM     22  H   UNL     1      -7.114   1.600  -5.051  0.00  0.00    +0.149 HD
BRANCH  19  23
ATOM     23  C   UNL     1      -7.404  -0.290  -4.130  0.00  0.00    +0.029 C 
ATOM     24  C   UNL     1      -6.211  -1.230  -3.944  0.00  0.00    +0.031 C 
ATOM     25  C   UNL     1      -8.336  -0.405  -2.921  0.00  0.00    +0.031 C 
BRANCH  23  27
ATOM     26  C   UNL     1      -8.665  -2.118  -5.275  0.00  0.00    +0.006 C 
ATOM     27  C   UNL     1      -8.166  -0.677  -5.399  0.00  0.00    +0.022 C 
ENDBRANCH  23  27
ENDBRANCH  19  23
ENDBRANCH  12  20
ENDBRANCH   1  12
BRANCH   2  28
ATOM     28  C   UNL     1      -3.013   4.089  -0.871  0.00  0.00    +0.242 C 
BRANCH  28  29
ATOM     29  N   UNL     1      -1.588   4.287  -1.146  0.00  0.00    -0.235 N 
ATOM     30  C   UNL     1      -0.597   3.337  -1.075  0.00  0.00    +0.090 A 
ATOM     31  C   UNL     1      -0.576   1.984  -0.757  0.00  0.00    +0.029 A 
ATOM     32  C   UNL     1       0.607   1.299  -0.775  0.00  0.00    +0.002 A 
ATOM     33  C   UNL     1       1.789   1.941  -1.119  0.00  0.00    +0.002 A 
ATOM     34  C   UNL     1       1.796   3.267  -1.440  0.00  0.00    +0.032 A 
ATOM     35  C   UNL     1       0.597   3.993  -1.424  0.00  0.00    +0.113 A 
ATOM     36  N   UNL     1       0.295   5.280  -1.686  0.00  0.00    -0.129 NA
ATOM     37  N   UNL     1      -0.966   5.483  -1.534  0.00  0.00    -0.064 NA
ENDBRANCH  28  29
ENDBRANCH   2  28
TORSDOF 8
