REMARK  Name = ZINC36612902
REMARK  15 active torsions:
REMARK  status: ('A' for Active; 'I' for Inactive)
REMARK    1  A    between atoms: C_1  and  C_2
REMARK    2  A    between atoms: C_2  and  C_3
REMARK    3  A    between atoms: C_2  and  C_4
REMARK    4  A    between atoms: C_2  and  C_5
REMARK    5  A    between atoms: C_5  and  C_6
REMARK    6  A    between atoms: C_6  and  C_7
REMARK    7  A    between atoms: C_6  and  C_8
REMARK    8  A    between atoms: C_6  and  N_9
REMARK    9  A    between atoms: N_9  and  C_10
REMARK   10  A    between atoms: C_10  and  C_11
REMARK   11  A    between atoms: C_13  and  O_23
REMARK   12  A    between atoms: C_14  and  O_18
REMARK   13  A    between atoms: O_18  and  C_19
REMARK   14  A    between atoms: C_19  and  C_20
REMARK   15  A    between atoms: O_23  and  C_24
REMARK                            x       y       z     vdW  Elec       q    Type
REMARK                         _______ _______ _______ _____ _____    ______ ____
ROOT
ATOM      1  C   UNL     1       4.386  -0.221  -3.522  0.00  0.00    -0.060 A 
ATOM      2  C   UNL     1       5.131  -1.383  -3.441  0.00  0.00    +0.051 A 
ATOM      3  C   UNL     1       5.778  -1.872  -4.564  0.00  0.00    +0.163 A 
ATOM      4  C   UNL     1       5.676  -1.191  -5.774  0.00  0.00    +0.176 A 
ATOM      5  C   UNL     1       4.928  -0.027  -5.849  0.00  0.00    +0.059 A 
ATOM      6  C   UNL     1       4.280   0.452  -4.724  0.00  0.00    +0.020 A 
ATOM      7  I   UNL     1       4.771   1.002  -7.667  0.00  0.00    -0.040 I 
ENDROOT
BRANCH   3   8
ATOM      8  O   UNL     1       6.512  -3.014  -4.485  0.00  0.00    -0.491 OA
ATOM      9  C   UNL     1       6.573  -3.659  -3.212  0.00  0.00    +0.277 C 
ENDBRANCH   3   8
BRANCH   1  10
ATOM     10  C   UNL     1       3.682   0.308  -2.299  0.00  0.00    -0.046 C 
BRANCH  10  11
ATOM     11  N   UNL     1       2.333  -0.268  -2.223  0.00  0.00    +0.385 N 
ATOM     12  H   UNL     1       2.400  -1.273  -2.164  0.00  0.00    -0.085 HD
ATOM     13  H   UNL     1       1.811  -0.013  -3.047  0.00  0.00    -0.085 HD
BRANCH  11  14
ATOM     14  C   UNL     1       1.648   0.248  -1.030  0.00  0.00    -0.073 C 
ATOM     15  C   UNL     1       1.346   1.736  -1.220  0.00  0.00    -0.010 C 
ATOM     16  C   UNL     1       2.545   0.061   0.195  0.00  0.00    -0.010 C 
BRANCH  14  17
ATOM     17  C   UNL     1       0.338  -0.516  -0.825  0.00  0.00    -0.007 C 
BRANCH  17  19
ATOM     18  C   UNL     1       0.519  -1.831  -2.941  0.00  0.00    +0.010 C 
ATOM     19  C   UNL     1      -0.310  -0.793  -2.183  0.00  0.00    -0.039 C 
ATOM     20  C   UNL     1      -0.368   0.504  -2.994  0.00  0.00    +0.010 C 
ATOM     21  C   UNL     1      -1.728  -1.327  -1.972  0.00  0.00    +0.010 C 
ENDBRANCH  17  19
ENDBRANCH  14  17
ENDBRANCH  11  14
ENDBRANCH  10  11
ENDBRANCH   1  10
BRANCH   4  22
ATOM     22  O   UNL     1       6.310  -1.666  -6.879  0.00  0.00    -0.478 OA
BRANCH  22  23
ATOM     23  C   UNL     1       5.580  -2.577  -7.704  0.00  0.00    +0.324 C 
BRANCH  23  24
ATOM     24  C   UNL     1       6.436  -2.993  -8.872  0.00  0.00    +0.248 C 
ATOM     25  O   UNL     1       7.561  -2.553  -8.987  0.00  0.00    -0.272 OA
ATOM     26  N   UNL     1       5.952  -3.854  -9.789  0.00  0.00    -0.327 N 
ATOM     27  H   UNL     1       5.053  -4.205  -9.698  0.00  0.00    +0.145 HD
ATOM     28  H   UNL     1       6.504  -4.122 -10.541  0.00  0.00    +0.145 HD
ENDBRANCH  23  24
ENDBRANCH  22  23
ENDBRANCH   4  22
TORSDOF 9
