REMARK  Name = ZINC04905034
REMARK  4 active torsions:
REMARK  status: ('A' for Active; 'I' for Inactive)
REMARK    1  A    between atoms: C_3  and  C_8
REMARK    2  A    between atoms: C_10  and  C_20
REMARK    3  A    between atoms: C_15  and  N_19
REMARK    4  A    between atoms: C_16  and  C_17
REMARK                            x       y       z     vdW  Elec       q    Type
REMARK                         _______ _______ _______ _____ _____    ______ ____
ROOT
ATOM      1  C   UNL     1       3.672   2.183  -0.022  0.00  0.00    +0.085 C 
ATOM      2  C   UNL     1       4.421   1.859  -1.308  0.00  0.00    +0.159 C 
ATOM      3  C   UNL     1       5.788   2.519  -1.257  0.00  0.00    +0.089 C 
ATOM      4  N   UNL     1       6.139   3.438  -2.096  0.00  0.00    -0.296 NA
ATOM      5  S   UNL     1       6.872   1.949   0.025  0.00  0.00    -0.058 S 
ATOM      6  C   UNL     1       5.757   1.755   1.380  0.00  0.00    +0.079 C 
ATOM      7  C   UNL     1       4.427   1.854   1.216  0.00  0.00    +0.066 C 
ATOM      8  H   UNL     1       5.521   3.727  -2.786  0.00  0.00    +0.187 HD
ENDROOT
BRANCH   1  11
ATOM      9  C   UNL     1      -0.017   1.378   0.010  0.00  0.00    +0.001 A 
ATOM     10  C   UNL     1       1.171   2.086   0.002  0.00  0.00    +0.004 A 
ATOM     11  C   UNL     1       2.377   1.411  -0.013  0.00  0.00    -0.037 A 
ATOM     12  C   UNL     1       2.397   0.029  -0.021  0.00  0.00    +0.018 A 
ATOM     13  C   UNL     1       1.209  -0.679  -0.013  0.00  0.00    +0.014 A 
ATOM     14  C   UNL     1       0.002  -0.004   0.002  0.00  0.00    +0.014 A 
ATOM     15  I   UNL     1       1.238  -2.774  -0.025  0.00  0.00    -0.044 I 
ENDBRANCH   1  11
BRANCH   6  16
ATOM     16  N   UNL     1       6.261   1.493   2.632  0.00  0.00    -0.352 N 
ATOM     17  H   UNL     1       7.220   1.417   2.762  0.00  0.00    +0.143 HD
ATOM     18  H   UNL     1       5.659   1.384   3.384  0.00  0.00    +0.143 HD
ENDBRANCH   6  16
BRANCH   7  19
ATOM     19  C   UNL     1       3.636   1.617   2.386  0.00  0.00    +0.098 C 
ATOM     20  N   UNL     1       3.009   1.428   3.314  0.00  0.00    -0.191 NA
ENDBRANCH   7  19
BRANCH   2  21
ATOM     21  C   UNL     1       4.578   0.401  -1.434  0.00  0.00    +0.074 C 
ATOM     22  N   UNL     1       4.699  -0.725  -1.531  0.00  0.00    -0.196 NA
ENDBRANCH   2  21
TORSDOF 4
