REMARK  Name = ZINC20528705
REMARK  9 active torsions:
REMARK  status: ('A' for Active; 'I' for Inactive)
REMARK    1  A    between atoms: C_1  and  C_2
REMARK    2  A    between atoms: C_2  and  C_3
REMARK    3  A    between atoms: C_2  and  C_4
REMARK    4  A    between atoms: C_4  and  C_5
REMARK    5  A    between atoms: N_10  and  C_13
REMARK    6  A    between atoms: C_16  and  N_20
REMARK    7  A    between atoms: C_21  and  C_23
REMARK    8  A    between atoms: C_24  and  C_25
REMARK    9  A    between atoms: C_29  and  N_31
REMARK                            x       y       z     vdW  Elec       q    Type
REMARK                         _______ _______ _______ _____ _____    ______ ____
ROOT
ATOM      1  C   UNL     1      -2.337  12.259  -0.181  0.00  0.00    +0.048 A 
ATOM      2  C   UNL     1      -1.154  11.532  -0.202  0.00  0.00    +0.026 A 
ATOM      3  C   UNL     1      -1.189  10.154  -0.114  0.00  0.00    +0.025 A 
ATOM      4  C   UNL     1      -2.408   9.495  -0.016  0.00  0.00    +0.035 A 
ATOM      5  C   UNL     1      -3.591  10.221   0.005  0.00  0.00    +0.045 A 
ATOM      6  C   UNL     1      -3.556  11.600  -0.077  0.00  0.00    +0.064 A 
ATOM      7 CL   UNL     1      -5.035  12.509  -0.051  0.00  0.00    -0.082 Cl
ENDROOT
BRANCH   1  13
ATOM      8  C   UNL     1      -0.379  17.228  -0.645  0.00  0.00    +0.216 C 
ATOM      9  O   UNL     1       0.124  17.733   0.337  0.00  0.00    -0.276 OA
ATOM     10  N   UNL     1      -1.284  16.239  -0.506  0.00  0.00    -0.298 N 
ATOM     11  C   UNL     1      -1.676  15.757   0.827  0.00  0.00    +0.126 C 
ATOM     12  C   UNL     1      -1.540  14.231   0.853  0.00  0.00    +0.124 C 
ATOM     13  N   UNL     1      -2.301  13.656  -0.265  0.00  0.00    -0.326 N 
ATOM     14  C   UNL     1      -1.760  14.092  -1.558  0.00  0.00    +0.124 C 
ATOM     15  C   UNL     1      -1.905  15.612  -1.683  0.00  0.00    +0.126 C 
BRANCH   8  16
ATOM     16  C   UNL     1       0.009  17.706  -2.020  0.00  0.00    +0.099 C 
BRANCH  16  18
ATOM     17  C   UNL     1       2.331  18.267  -1.286  0.00  0.00    +0.008 C 
ATOM     18  C   UNL     1       1.045  18.826  -1.898  0.00  0.00    -0.008 C 
ATOM     19  C   UNL     1       1.346  19.396  -3.285  0.00  0.00    +0.008 C 
ENDBRANCH  16  18
ENDBRANCH   8  16
ENDBRANCH   1  13
BRANCH   4  20
ATOM     20  N   UNL     1      -2.443   8.097   0.067  0.00  0.00    -0.282 N 
ATOM     21  C   UNL     1      -3.449   7.413  -0.513  0.00  0.00    +0.241 C 
ATOM     22  O   UNL     1      -4.370   8.012  -1.036  0.00  0.00    -0.270 OA
ATOM     23  H   UNL     1      -1.649   7.558   0.606  0.00  0.00    +0.155 HD
BRANCH  21  24
ATOM     24  C   UNL     1      -3.433   5.949  -0.513  0.00  0.00    +0.068 C 
ATOM     25  C   UNL     1      -4.439   5.264  -1.093  0.00  0.00    +0.013 C 
BRANCH  25  26
ATOM     26  C   UNL     1      -4.423   3.792  -1.094  0.00  0.00    -0.023 A 
ATOM     27  C   UNL     1      -3.366   3.100  -0.494  0.00  0.00    +0.008 A 
ATOM     28  C   UNL     1      -3.361   1.722  -0.494  0.00  0.00    +0.003 A 
ATOM     29  C   UNL     1      -4.393   1.022  -1.096  0.00  0.00    +0.033 A 
ATOM     30  C   UNL     1      -5.442   1.699  -1.691  0.00  0.00    +0.127 A 
ATOM     31  C   UNL     1      -5.465   3.078  -1.694  0.00  0.00    +0.040 A 
BRANCH  30  32
ATOM     32  N   UNL     1      -6.544   0.942  -2.327  0.00  0.00    +0.056 N 
ATOM     33  O   UNL     1      -6.526  -0.276  -2.325  0.00  0.00    -0.126 OA
ATOM     34  O   UNL     1      -7.468   1.536  -2.851  0.00  0.00    -0.126 OA
ENDBRANCH  30  32
ENDBRANCH  25  26
ENDBRANCH  21  24
ENDBRANCH   4  20
TORSDOF 7
