REMARK  Name = ZINC44877689
REMARK  12 active torsions:
REMARK  status: ('A' for Active; 'I' for Inactive)
REMARK    1  A    between atoms: C_1  and  C_2
REMARK    2  A    between atoms: C_2  and  C_3
REMARK    3  A    between atoms: C_8  and  N_9
REMARK    4  A    between atoms: N_9  and  C_10
REMARK    5  A    between atoms: N_9  and  S_30
REMARK    6  A    between atoms: C_10  and  C_11
REMARK    7  A    between atoms: N_13  and  C_14
REMARK    8  A    between atoms: C_14  and  C_15
REMARK    9  A    between atoms: C_18  and  C_21
REMARK   10  A    between atoms: C_21  and  N_22
REMARK   11  A    between atoms: C_26  and  C_29
REMARK   12  A    between atoms: S_30  and  C_33
REMARK                            x       y       z     vdW  Elec       q    Type
REMARK                         _______ _______ _______ _____ _____    ______ ____
ROOT
ATOM      1  C   UNL     1       4.362   0.979  -2.032  0.00  0.00    +0.232 C 
ATOM      2  O   UNL     1       4.691   1.635  -1.066  0.00  0.00    -0.274 OA
ATOM      3  N   UNL     1       4.929   1.215  -3.231  0.00  0.00    -0.310 N 
ATOM      4  H   UNL     1       4.666   0.691  -4.004  0.00  0.00    +0.149 HD
ENDROOT
BRANCH   1   5
ATOM      5  C   UNL     1       3.319  -0.099  -1.890  0.00  0.00    +0.227 C 
BRANCH   5   6
ATOM      6  N   UNL     1       2.742  -0.046  -0.545  0.00  0.00    -0.194 N 
BRANCH   6  12
ATOM      7  C   UNL     1       0.433   0.599  -0.823  0.00  0.00    -0.025 A 
ATOM      8  C   UNL     1      -0.610   1.462  -0.546  0.00  0.00    +0.005 A 
ATOM      9  C   UNL     1      -0.404   2.555   0.275  0.00  0.00    +0.000 A 
ATOM     10  C   UNL     1       0.844   2.789   0.822  0.00  0.00    +0.002 A 
ATOM     11  C   UNL     1       1.891   1.930   0.549  0.00  0.00    +0.025 A 
ATOM     12  C   UNL     1       1.687   0.827  -0.271  0.00  0.00    +0.055 A 
BRANCH   7  14
ATOM     13  C   UNL     1      -1.262  -0.646  -2.137  0.00  0.00    +0.009 C 
ATOM     14  C   UNL     1       0.208  -0.592  -1.718  0.00  0.00    +0.033 C 
ENDBRANCH   7  14
ENDBRANCH   6  12
BRANCH   6  15
ATOM     15  S   UNL     1       3.340  -1.022   0.652  0.00  0.00    +0.075 S 
ATOM     16  O   UNL     1       3.321  -0.256   1.848  0.00  0.00    -0.150 OA
ATOM     17  O   UNL     1       2.666  -2.268   0.534  0.00  0.00    -0.150 OA
BRANCH  15  18
ATOM     18  C   UNL     1       5.034  -1.329   0.276  0.00  0.00    +0.109 A 
ATOM     19  C   UNL     1       5.388  -2.446  -0.457  0.00  0.00    +0.029 A 
ATOM     20  C   UNL     1       6.717  -2.687  -0.752  0.00  0.00    +0.002 A 
ATOM     21  C   UNL     1       7.692  -1.809  -0.314  0.00  0.00    +0.000 A 
ATOM     22  C   UNL     1       7.337  -0.691   0.418  0.00  0.00    +0.002 A 
ATOM     23  C   UNL     1       6.008  -0.449   0.709  0.00  0.00    +0.029 A 
ENDBRANCH  15  18
ENDBRANCH   6  15
ENDBRANCH   5   6
ENDBRANCH   1   5
BRANCH   3  24
ATOM     24  C   UNL     1       5.943   2.263  -3.369  0.00  0.00    +0.139 C 
BRANCH  24  25
ATOM     25  C   UNL     1       6.413   2.322  -4.800  0.00  0.00    -0.030 A 
ATOM     26  C   UNL     1       7.483   1.548  -5.208  0.00  0.00    +0.005 A 
ATOM     27  C   UNL     1       7.915   1.603  -6.520  0.00  0.00    +0.002 A 
ATOM     28  C   UNL     1       7.276   2.431  -7.424  0.00  0.00    -0.064 A 
ATOM     29  C   UNL     1       6.205   3.205  -7.016  0.00  0.00    +0.002 A 
ATOM     30  C   UNL     1       5.771   3.147  -5.705  0.00  0.00    +0.005 A 
BRANCH  28  31
ATOM     31  C   UNL     1       7.747   2.491  -8.854  0.00  0.00    -0.043 C 
BRANCH  31  32
ATOM     32  N   UNL     1       7.032   1.483  -9.648  0.00  0.00    +0.383 N 
ATOM     33  C   UNL     1       7.389   0.142  -9.169  0.00  0.00    -0.078 C 
ATOM     34  C   UNL     1       6.586  -0.909  -9.938  0.00  0.00    -0.018 C 
ATOM     35  C   UNL     1       6.906  -0.797 -11.431  0.00  0.00    -0.001 C 
ATOM     36  C   UNL     1       6.600   0.627 -11.903  0.00  0.00    -0.031 C 
ATOM     37  C   UNL     1       7.402   1.621 -11.062  0.00  0.00    -0.075 C 
ATOM     38  C   UNL     1       6.989   0.772 -13.376  0.00  0.00    +0.005 C 
ATOM     39  H   UNL     1       6.037   1.620  -9.547  0.00  0.00    -0.081 HD
ENDBRANCH  31  32
ENDBRANCH  28  31
ENDBRANCH  24  25
ENDBRANCH   3  24
TORSDOF 10
