REMARK  Name = ZINC67264045
REMARK  5 active torsions:
REMARK  status: ('A' for Active; 'I' for Inactive)
REMARK    1  A    between atoms: C_3  and  N_12
REMARK    2  A    between atoms: C_6  and  C_7
REMARK    3  A    between atoms: C_7  and  N_8
REMARK    4  A    between atoms: C_13  and  C_15
REMARK    5  A    between atoms: C_16  and  C_17
REMARK                            x       y       z     vdW  Elec       q    Type
REMARK                         _______ _______ _______ _____ _____    ______ ____
ROOT
ATOM      1  C   UNL     1      -0.013   1.375  -0.180  0.00  0.00    +0.007 A 
ATOM      2  C   UNL     1       1.174   2.081  -0.183  0.00  0.00    +0.023 A 
ATOM      3  C   UNL     1       2.380   1.411  -0.018  0.00  0.00    +0.034 A 
ATOM      4  C   UNL     1       2.387   0.032   0.149  0.00  0.00    +0.023 A 
ATOM      5  C   UNL     1       1.197  -0.668   0.151  0.00  0.00    +0.007 A 
ATOM      6  C   UNL     1      -0.002   0.002  -0.014  0.00  0.00    -0.030 A 
ENDROOT
BRANCH   3   7
ATOM      7  N   UNL     1       3.583   2.123  -0.021  0.00  0.00    -0.282 N 
ATOM      8  C   UNL     1       3.627   3.374   0.478  0.00  0.00    +0.241 C 
ATOM      9  O   UNL     1       2.645   3.849   1.018  0.00  0.00    -0.270 OA
ATOM     10  H   UNL     1       4.386   1.716  -0.382  0.00  0.00    +0.155 HD
BRANCH   8  11
ATOM     11  C   UNL     1       4.856   4.162   0.371  0.00  0.00    +0.068 C 
ATOM     12  C   UNL     1       4.900   5.414   0.870  0.00  0.00    +0.013 C 
BRANCH  12  13
ATOM     13  C   UNL     1       6.136   6.206   0.763  0.00  0.00    -0.025 A 
ATOM     14  C   UNL     1       7.264   5.665   0.138  0.00  0.00    +0.009 A 
ATOM     15  C   UNL     1       8.418   6.413   0.040  0.00  0.00    +0.020 A 
ATOM     16  C   UNL     1       8.461   7.697   0.559  0.00  0.00    +0.041 A 
ATOM     17  C   UNL     1       7.347   8.238   1.180  0.00  0.00    +0.020 A 
ATOM     18  C   UNL     1       6.185   7.504   1.280  0.00  0.00    +0.009 A 
ATOM     19 CL   UNL     1       9.919   8.631   0.432  0.00  0.00    -0.084 Cl
ENDBRANCH  12  13
ENDBRANCH   8  11
ENDBRANCH   3   7
BRANCH   6  20
ATOM     20  C   UNL     1      -1.299  -0.765  -0.011  0.00  0.00    +0.141 C 
BRANCH  20  21
ATOM     21  N   UNL     1      -1.624  -1.179  -1.378  0.00  0.00    -0.295 N 
ATOM     22  C   UNL     1      -2.748  -1.883  -1.620  0.00  0.00    +0.297 C 
ATOM     23  O   UNL     1      -3.491  -2.175  -0.703  0.00  0.00    -0.253 OA
ATOM     24  N   UNL     1      -3.047  -2.264  -2.878  0.00  0.00    -0.313 N 
ATOM     25  H   UNL     1      -1.031  -0.946  -2.110  0.00  0.00    +0.151 HD
ATOM     26  H   UNL     1      -2.454  -2.031  -3.609  0.00  0.00    +0.146 HD
ATOM     27  H   UNL     1      -3.855  -2.771  -3.052  0.00  0.00    +0.146 HD
ENDBRANCH  20  21
ENDBRANCH   6  20
TORSDOF 5
