REMARK  Name = ZINC45067944
REMARK  5 active torsions:
REMARK  status: ('A' for Active; 'I' for Inactive)
REMARK    1  A    between atoms: C_1  and  C_2
REMARK    2  A    between atoms: C_3  and  N_11
REMARK    3  A    between atoms: N_11  and  S_12
REMARK    4  A    between atoms: S_12  and  C_15
REMARK    5  A    between atoms: C_18  and  N_21
REMARK                            x       y       z     vdW  Elec       q    Type
REMARK                         _______ _______ _______ _____ _____    ______ ____
ROOT
ATOM      1  S   UNL     1       0.417   1.253  -2.759  0.00  0.00    +0.093 S 
ATOM      2  O   UNL     1      -0.724   1.925  -2.242  0.00  0.00    -0.148 OA
ATOM      3  O   UNL     1       1.740   1.581  -2.359  0.00  0.00    -0.148 OA
ENDROOT
BRANCH   1   4
ATOM      4  C   UNL     1       0.359   1.437  -4.510  0.00  0.00    +0.111 A 
ATOM      5  C   UNL     1       1.521   1.338  -5.253  0.00  0.00    +0.030 A 
ATOM      6  C   UNL     1       1.480   1.482  -6.625  0.00  0.00    +0.024 A 
ATOM      7  C   UNL     1       0.268   1.726  -7.260  0.00  0.00    +0.025 A 
ATOM      8  C   UNL     1      -0.897   1.825  -6.511  0.00  0.00    +0.024 A 
ATOM      9  C   UNL     1      -0.849   1.674  -5.139  0.00  0.00    +0.030 A 
BRANCH   7  10
ATOM     10  N   UNL     1       0.223   1.872  -8.649  0.00  0.00    -0.358 N 
ATOM     11  H   UNL     1       1.037   1.804  -9.171  0.00  0.00    +0.142 HD
ATOM     12  H   UNL     1      -0.624   2.043  -9.091  0.00  0.00    +0.142 HD
ENDBRANCH   7  10
ENDBRANCH   1   4
BRANCH   1  13
ATOM     13  N   UNL     1       0.208  -0.357  -2.428  0.00  0.00    -0.077 NA
BRANCH  13  16
ATOM     14  C   UNL     1      -0.711  -3.177  -1.638  0.00  0.00    +0.069 C 
ATOM     15  C   UNL     1      -0.439  -2.011  -0.724  0.00  0.00    +0.082 A 
ATOM     16  C   UNL     1      -0.033  -0.776  -1.114  0.00  0.00    +0.170 A 
ATOM     17  N   UNL     1       0.096  -0.019   0.018  0.00  0.00    -0.285 N 
ATOM     18  C   UNL     1       0.470   1.281   0.225  0.00  0.00    +0.094 A 
ATOM     19  C   UNL     1       0.515   1.791   1.473  0.00  0.00    +0.018 A 
ATOM     20  C   UNL     1       0.178   0.992   2.580  0.00  0.00    +0.005 A 
ATOM     21  C   UNL     1      -0.196  -0.301   2.391  0.00  0.00    +0.047 A 
ATOM     22  C   UNL     1      -0.239  -0.824   1.082  0.00  0.00    +0.139 A 
ATOM     23  N   UNL     1      -0.564  -2.017   0.608  0.00  0.00    -0.231 NA
ENDBRANCH  13  16
ENDBRANCH   1  13
TORSDOF 4
