REMARK  Name = ZINC64995413
REMARK  10 active torsions:
REMARK  status: ('A' for Active; 'I' for Inactive)
REMARK    1  A    between atoms: C_1  and  C_2
REMARK    2  A    between atoms: C_2  and  C_3
REMARK    3  A    between atoms: C_3  and  C_4
REMARK    4  A    between atoms: C_4  and  N_5
REMARK    5  A    between atoms: C_6  and  C_8
REMARK    6  A    between atoms: C_11  and  C_26
REMARK    7  A    between atoms: N_12  and  C_14
REMARK    8  A    between atoms: C_14  and  C_15
REMARK    9  A    between atoms: N_17  and  C_18
REMARK   10  A    between atoms: C_19  and  C_23
REMARK                            x       y       z     vdW  Elec       q    Type
REMARK                         _______ _______ _______ _____ _____    ______ ____
ROOT
ATOM      1  C   UNL     1       2.269  -4.308  -3.932  0.00  0.00    +0.058 C 
ATOM      2  C   UNL     1       3.708  -3.783  -3.941  0.00  0.00    +0.009 C 
ATOM      3  C   UNL     1       4.459  -4.360  -2.738  0.00  0.00    -0.015 C 
ATOM      4  C   UNL     1       4.399  -5.888  -2.791  0.00  0.00    -0.071 C 
ATOM      5  N   UNL     1       2.999  -6.328  -2.753  0.00  0.00    +0.388 N 
ATOM      6  C   UNL     1       2.290  -5.838  -3.941  0.00  0.00    -0.065 C 
ATOM      7  C   UNL     1       5.149  -6.470  -1.591  0.00  0.00    -0.013 C 
ATOM      8  H   UNL     1       2.555  -5.963  -1.924  0.00  0.00    -0.081 HD
ENDROOT
BRANCH   1  10
ATOM      9  N   UNL     1       1.425  -2.500  -2.470  0.00  0.00    -0.315 N 
ATOM     10  C   UNL     1       1.564  -3.822  -2.692  0.00  0.00    +0.214 C 
ATOM     11  O   UNL     1       1.121  -4.620  -1.894  0.00  0.00    -0.276 OA
ATOM     12  H   UNL     1       1.779  -1.861  -3.109  0.00  0.00    +0.149 HD
BRANCH   9  13
ATOM     13  C   UNL     1       0.739  -2.027  -1.265  0.00  0.00    +0.104 C 
BRANCH  13  14
ATOM     14  C   UNL     1       0.718  -0.497  -1.257  0.00  0.00    +0.018 C 
BRANCH  14  16
ATOM     15  C   UNL     1      -0.019   1.526   0.010  0.00  0.00    +0.004 C 
ATOM     16  C   UNL     1       0.002  -0.004   0.002  0.00  0.00    -0.002 C 
ENDBRANCH  14  16
ENDBRANCH  13  14
ENDBRANCH   9  13
ENDBRANCH   1  10
BRANCH   5  17
ATOM     17  C   UNL     1       2.949  -7.796  -2.726  0.00  0.00    +0.019 C 
BRANCH  17  18
ATOM     18  C   UNL     1       1.521  -8.247  -2.563  0.00  0.00    +0.201 C 
ATOM     19  O   UNL     1       0.632  -7.427  -2.478  0.00  0.00    -0.278 OA
ATOM     20  N   UNL     1       1.231  -9.563  -2.512  0.00  0.00    -0.281 N 
ATOM     21  H   UNL     1       1.942 -10.219  -2.580  0.00  0.00    +0.155 HD
BRANCH  20  22
ATOM     22  C   UNL     1      -0.083  -9.978  -2.362  0.00  0.00    +0.084 A 
ATOM     23  C   UNL     1      -0.564 -11.277  -2.285  0.00  0.00    +0.065 A 
ATOM     24  C   UNL     1      -1.992 -11.430  -2.128  0.00  0.00    +0.022 A 
ATOM     25  C   UNL     1      -2.701 -10.287  -2.074  0.00  0.00    +0.048 A 
ATOM     26  S   UNL     1      -1.457  -9.024  -2.226  0.00  0.00    -0.081 S 
BRANCH  23  27
ATOM     27  C   UNL     1       0.332 -12.436  -2.359  0.00  0.00    +0.244 C 
ATOM     28  O   UNL     1       1.530 -12.271  -2.492  0.00  0.00    -0.270 OA
ATOM     29  N   UNL     1      -0.172 -13.683  -2.280  0.00  0.00    -0.325 N 
ATOM     30  H   UNL     1      -1.128 -13.814  -2.175  0.00  0.00    +0.145 HD
ATOM     31  H   UNL     1       0.420 -14.450  -2.329  0.00  0.00    +0.145 HD
ENDBRANCH  23  27
ENDBRANCH  20  22
ENDBRANCH  17  18
ENDBRANCH   5  17
TORSDOF 8
