REMARK  Name = ZINC40345612
REMARK  14 active torsions:
REMARK  status: ('A' for Active; 'I' for Inactive)
REMARK    1  A    between atoms: C_1  and  C_2
REMARK    2  A    between atoms: C_2  and  C_3
REMARK    3  A    between atoms: C_3  and  C_4
REMARK    4  A    between atoms: C_4  and  C_5
REMARK    5  A    between atoms: C_5  and  O_6
REMARK    6  A    between atoms: O_6  and  C_7
REMARK    7  A    between atoms: C_10  and  C_13
REMARK    8  A    between atoms: C_16  and  C_32
REMARK    9  A    between atoms: N_23  and  C_24
REMARK   10  A    between atoms: C_24  and  C_25
REMARK   11  A    between atoms: C_25  and  C_26
REMARK   12  A    between atoms: C_26  and  N_27
REMARK   13  A    between atoms: C_35  and  O_38
REMARK   14  A    between atoms: O_38  and  C_39
REMARK                            x       y       z     vdW  Elec       q    Type
REMARK                         _______ _______ _______ _____ _____    ______ ____
ROOT
ATOM      1  C   UNL     1       4.107  -6.522   6.773  0.00  0.00    +0.141 C 
ATOM      2  C   UNL     1       3.089  -7.048   7.748  0.00  0.00    +0.035 A 
ATOM      3  C   UNL     1       2.069  -6.774   8.602  0.00  0.00    +0.072 A 
ATOM      4  N   UNL     1       1.673  -7.968   9.135  0.00  0.00    -0.276 N 
ATOM      5  N   UNL     1       2.388  -8.921   8.653  0.00  0.00    -0.168 NA
ATOM      6  H   UNL     1       0.958  -8.079   9.781  0.00  0.00    +0.189 HD
ATOM      7  C   UNL     1       3.275  -8.448   7.801  0.00  0.00    +0.153 A 
ATOM      8  C   UNL     1       4.378  -8.793   6.886  0.00  0.00    +0.268 C 
ATOM      9  O   UNL     1       4.793  -9.920   6.694  0.00  0.00    -0.268 OA
ATOM     10  N   UNL     1       4.860  -7.686   6.292  0.00  0.00    -0.285 N 
ENDROOT
BRANCH   1  14
ATOM     11  C   UNL     1       2.146  -4.591   3.504  0.00  0.00    +0.121 A 
ATOM     12  C   UNL     1       2.722  -3.834   4.514  0.00  0.00    +0.046 A 
ATOM     13  C   UNL     1       3.355  -4.461   5.570  0.00  0.00    +0.009 A 
ATOM     14  C   UNL     1       3.415  -5.841   5.620  0.00  0.00    -0.022 A 
ATOM     15  C   UNL     1       2.842  -6.598   4.615  0.00  0.00    +0.009 A 
ATOM     16  C   UNL     1       2.202  -5.976   3.560  0.00  0.00    +0.046 A 
BRANCH  11  17
ATOM     17  O   UNL     1       1.522  -3.976   2.465  0.00  0.00    -0.492 OA
BRANCH  17  18
ATOM     18  C   UNL     1       1.503  -2.548   2.473  0.00  0.00    +0.229 C 
BRANCH  18  19
ATOM     19  C   UNL     1       0.763  -2.041   1.233  0.00  0.00    +0.041 C 
BRANCH  19  20
ATOM     20  C   UNL     1       0.742  -0.511   1.242  0.00  0.00    +0.003 C 
BRANCH  20  22
ATOM     21  C   UNL     1      -0.019   1.526   0.010  0.00  0.00    +0.004 C 
ATOM     22  C   UNL     1       0.002  -0.004   0.002  0.00  0.00    -0.003 C 
ENDBRANCH  20  22
ENDBRANCH  19  20
ENDBRANCH  18  19
ENDBRANCH  17  18
ENDBRANCH  11  17
ENDBRANCH   1  14
BRANCH   3  23
ATOM     23  C   UNL     1       1.499  -5.441   8.898  0.00  0.00    +0.000 A 
ATOM     24  C   UNL     1       2.343  -4.354   9.127  0.00  0.00    +0.013 A 
ATOM     25  C   UNL     1       1.808  -3.114   9.402  0.00  0.00    +0.046 A 
ATOM     26  C   UNL     1       0.430  -2.946   9.452  0.00  0.00    +0.120 A 
ATOM     27  C   UNL     1      -0.413  -4.025   9.225  0.00  0.00    +0.046 A 
ATOM     28  C   UNL     1       0.115  -5.267   8.943  0.00  0.00    +0.013 A 
BRANCH  26  29
ATOM     29  O   UNL     1      -0.094  -1.722   9.724  0.00  0.00    -0.495 OA
ATOM     30  C   UNL     1      -1.518  -1.619   9.759  0.00  0.00    +0.277 C 
ENDBRANCH  26  29
ENDBRANCH   3  23
BRANCH  10  31
ATOM     31  C   UNL     1       5.958  -7.649   5.323  0.00  0.00    +0.111 C 
BRANCH  31  32
ATOM     32  C   UNL     1       7.285  -7.469   6.063  0.00  0.00    +0.040 C 
BRANCH  32  33
ATOM     33  C   UNL     1       8.432  -7.429   5.051  0.00  0.00    +0.124 C 
BRANCH  33  34
ATOM     34  N   UNL     1       9.703  -7.258   5.759  0.00  0.00    -0.338 N 
ATOM     35  C   UNL     1      10.299  -6.068   6.080  0.00  0.00    +0.104 A 
ATOM     36  C   UNL     1      11.444  -6.368   6.723  0.00  0.00    +0.101 A 
ATOM     37  N   UNL     1      11.543  -7.703   6.793  0.00  0.00    -0.352 N 
ATOM     38  C   UNL     1      10.502  -8.243   6.221  0.00  0.00    +0.173 A 
ATOM     39  H   UNL     1      12.273  -8.191   7.206  0.00  0.00    +0.166 HD
ENDBRANCH  33  34
ENDBRANCH  32  33
ENDBRANCH  31  32
ENDBRANCH  10  31
TORSDOF 12
