REMARK  Name = ZINC21345766
REMARK  9 active torsions:
REMARK  status: ('A' for Active; 'I' for Inactive)
REMARK    1  A    between atoms: C_4  and  O_26
REMARK    2  A    between atoms: C_5  and  C_7
REMARK    3  A    between atoms: C_7  and  C_8
REMARK    4  A    between atoms: C_8  and  C_9
REMARK    5  A    between atoms: N_11  and  N_12
REMARK    6  A    between atoms: N_12  and  C_13
REMARK    7  A    between atoms: C_13  and  N_15
REMARK    8  A    between atoms: N_15  and  C_16
REMARK    9  A    between atoms: C_21  and  C_22
REMARK                            x       y       z     vdW  Elec       q    Type
REMARK                         _______ _______ _______ _____ _____    ______ ____
ROOT
ATOM      1  N   UNL     1       1.122   2.459  -0.230  0.00  0.00    -0.246 N 
ATOM      2  H   UNL     1       2.077   1.959  -0.446  0.00  0.00    +0.172 HD
ENDROOT
BRANCH   1   5
ATOM      3  C   UNL     1       2.245   4.537   0.064  0.00  0.00    +0.229 C 
ATOM      4  O   UNL     1       3.298   3.986  -0.174  0.00  0.00    -0.274 OA
ATOM      5  N   UNL     1       1.097   3.830   0.055  0.00  0.00    -0.235 N 
ATOM      6  H   UNL     1       0.142   4.330   0.271  0.00  0.00    +0.173 HD
BRANCH   3   7
ATOM      7  C   UNL     1       2.218   6.013   0.369  0.00  0.00    +0.102 C 
BRANCH   7   8
ATOM      8  C   UNL     1       3.642   6.571   0.315  0.00  0.00    +0.048 C 
BRANCH   8  13
ATOM      9  C   UNL     1       3.547  10.319  -0.130  0.00  0.00    +0.000 A 
ATOM     10  C   UNL     1       3.568  10.756   1.182  0.00  0.00    +0.004 A 
ATOM     11  C   UNL     1       3.614   9.841   2.216  0.00  0.00    +0.045 A 
ATOM     12  C   UNL     1       3.638   8.482   1.937  0.00  0.00    +0.120 A 
ATOM     13  C   UNL     1       3.616   8.046   0.621  0.00  0.00    -0.005 A 
ATOM     14  C   UNL     1       3.575   8.965  -0.410  0.00  0.00    +0.007 A 
BRANCH  12  15
ATOM     15  O   UNL     1       3.683   7.580   2.953  0.00  0.00    -0.506 OA
ATOM     16  H   UNL     1       3.702   6.503   2.731  0.00  0.00    +0.292 HD
ENDBRANCH  12  15
ENDBRANCH   8  13
ENDBRANCH   7   8
ENDBRANCH   3   7
ENDBRANCH   1   5
BRANCH   1  17
ATOM     17  C   UNL     1      -0.026   1.752  -0.239  0.00  0.00    +0.151 C 
ATOM     18  S   UNL     1       0.004   0.076  -0.586  0.00  0.00    -0.017 S 
BRANCH  17  19
ATOM     19  N   UNL     1      -1.197   2.366   0.021  0.00  0.00    -0.295 N 
ATOM     20  H   UNL     1      -1.210   3.426   0.314  0.00  0.00    +0.154 HD
BRANCH  19  21
ATOM     21  C   UNL     1      -2.397   1.654  -0.083  0.00  0.00    +0.044 A 
ATOM     22  C   UNL     1      -2.516   0.400   0.502  0.00  0.00    +0.024 A 
ATOM     23  C   UNL     1      -3.704  -0.297   0.402  0.00  0.00    +0.002 A 
ATOM     24  C   UNL     1      -4.771   0.247  -0.289  0.00  0.00    +0.001 A 
ATOM     25  C   UNL     1      -4.654   1.493  -0.877  0.00  0.00    +0.014 A 
ATOM     26  C   UNL     1      -3.471   2.198  -0.776  0.00  0.00    +0.076 A 
BRANCH  26  27
ATOM     27  C   UNL     1      -3.345   3.556  -1.418  0.00  0.00    +0.419 C 
ATOM     28  F   UNL     1      -4.547   3.886  -2.052  0.00  0.00    -0.166 F 
ATOM     29  F   UNL     1      -3.058   4.511  -0.436  0.00  0.00    -0.166 F 
ATOM     30  F   UNL     1      -2.311   3.532  -2.361  0.00  0.00    -0.166 F 
ENDBRANCH  26  27
ENDBRANCH  19  21
ENDBRANCH  17  19
ENDBRANCH   1  17
TORSDOF 9
