REMARK  Name = ZINC23858673
REMARK  15 active torsions:
REMARK  status: ('A' for Active; 'I' for Inactive)
REMARK    1  A    between atoms: C_1  and  C_2
REMARK    2  A    between atoms: C_2  and  O_3
REMARK    3  A    between atoms: O_3  and  C_4
REMARK    4  A    between atoms: C_6  and  C_16
REMARK    5  A    between atoms: C_8  and  O_13
REMARK    6  A    between atoms: C_9  and  O_10
REMARK    7  A    between atoms: O_10  and  C_11
REMARK    8  A    between atoms: C_11  and  C_12
REMARK    9  A    between atoms: O_13  and  C_14
REMARK   10  A    between atoms: C_14  and  C_15
REMARK   11  A    between atoms: N_18  and  C_19
REMARK   12  A    between atoms: C_19  and  C_20
REMARK   13  A    between atoms: C_20  and  C_22
REMARK   14  A    between atoms: C_20  and  N_33
REMARK   15  A    between atoms: N_31  and  C_32
REMARK                            x       y       z     vdW  Elec       q    Type
REMARK                         _______ _______ _______ _____ _____    ______ ____
ROOT
ATOM      1  C   UNL     1       0.537   1.180   3.590  0.00  0.00    +0.244 C 
ATOM      2  O   UNL     1      -0.371   1.888   3.979  0.00  0.00    -0.270 OA
ATOM      3  N   UNL     1       0.644   0.881   2.280  0.00  0.00    -0.313 N 
ATOM      4  H   UNL     1       1.466   0.241   1.927  0.00  0.00    +0.149 HD
ENDROOT
BRANCH   1   7
ATOM      5  C   UNL     1       2.337   0.457   6.807  0.00  0.00    +0.166 A 
ATOM      6  C   UNL     1       1.413   0.957   5.909  0.00  0.00    +0.062 A 
ATOM      7  C   UNL     1       1.523   0.648   4.551  0.00  0.00    +0.044 A 
ATOM      8  C   UNL     1       2.564  -0.171   4.105  0.00  0.00    +0.062 A 
ATOM      9  C   UNL     1       3.488  -0.664   5.007  0.00  0.00    +0.166 A 
ATOM     10  C   UNL     1       3.376  -0.355   6.360  0.00  0.00    +0.204 A 
BRANCH   5  11
ATOM     11  O   UNL     1       2.230   0.757   8.130  0.00  0.00    -0.488 OA
BRANCH  11  13
ATOM     12  C   UNL     1       1.185   1.820  10.031  0.00  0.00    +0.048 C 
ATOM     13  C   UNL     1       1.140   1.594   8.519  0.00  0.00    +0.226 C 
ENDBRANCH  11  13
ENDBRANCH   5  11
BRANCH  10  14
ATOM     14  O   UNL     1       4.283  -0.846   7.245  0.00  0.00    -0.485 OA
BRANCH  14  15
ATOM     15  C   UNL     1       3.987  -2.110   7.843  0.00  0.00    +0.226 C 
ATOM     16  C   UNL     1       5.114  -2.495   8.804  0.00  0.00    +0.048 C 
ENDBRANCH  14  15
ENDBRANCH  10  14
BRANCH   9  17
ATOM     17  O   UNL     1       4.504  -1.457   4.573  0.00  0.00    -0.488 OA
BRANCH  17  18
ATOM     18  C   UNL     1       4.559  -1.733   3.172  0.00  0.00    +0.226 C 
ATOM     19  C   UNL     1       5.760  -2.634   2.876  0.00  0.00    +0.048 C 
ENDBRANCH  17  18
ENDBRANCH   9  17
ENDBRANCH   1   7
BRANCH   3  20
ATOM     20  C   UNL     1      -0.334   1.409   1.325  0.00  0.00    +0.094 C 
BRANCH  20  21
ATOM     21  C   UNL     1       0.115   1.079  -0.100  0.00  0.00    -0.020 C 
BRANCH  21  22
ATOM     22  C   UNL     1      -0.981   1.444  -1.068  0.00  0.00    -0.059 A 
ATOM     23  C   UNL     1      -1.207   2.769  -1.391  0.00  0.00    +0.004 A 
ATOM     24  C   UNL     1      -2.212   3.100  -2.275  0.00  0.00    +0.023 A 
ATOM     25  C   UNL     1      -3.005   2.105  -2.848  0.00  0.00    +0.033 A 
ATOM     26  C   UNL     1      -2.771   0.780  -2.526  0.00  0.00    -0.026 A 
ATOM     27  C   UNL     1      -1.757   0.454  -1.638  0.00  0.00    +0.007 A 
ATOM     28  C   UNL     1      -3.584  -0.343  -3.118  0.00  0.00    +0.038 C 
ATOM     29  C   UNL     1      -4.861   0.221  -3.745  0.00  0.00    +0.024 C 
ATOM     30  C   UNL     1      -4.471   1.430  -4.606  0.00  0.00    +0.105 C 
ATOM     31  N   UNL     1      -4.014   2.505  -3.723  0.00  0.00    -0.333 N 
ATOM     32  C   UNL     1      -3.602   3.683  -4.498  0.00  0.00    +0.129 C 
ENDBRANCH  21  22
BRANCH  21  33
ATOM     33  N   UNL     1       1.327   1.845  -0.421  0.00  0.00    +0.385 N 
ATOM     34  C   UNL     1       2.498   1.329   0.333  0.00  0.00    -0.078 C 
ATOM     35  C   UNL     1       3.705   1.852  -0.485  0.00  0.00    -0.020 C 
ATOM     36  C   UNL     1       3.213   1.728  -1.945  0.00  0.00    -0.020 C 
ATOM     37  C   UNL     1       1.676   1.707  -1.852  0.00  0.00    -0.078 C 
ATOM     38  H   UNL     1       1.099   2.889  -0.160  0.00  0.00    -0.081 HD
ENDBRANCH  21  33
ENDBRANCH  20  21
ENDBRANCH   3  20
TORSDOF 11
