REMARK  Name = ZINC13128580
REMARK  7 active torsions:
REMARK  status: ('A' for Active; 'I' for Inactive)
REMARK    1  A    between atoms: C_1  and  C_2
REMARK    2  A    between atoms: C_2  and  C_4
REMARK    3  A    between atoms: C_2  and  N_55
REMARK    4  A    between atoms: C_17  and  C_18
REMARK    5  A    between atoms: C_17  and  N_55
REMARK    6  A    between atoms: C_18  and  C_20
REMARK    7  A    between atoms: C_18  and  C_25
REMARK                            x       y       z     vdW  Elec       q    Type
REMARK                         _______ _______ _______ _____ _____    ______ ____
ROOT
ATOM      1  N   UNL     1       2.591   3.452  -2.446  0.00  0.00    +0.387 N 
ATOM      2  H   UNL     1       3.610   3.331  -2.416  0.00  0.00    -0.085 HD
ATOM      3  H   UNL     1       2.138   2.531  -2.474  0.00  0.00    -0.085 HD
ENDROOT
BRANCH   1   5
ATOM      4  C   UNL     1       0.789   3.875  -4.058  0.00  0.00    -0.004 C 
ATOM      5  C   UNL     1       2.227   4.210  -3.658  0.00  0.00    +0.013 C 
BRANCH   5   6
ATOM      6  C   UNL     1       3.161   3.832  -4.778  0.00  0.00    +0.206 C 
ATOM      7  O   UNL     1       3.717   2.754  -4.766  0.00  0.00    -0.277 OA
ATOM      8  N   UNL     1       3.380   4.692  -5.793  0.00  0.00    -0.262 N 
ATOM      9  C   UNL     1       2.798   6.042  -5.782  0.00  0.00    +0.209 C 
ATOM     10  C   UNL     1       2.283   6.367  -7.161  0.00  0.00    +0.235 C 
ATOM     11  O   UNL     1       1.346   7.126  -7.287  0.00  0.00    -0.274 OA
ATOM     12  N   UNL     1       2.850   5.823  -8.254  0.00  0.00    -0.283 N 
ATOM     13  C   UNL     1       3.899   4.905  -8.135  0.00  0.00    +0.055 A 
ATOM     14  C   UNL     1       4.175   4.328  -6.891  0.00  0.00    +0.058 A 
ATOM     15  C   UNL     1       5.208   3.419  -6.756  0.00  0.00    +0.025 A 
ATOM     16  C   UNL     1       5.977   3.085  -7.857  0.00  0.00    +0.002 A 
ATOM     17  C   UNL     1       5.715   3.658  -9.087  0.00  0.00    +0.002 A 
ATOM     18  C   UNL     1       4.671   4.563  -9.234  0.00  0.00    +0.025 A 
ATOM     19  H   UNL     1       2.527   6.071  -9.135  0.00  0.00    +0.155 HD
ENDBRANCH   5   6
ENDBRANCH   1   5
BRANCH   1  20
ATOM     20  C   UNL     1       2.150   4.174  -1.238  0.00  0.00    -0.068 C 
BRANCH  20  21
ATOM     21  C   UNL     1       2.541   3.365   0.000  0.00  0.00    +0.041 C 
BRANCH  21  22
ATOM     22  C   UNL     1       2.204   4.151   1.241  0.00  0.00    -0.016 A 
ATOM     23  C   UNL     1       0.987   4.583   1.608  0.00  0.00    +0.087 A 
ATOM     24  N   UNL     1       1.070   5.261   2.793  0.00  0.00    -0.360 N 
ATOM     25  H   UNL     1       0.321   5.666   3.257  0.00  0.00    +0.165 HD
ATOM     26  C   UNL     1       2.376   5.284   3.229  0.00  0.00    +0.047 A 
ATOM     27  C   UNL     1       3.143   4.584   2.279  0.00  0.00    +0.003 A 
ATOM     28  C   UNL     1       4.519   4.440   2.465  0.00  0.00    +0.010 A 
ATOM     29  C   UNL     1       5.114   4.976   3.572  0.00  0.00    +0.001 A 
ATOM     30  C   UNL     1       4.362   5.664   4.513  0.00  0.00    +0.002 A 
ATOM     31  C   UNL     1       3.003   5.825   4.346  0.00  0.00    +0.026 A 
ENDBRANCH  21  22
BRANCH  21  32
ATOM     32  C   UNL     1       1.781   2.063   0.010  0.00  0.00    -0.005 A 
ATOM     33  C   UNL     1       2.260   0.795  -0.005  0.00  0.00    +0.012 A 
ATOM     34  C   UNL     1       1.367  -0.259   0.007  0.00  0.00    +0.008 A 
ATOM     35  C   UNL     1       0.038   0.005   0.034  0.00  0.00    +0.045 A 
ATOM     36  S   UNL     1       0.017   1.791   0.043  0.00  0.00    -0.101 S 
ENDBRANCH  21  32
ENDBRANCH  20  21
ENDBRANCH   1  20
TORSDOF 6
