REMARK  Name = ZINC02564246
REMARK  6 active torsions:
REMARK  status: ('A' for Active; 'I' for Inactive)
REMARK    1  A    between atoms: C_1  and  C_2
REMARK    2  A    between atoms: C_3  and  C_8
REMARK    3  A    between atoms: N_6  and  C_7
REMARK    4  A    between atoms: C_10  and  C_21
REMARK    5  A    between atoms: C_14  and  N_20
REMARK    6  A    between atoms: C_15  and  C_17
REMARK                            x       y       z     vdW  Elec       q    Type
REMARK                         _______ _______ _______ _____ _____    ______ ____
ROOT
ATOM      1  C   UNL     1      -2.791   2.027   0.291  0.00  0.00    -0.001 A 
ATOM      2  C   UNL     1      -3.356   1.473   1.432  0.00  0.00    +0.038 A 
ATOM      3  C   UNL     1      -4.648   0.983   1.401  0.00  0.00    +0.108 A 
ATOM      4  N   UNL     1      -5.356   1.026   0.288  0.00  0.00    -0.239 NA
ATOM      5  C   UNL     1      -4.870   1.535  -0.824  0.00  0.00    +0.112 A 
ATOM      6  C   UNL     1      -3.565   2.068  -0.908  0.00  0.00    +0.037 A 
ATOM      7  C   UNL     1      -3.191   2.588  -2.211  0.00  0.00    +0.054 A 
ATOM      8  C   UNL     1      -4.116   2.520  -3.232  0.00  0.00    +0.097 A 
ATOM      9  S   UNL     1      -5.525   1.749  -2.460  0.00  0.00    -0.062 S 
ENDROOT
BRANCH   1  12
ATOM     10  C   UNL     1      -1.980   5.042   0.023  0.00  0.00    +0.066 C 
ATOM     11  C   UNL     1      -1.046   3.872   0.199  0.00  0.00    +0.044 A 
ATOM     12  C   UNL     1      -1.409   2.560   0.315  0.00  0.00    +0.023 A 
ATOM     13  C   UNL     1      -0.227   1.806   0.466  0.00  0.00    +0.143 A 
ATOM     14  N   UNL     1       0.786   2.629   0.431  0.00  0.00    -0.179 NA
ATOM     15  N   UNL     1       0.298   3.930   0.265  0.00  0.00    -0.271 N 
ATOM     16  C   UNL     1       1.109   5.147   0.177  0.00  0.00    +0.172 C 
ENDBRANCH   1  12
BRANCH   8  17
ATOM     17  C   UNL     1      -3.979   2.958  -4.572  0.00  0.00    +0.250 C 
ATOM     18  O   UNL     1      -2.938   3.471  -4.941  0.00  0.00    -0.270 OA
ATOM     19  N   UNL     1      -5.000   2.808  -5.438  0.00  0.00    -0.325 N 
ATOM     20  H   UNL     1      -5.829   2.399  -5.144  0.00  0.00    +0.145 HD
ATOM     21  H   UNL     1      -4.906   3.108  -6.356  0.00  0.00    +0.145 HD
ENDBRANCH   8  17
BRANCH   7  22
ATOM     22  N   UNL     1      -1.935   3.139  -2.424  0.00  0.00    -0.356 N 
ATOM     23  H   UNL     1      -1.203   2.924  -1.825  0.00  0.00    +0.142 HD
ATOM     24  H   UNL     1      -1.789   3.739  -3.172  0.00  0.00    +0.142 HD
ENDBRANCH   7  22
BRANCH   3  25
ATOM     25  C   UNL     1      -5.252   0.390   2.648  0.00  0.00    +0.390 C 
ATOM     26  F   UNL     1      -4.479  -0.698   3.069  0.00  0.00    -0.202 F 
ATOM     27  F   UNL     1      -5.281   1.359   3.658  0.00  0.00    -0.202 F 
ENDBRANCH   3  25
TORSDOF 4
