REMARK  Name = ZINC36547462
REMARK  14 active torsions:
REMARK  status: ('A' for Active; 'I' for Inactive)
REMARK    1  A    between atoms: C_1  and  C_2
REMARK    2  A    between atoms: C_2  and  C_3
REMARK    3  A    between atoms: C_2  and  C_4
REMARK    4  A    between atoms: C_2  and  C_5
REMARK    5  A    between atoms: C_5  and  C_6
REMARK    6  A    between atoms: C_6  and  C_7
REMARK    7  A    between atoms: C_6  and  C_8
REMARK    8  A    between atoms: C_6  and  N_9
REMARK    9  A    between atoms: C_10  and  C_12
REMARK   10  A    between atoms: C_12  and  C_14
REMARK   11  A    between atoms: C_12  and  N_23
REMARK   12  A    between atoms: C_17  and  N_20
REMARK   13  A    between atoms: N_23  and  C_24
REMARK   14  A    between atoms: C_31  and  C_33
REMARK                            x       y       z     vdW  Elec       q    Type
REMARK                         _______ _______ _______ _____ _____    ______ ____
ROOT
ATOM      1  C   UNL     1       5.352  -0.430  -4.251  0.00  0.00    +0.197 C 
ENDROOT
BRANCH   1   2
ATOM      2  C   UNL     1       5.613  -1.896  -4.483  0.00  0.00    -0.018 A 
ATOM      3  C   UNL     1       6.628  -2.534  -3.794  0.00  0.00    +0.008 A 
ATOM      4  C   UNL     1       6.867  -3.879  -4.007  0.00  0.00    +0.033 A 
ATOM      5  C   UNL     1       6.092  -4.585  -4.909  0.00  0.00    +0.126 A 
ATOM      6  C   UNL     1       5.077  -3.946  -5.596  0.00  0.00    +0.033 A 
ATOM      7  C   UNL     1       4.835  -2.603  -5.380  0.00  0.00    +0.008 A 
BRANCH   5   8
ATOM      8  N   UNL     1       6.349  -6.025  -5.137  0.00  0.00    +0.056 N 
ATOM      9  O   UNL     1       7.237  -6.583  -4.536  0.00  0.00    -0.126 OA
ATOM     10  O   UNL     1       5.672  -6.642  -5.926  0.00  0.00    -0.126 OA
ENDBRANCH   5   8
ENDBRANCH   1   2
BRANCH   1  12
ATOM     11  N   UNL     1       3.360  -0.454  -2.784  0.00  0.00    -0.308 N 
ATOM     12  C   UNL     1       4.685  -0.244  -2.912  0.00  0.00    +0.239 C 
ATOM     13  O   UNL     1       5.341   0.094  -1.950  0.00  0.00    -0.273 OA
ATOM     14  H   UNL     1       2.836  -0.724  -3.554  0.00  0.00    +0.149 HD
BRANCH  11  15
ATOM     15  C   UNL     1       2.712  -0.273  -1.483  0.00  0.00    +0.030 C 
ATOM     16  C   UNL     1       3.034   1.121  -0.942  0.00  0.00    +0.031 C 
ATOM     17  C   UNL     1       3.228  -1.331  -0.505  0.00  0.00    +0.031 C 
BRANCH  15  18
ATOM     18  C   UNL     1       1.198  -0.422  -1.642  0.00  0.00    +0.031 C 
BRANCH  18  20
ATOM     19  C   UNL     1       0.990  -0.527  -4.130  0.00  0.00    +0.010 C 
ATOM     20  C   UNL     1       0.740   0.335  -2.890  0.00  0.00    -0.036 C 
ATOM     21  C   UNL     1       1.525   1.642  -3.011  0.00  0.00    +0.010 C 
ATOM     22  C   UNL     1      -0.754   0.646  -2.779  0.00  0.00    +0.010 C 
ENDBRANCH  18  20
ENDBRANCH  15  18
ENDBRANCH  11  15
ENDBRANCH   1  12
BRANCH   1  23
ATOM     23  N   UNL     1       6.621   0.301  -4.270  0.00  0.00    -0.253 N 
ATOM     24  C   UNL     1       7.357   0.346  -5.398  0.00  0.00    +0.235 C 
ATOM     25  O   UNL     1       8.362   1.023  -5.441  0.00  0.00    -0.274 OA
BRANCH  23  26
ATOM     26  C   UNL     1       7.071   0.954  -3.116  0.00  0.00    +0.056 A 
ATOM     27  C   UNL     1       7.950   0.314  -2.252  0.00  0.00    +0.025 A 
ATOM     28  C   UNL     1       8.391   0.960  -1.114  0.00  0.00    +0.002 A 
ATOM     29  C   UNL     1       7.959   2.244  -0.834  0.00  0.00    +0.002 A 
ATOM     30  C   UNL     1       7.083   2.884  -1.690  0.00  0.00    +0.022 A 
ATOM     31  C   UNL     1       6.642   2.245  -2.834  0.00  0.00    +0.062 A 
ATOM     32 CL   UNL     1       5.549   3.053  -3.914  0.00  0.00    -0.082 Cl
ENDBRANCH  23  26
BRANCH  24  33
ATOM     33  C   UNL     1       6.929  -0.445  -6.608  0.00  0.00    +0.204 C 
ATOM     34 CL   UNL     1       8.174  -0.283  -7.902  0.00  0.00    -0.116 Cl
ENDBRANCH  24  33
ENDBRANCH   1  23
TORSDOF 9
