REMARK  Name = ZINC63521093
REMARK  11 active torsions:
REMARK  status: ('A' for Active; 'I' for Inactive)
REMARK    1  A    between atoms: C_1  and  C_2
REMARK    2  A    between atoms: C_2  and  O_3
REMARK    3  A    between atoms: O_3  and  C_4
REMARK    4  A    between atoms: C_9  and  S_14
REMARK    5  A    between atoms: S_14  and  C_15
REMARK    6  A    between atoms: C_15  and  C_16
REMARK    7  A    between atoms: N_21  and  S_27
REMARK    8  A    between atoms: C_22  and  C_24
REMARK    9  A    between atoms: C_24  and  C_25
REMARK   10  A    between atoms: C_24  and  C_26
REMARK   11  A    between atoms: S_27  and  C_30
REMARK                            x       y       z     vdW  Elec       q    Type
REMARK                         _______ _______ _______ _____ _____    ______ ____
ROOT
ATOM      1  C   UNL     1      -5.597  -7.086   4.768  0.00  0.00    +0.227 C 
ATOM      2  O   UNL     1      -5.859  -8.140   5.308  0.00  0.00    -0.275 OA
ATOM      3  N   UNL     1      -4.763  -6.212   5.365  0.00  0.00    -0.282 N 
ATOM      4  C   UNL     1      -4.293  -4.924   4.821  0.00  0.00    +0.126 C 
ATOM      5  C   UNL     1      -2.916  -4.716   5.482  0.00  0.00    +0.130 C 
ATOM      6  N   UNL     1      -2.998  -5.432   6.766  0.00  0.00    -0.154 NA
ATOM      7  C   UNL     1      -4.145  -6.349   6.691  0.00  0.00    +0.170 C 
ENDROOT
BRANCH   7   8
ATOM      8  C   UNL     1      -3.666  -7.788   6.891  0.00  0.00    +0.020 C 
ATOM      9  C   UNL     1      -2.171  -7.876   6.578  0.00  0.00    +0.010 C 
ATOM     10  C   UNL     1      -3.909  -8.210   8.341  0.00  0.00    +0.010 C 
ENDBRANCH   7   8
BRANCH   6  11
ATOM     11  S   UNL     1      -1.985  -5.236   8.061  0.00  0.00    +0.063 S 
ATOM     12  O   UNL     1      -2.026  -6.452   8.796  0.00  0.00    -0.153 OA
ATOM     13  O   UNL     1      -0.775  -4.693   7.552  0.00  0.00    -0.153 OA
BRANCH  11  14
ATOM     14  C   UNL     1      -2.696  -3.999   9.095  0.00  0.00    +0.106 A 
ATOM     15  C   UNL     1      -2.378  -2.668   8.899  0.00  0.00    +0.028 A 
ATOM     16  C   UNL     1      -2.936  -1.697   9.710  0.00  0.00    +0.002 A 
ATOM     17  C   UNL     1      -3.812  -2.058  10.717  0.00  0.00    +0.000 A 
ATOM     18  C   UNL     1      -4.131  -3.389  10.912  0.00  0.00    +0.002 A 
ATOM     19  C   UNL     1      -3.576  -4.359  10.099  0.00  0.00    +0.028 A 
ENDBRANCH  11  14
ENDBRANCH   6  11
BRANCH   1  20
ATOM     20  C   UNL     1      -6.203  -6.755   3.429  0.00  0.00    +0.168 C 
BRANCH  20  21
ATOM     21  S   UNL     1      -7.271  -8.120   2.894  0.00  0.00    -0.106 S 
BRANCH  21  27
ATOM     22  C   UNL     1      -7.463  -3.304  -0.384  0.00  0.00    +0.123 A 
ATOM     23  C   UNL     1      -6.330  -3.933  -1.050  0.00  0.00    +0.048 A 
ATOM     24  C   UNL     1      -6.033  -5.234  -0.870  0.00  0.00    +0.031 A 
ATOM     25  C   UNL     1      -6.865  -6.057   0.020  0.00  0.00    +0.061 A 
ATOM     26  N   UNL     1      -6.804  -7.312   0.364  0.00  0.00    -0.355 N 
ATOM     27  C   UNL     1      -7.914  -7.572   1.289  0.00  0.00    +0.236 C 
ATOM     28  N   UNL     1      -8.633  -6.301   1.440  0.00  0.00    -0.355 N 
ATOM     29  C   UNL     1      -8.022  -5.415   0.701  0.00  0.00    +0.064 A 
ATOM     30  C   UNL     1      -8.273  -3.994   0.455  0.00  0.00    +0.073 A 
ATOM     31  H   UNL     1      -6.145  -7.957   0.063  0.00  0.00    +0.162 HD
ATOM     32  H   UNL     1      -9.418  -6.147   1.990  0.00  0.00    +0.162 HD
BRANCH  22  33
ATOM     33  O   UNL     1      -7.710  -1.989  -0.606  0.00  0.00    -0.492 OA
BRANCH  33  35
ATOM     34  C   UNL     1      -7.263   0.157  -1.623  0.00  0.00    +0.048 C 
ATOM     35  C   UNL     1      -6.829  -1.304  -1.498  0.00  0.00    +0.225 C 
ENDBRANCH  33  35
ENDBRANCH  22  33
ENDBRANCH  21  27
ENDBRANCH  20  21
ENDBRANCH   1  20
TORSDOF 8
