REMARK  Name = ZINC01375293
REMARK  14 active torsions:
REMARK  status: ('A' for Active; 'I' for Inactive)
REMARK    1  A    between atoms: C_1  and  C_2
REMARK    2  A    between atoms: C_2  and  C_3
REMARK    3  A    between atoms: C_3  and  C_5
REMARK    4  A    between atoms: C_3  and  N_19
REMARK    5  A    between atoms: N_9  and  C_10
REMARK    6  A    between atoms: C_10  and  C_11
REMARK    7  A    between atoms: C_14  and  O_17
REMARK    8  A    between atoms: O_17  and  C_18
REMARK    9  A    between atoms: N_19  and  C_20
REMARK   10  A    between atoms: N_19  and  C_26
REMARK   11  A    between atoms: C_20  and  C_21
REMARK   12  A    between atoms: C_26  and  C_27
REMARK   13  A    between atoms: C_30  and  C_40
REMARK   14  A    between atoms: C_32  and  C_39
REMARK                            x       y       z     vdW  Elec       q    Type
REMARK                         _______ _______ _______ _____ _____    ______ ____
ROOT
ATOM      1  N   UNL     1      -0.174   0.196  -2.494  0.00  0.00    -0.284 NA
ENDROOT
BRANCH   1   2
ATOM      2  C   UNL     1       0.829  -0.440  -1.630  0.00  0.00    +0.127 C 
BRANCH   2   3
ATOM      3  C   UNL     1       2.171   0.206  -1.858  0.00  0.00    +0.169 A 
ATOM      4  N   UNL     1       2.712   0.499  -3.015  0.00  0.00    -0.112 NA
ATOM      5  N   UNL     1       3.860   1.039  -2.792  0.00  0.00    -0.023 NA
ATOM      6  N   UNL     1       4.066   1.099  -1.523  0.00  0.00    -0.044 NA
ATOM      7  N   UNL     1       3.045   0.599  -0.912  0.00  0.00    -0.223 N 
BRANCH   7   8
ATOM      8  C   UNL     1       2.870   0.480   0.537  0.00  0.00    +0.182 C 
BRANCH   8   9
ATOM      9  C   UNL     1       3.545  -0.777   1.022  0.00  0.00    -0.026 A 
ATOM     10  C   UNL     1       2.839  -1.966   1.067  0.00  0.00    +0.009 A 
ATOM     11  C   UNL     1       3.455  -3.120   1.512  0.00  0.00    +0.046 A 
ATOM     12  C   UNL     1       4.782  -3.086   1.913  0.00  0.00    +0.120 A 
ATOM     13  C   UNL     1       5.488  -1.892   1.868  0.00  0.00    +0.046 A 
ATOM     14  C   UNL     1       4.869  -0.742   1.417  0.00  0.00    +0.009 A 
BRANCH  12  15
ATOM     15  O   UNL     1       5.390  -4.219   2.352  0.00  0.00    -0.495 OA
ATOM     16  C   UNL     1       6.758  -4.110   2.750  0.00  0.00    +0.277 C 
ENDBRANCH  12  15
ENDBRANCH   8   9
ENDBRANCH   7   8
ENDBRANCH   2   3
BRANCH   2  18
ATOM     17  C   UNL     1      -0.411  -2.610  -1.621  0.00  0.00    +0.006 C 
ATOM     18  C   UNL     1       0.917  -1.931  -1.963  0.00  0.00    +0.023 C 
ENDBRANCH   2  18
ENDBRANCH   1   2
BRANCH   1  19
ATOM     19  C   UNL     1       0.244   0.158  -3.902  0.00  0.00    +0.127 C 
BRANCH  19  20
ATOM     20  C   UNL     1      -0.947   0.420  -4.787  0.00  0.00    +0.004 A 
ATOM     21  C   UNL     1      -1.361   1.588  -5.336  0.00  0.00    +0.012 A 
ATOM     22  C   UNL     1      -2.497   1.592  -6.125  0.00  0.00    +0.008 A 
ATOM     23  C   UNL     1      -3.162   0.429  -6.326  0.00  0.00    +0.045 A 
ATOM     24  S   UNL     1      -2.175  -0.727  -5.390  0.00  0.00    -0.100 S 
ENDBRANCH  19  20
ENDBRANCH   1  19
BRANCH   1  25
ATOM     25  C   UNL     1      -0.443   1.574  -2.062  0.00  0.00    +0.126 C 
BRANCH  25  26
ATOM     26  C   UNL     1      -1.332   1.555  -0.845  0.00  0.00    +0.032 A 
ATOM     27  C   UNL     1      -0.786   1.657   0.392  0.00  0.00    +0.020 A 
ATOM     28  C   UNL     1      -1.677   1.635   1.553  0.00  0.00    +0.002 A 
ATOM     29  C   UNL     1      -1.172   1.737   2.854  0.00  0.00    -0.041 A 
ATOM     30  C   UNL     1      -2.030   1.714   3.917  0.00  0.00    +0.007 A 
ATOM     31  C   UNL     1      -3.399   1.590   3.717  0.00  0.00    -0.048 A 
ATOM     32  C   UNL     1      -3.918   1.488   2.445  0.00  0.00    +0.029 A 
ATOM     33  C   UNL     1      -3.063   1.510   1.347  0.00  0.00    +0.050 A 
ATOM     34  N   UNL     1      -3.555   1.410   0.063  0.00  0.00    -0.322 N 
ATOM     35  H   UNL     1      -4.511   1.324  -0.077  0.00  0.00    +0.169 HD
ATOM     36  C   UNL     1      -2.730   1.436  -0.998  0.00  0.00    +0.254 A 
ATOM     37  O   UNL     1      -3.200   1.351  -2.119  0.00  0.00    -0.268 OA
ATOM     38  C   UNL     1      -4.326   1.567   4.905  0.00  0.00    +0.044 C 
ATOM     39  C   UNL     1       0.311   1.871   3.082  0.00  0.00    +0.044 C 
ENDBRANCH  25  26
ENDBRANCH   1  25
TORSDOF 10
