REMARK  Name = ZINC00196838
REMARK  6 active torsions:
REMARK  status: ('A' for Active; 'I' for Inactive)
REMARK    1  A    between atoms: C_1  and  C_2
REMARK    2  A    between atoms: C_7  and  N_8
REMARK    3  A    between atoms: C_9  and  C_11
REMARK    4  A    between atoms: C_12  and  C_26
REMARK    5  A    between atoms: C_17  and  C_19
REMARK    6  A    between atoms: C_24  and  O_25
REMARK                            x       y       z     vdW  Elec       q    Type
REMARK                         _______ _______ _______ _____ _____    ______ ____
ROOT
ATOM      1  C   UNL     1      -2.647   1.502   0.780  0.00  0.00    +0.056 C 
ATOM      2  C   UNL     1      -3.218   0.358   1.210  0.00  0.00    +0.019 C 
ATOM      3  N   UNL     1      -2.874  -0.849   0.668  0.00  0.00    -0.273 N 
ATOM      4  C   UNL     1      -1.969  -0.993  -0.308  0.00  0.00    +0.304 C 
ATOM      5  O   UNL     1      -1.728  -2.108  -0.727  0.00  0.00    -0.252 OA
ATOM      6  N   UNL     1      -1.315   0.058  -0.841  0.00  0.00    -0.288 N 
ATOM      7  C   UNL     1      -1.614   1.405  -0.324  0.00  0.00    +0.145 C 
ATOM      8  C   UNL     1      -4.251   0.411   2.305  0.00  0.00    +0.061 C 
ATOM      9  H   UNL     1      -3.311  -1.645   1.009  0.00  0.00    +0.156 HD
ATOM     10  H   UNL     1      -0.662  -0.069  -1.547  0.00  0.00    +0.151 HD
ENDROOT
BRANCH   7  11
ATOM     11  C   UNL     1      -0.329   2.002   0.189  0.00  0.00    +0.019 A 
ATOM     12  C   UNL     1       0.677   1.179   0.657  0.00  0.00    +0.009 A 
ATOM     13  C   UNL     1       1.859   1.726   1.123  0.00  0.00    +0.001 A 
ATOM     14  C   UNL     1       2.035   3.098   1.125  0.00  0.00    +0.004 A 
ATOM     15  C   UNL     1       1.030   3.925   0.662  0.00  0.00    +0.046 A 
ATOM     16  C   UNL     1      -0.157   3.378   0.194  0.00  0.00    +0.122 A 
BRANCH  16  17
ATOM     17  O   UNL     1      -1.146   4.190  -0.262  0.00  0.00    -0.506 OA
ATOM     18  H   UNL     1      -1.049   4.444  -1.190  0.00  0.00    +0.292 HD
ENDBRANCH  16  17
ENDBRANCH   7  11
BRANCH   1  20
ATOM     19  N   UNL     1      -2.477   3.133   2.524  0.00  0.00    -0.281 N 
ATOM     20  C   UNL     1      -3.002   2.752   1.343  0.00  0.00    +0.248 C 
ATOM     21  O   UNL     1      -3.781   3.483   0.759  0.00  0.00    -0.270 OA
ATOM     22  H   UNL     1      -1.881   2.538   3.004  0.00  0.00    +0.155 HD
BRANCH  19  29
ATOM     23  C   UNL     1      -0.590   4.365   4.261  0.00  0.00    +0.045 C 
ATOM     24  C   UNL     1      -1.899   5.025   3.909  0.00  0.00    -0.029 A 
ATOM     25  C   UNL     1      -2.212   6.264   4.434  0.00  0.00    +0.005 A 
ATOM     26  C   UNL     1      -3.412   6.869   4.111  0.00  0.00    +0.000 A 
ATOM     27  C   UNL     1      -4.303   6.237   3.263  0.00  0.00    +0.002 A 
ATOM     28  C   UNL     1      -3.994   5.001   2.731  0.00  0.00    +0.023 A 
ATOM     29  C   UNL     1      -2.791   4.387   3.057  0.00  0.00    +0.037 A 
ENDBRANCH  19  29
ENDBRANCH   1  20
TORSDOF 4
