REMARK  Name = ZINC49060993
REMARK  5 active torsions:
REMARK  status: ('A' for Active; 'I' for Inactive)
REMARK    1  A    between atoms: C_3  and  N_12
REMARK    2  A    between atoms: C_4  and  C_8
REMARK    3  A    between atoms: N_9  and  O_10
REMARK    4  A    between atoms: N_12  and  S_13
REMARK    5  A    between atoms: S_13  and  C_16
REMARK                            x       y       z     vdW  Elec       q    Type
REMARK                         _______ _______ _______ _____ _____    ______ ____
ROOT
ATOM      1  C   UNL     1      -0.017   1.379   0.010  0.00  0.00    +0.005 A 
ATOM      2  C   UNL     1       1.165   2.095   0.002  0.00  0.00    +0.027 A 
ATOM      3  C   UNL     1       2.382   1.428  -0.013  0.00  0.00    +0.088 A 
ATOM      4  C   UNL     1       2.407   0.027  -0.021  0.00  0.00    +0.077 A 
ATOM      5  C   UNL     1       1.205  -0.685  -0.013  0.00  0.00    +0.136 A 
ATOM      6  C   UNL     1       0.002  -0.004   0.002  0.00  0.00    +0.039 A 
ATOM      7  F   UNL     1       1.218  -2.036  -0.021  0.00  0.00    -0.205 F 
ENDROOT
BRANCH   4   8
ATOM      8  C   UNL     1       3.697  -0.694  -0.038  0.00  0.00    +0.167 C 
ATOM      9  N   UNL     1       4.277  -1.017   1.081  0.00  0.00    -0.071 NA
ATOM     10  N   UNL     1       4.289  -1.025  -1.246  0.00  0.00    -0.340 N 
ATOM     11  H   UNL     1       3.857  -0.784  -2.080  0.00  0.00    +0.144 HD
ATOM     12  H   UNL     1       5.136  -1.498  -1.257  0.00  0.00    +0.144 HD
BRANCH   9  13
ATOM     13  O   UNL     1       3.672  -0.679   2.316  0.00  0.00    -0.408 OA
ATOM     14  H   UNL     1       4.176  -0.960   3.092  0.00  0.00    +0.328 HD
ENDBRANCH   9  13
ENDBRANCH   4   8
BRANCH   3  15
ATOM     15  N   UNL     1       3.574   2.149  -0.022  0.00  0.00    -0.097 NA
BRANCH  15  16
ATOM     16  S   UNL     1       3.540   3.804  -0.013  0.00  0.00    +0.099 S 
ATOM     17  O   UNL     1       2.969   4.206  -1.251  0.00  0.00    -0.148 OA
ATOM     18  O   UNL     1       2.994   4.193   1.240  0.00  0.00    -0.148 OA
BRANCH  16  19
ATOM     19  C   UNL     1       5.213   4.359  -0.027  0.00  0.00    +0.161 A 
ATOM     20  C   UNL     1       5.691   5.628  -0.020  0.00  0.00    +0.052 A 
ATOM     21  C   UNL     1       7.059   5.828  -0.034  0.00  0.00    +0.025 A 
ATOM     22  C   UNL     1       7.881   4.750  -0.054  0.00  0.00    +0.048 A 
ATOM     23  S   UNL     1       6.716   3.397  -0.047  0.00  0.00    -0.076 S 
ATOM     24 BR   UNL     1       4.506   7.101   0.007  0.00  0.00    -0.048 Br
ENDBRANCH  16  19
ENDBRANCH  15  16
ENDBRANCH   3  15
TORSDOF 5
