REMARK  Name = ZINC52012277
REMARK  4 active torsions:
REMARK  status: ('A' for Active; 'I' for Inactive)
REMARK    1  A    between atoms: C_4  and  O_22
REMARK    2  A    between atoms: C_6  and  N_9
REMARK    3  A    between atoms: C_16  and  C_18
REMARK    4  A    between atoms: C_18  and  C_19
REMARK                            x       y       z     vdW  Elec       q    Type
REMARK                         _______ _______ _______ _____ _____    ______ ____
ROOT
ATOM      1  N   UNL     1       0.957  -2.122  -1.334  0.00  0.00    -0.294 N 
ATOM      2  C   UNL     1      -0.150  -2.736  -1.797  0.00  0.00    +0.303 C 
ATOM      3  O   UNL     1      -1.079  -2.077  -2.221  0.00  0.00    -0.253 OA
ATOM      4  N   UNL     1      -0.226  -4.082  -1.790  0.00  0.00    -0.282 N 
ATOM      5  C   UNL     1       0.858  -5.002  -1.400  0.00  0.00    +0.110 C 
ATOM      6  C   UNL     1       0.137  -6.302  -0.965  0.00  0.00    +0.021 C 
ATOM      7  C   UNL     1      -1.035  -6.362  -1.980  0.00  0.00    +0.024 C 
ATOM      8  C   UNL     1      -1.405  -4.875  -2.165  0.00  0.00    +0.088 C 
ATOM      9  H   UNL     1       1.698  -2.647  -0.996  0.00  0.00    +0.151 HD
ENDROOT
BRANCH   1  14
ATOM     10  C   UNL     1       0.467   1.423  -0.085  0.00  0.00    +0.002 C 
ATOM     11  C   UNL     1       1.935   1.851  -0.124  0.00  0.00    +0.003 C 
ATOM     12  C   UNL     1       2.594   1.296  -1.389  0.00  0.00    +0.033 C 
ATOM     13  C   UNL     1       2.508  -0.231  -1.381  0.00  0.00    +0.135 C 
ATOM     14  C   UNL     1       1.040  -0.659  -1.342  0.00  0.00    +0.103 C 
ATOM     15  C   UNL     1       0.380  -0.104  -0.077  0.00  0.00    +0.025 C 
BRANCH  13  16
ATOM     16  O   UNL     1       3.183  -0.741  -0.229  0.00  0.00    -0.390 OA
ATOM     17  H   UNL     1       4.121  -0.508  -0.188  0.00  0.00    +0.210 HD
ENDBRANCH  13  16
ENDBRANCH   1  14
BRANCH   8  18
ATOM     18  C   UNL     1      -1.767  -4.611  -3.628  0.00  0.00    +0.147 C 
BRANCH  18  19
ATOM     19  C   UNL     1      -3.055  -5.318  -3.963  0.00  0.00    +0.358 C 
ATOM     20  O   UNL     1      -3.682  -5.889  -3.087  0.00  0.00    -0.246 OA
ATOM     21  O   UNL     1      -3.470  -5.318  -5.109  0.00  0.00    -0.246 OA
ENDBRANCH  18  19
ENDBRANCH   8  18
TORSDOF 4
