REMARK  Name = ZINC34835240
REMARK  12 active torsions:
REMARK  status: ('A' for Active; 'I' for Inactive)
REMARK    1  A    between atoms: C_1  and  C_2
REMARK    2  A    between atoms: C_2  and  C_3
REMARK    3  A    between atoms: C_3  and  C_5
REMARK    4  A    between atoms: C_3  and  N_6
REMARK    5  A    between atoms: N_6  and  C_7
REMARK    6  A    between atoms: C_7  and  C_8
REMARK    7  A    between atoms: C_9  and  C_27
REMARK    8  A    between atoms: N_11  and  C_21
REMARK    9  A    between atoms: C_12  and  N_13
REMARK   10  A    between atoms: N_16  and  C_19
REMARK   11  A    between atoms: C_19  and  C_20
REMARK   12  A    between atoms: N_30  and  C_31
REMARK                            x       y       z     vdW  Elec       q    Type
REMARK                         _______ _______ _______ _____ _____    ______ ____
ROOT
ATOM      1  C   UNL     1      -4.866  -0.008   1.147  0.00  0.00    +0.032 A 
ATOM      2  C   UNL     1      -5.514  -0.672   0.102  0.00  0.00    +0.067 A 
ATOM      3  N   UNL     1      -6.409  -1.477   0.613  0.00  0.00    -0.170 NA
ATOM      4  N   UNL     1      -6.367  -1.358   2.008  0.00  0.00    -0.218 N 
ATOM      5  C   UNL     1      -5.402  -0.449   2.318  0.00  0.00    +0.130 A 
ATOM      6  C   UNL     1      -5.230  -0.490  -1.367  0.00  0.00    +0.068 C 
ENDROOT
BRANCH   5   7
ATOM      7  N   UNL     1      -5.035  -0.043   3.598  0.00  0.00    -0.318 N 
ATOM      8  C   UNL     1      -5.737   1.059   4.273  0.00  0.00    +0.088 C 
ATOM      9  C   UNL     1      -6.144   0.590   5.674  0.00  0.00    -0.060 C 
ATOM     10  N   UNL     1      -4.958   0.100   6.388  0.00  0.00    +0.382 N 
ATOM     11  C   UNL     1      -4.424  -1.089   5.713  0.00  0.00    -0.060 C 
ATOM     12  C   UNL     1      -3.936  -0.708   4.316  0.00  0.00    +0.088 C 
ATOM     13  H   UNL     1      -4.253   0.822   6.402  0.00  0.00    -0.082 HD
BRANCH  10  14
ATOM     14  C   UNL     1      -5.327  -0.246   7.767  0.00  0.00    -0.082 C 
ATOM     15  C   UNL     1      -4.072  -0.639   8.548  0.00  0.00    -0.017 C 
ENDBRANCH  10  14
ENDBRANCH   5   7
BRANCH   4  16
ATOM     16  C   UNL     1      -7.170  -2.055   2.922  0.00  0.00    +0.067 A 
ATOM     17  C   UNL     1      -6.593  -2.686   4.015  0.00  0.00    +0.028 A 
ATOM     18  C   UNL     1      -7.387  -3.371   4.914  0.00  0.00    +0.002 A 
ATOM     19  C   UNL     1      -8.755  -3.429   4.725  0.00  0.00    +0.000 A 
ATOM     20  C   UNL     1      -9.333  -2.802   3.636  0.00  0.00    +0.002 A 
ATOM     21  C   UNL     1      -8.545  -2.110   2.738  0.00  0.00    +0.028 A 
ENDBRANCH   4  16
BRANCH   1  22
ATOM     22  C   UNL     1      -3.764   1.010   1.004  0.00  0.00    +0.150 C 
BRANCH  22  23
ATOM     23  N   UNL     1      -2.508   0.329   0.680  0.00  0.00    -0.278 N 
ATOM     24  C   UNL     1      -1.626   0.043   1.658  0.00  0.00    +0.303 C 
ATOM     25  O   UNL     1      -1.904   0.281   2.817  0.00  0.00    -0.253 OA
ATOM     26  N   UNL     1      -0.434  -0.506   1.350  0.00  0.00    -0.296 N 
ATOM     27  H   UNL     1      -0.182  -0.629   0.421  0.00  0.00    +0.151 HD
BRANCH  26  28
ATOM     28  C   UNL     1       0.480  -0.918   2.418  0.00  0.00    +0.074 C 
ATOM     29  C   UNL     1       1.315   0.283   2.866  0.00  0.00    +0.022 C 
ATOM     30  C   UNL     1       2.270  -0.147   3.981  0.00  0.00    +0.002 C 
ATOM     31  C   UNL     1       3.198  -1.248   3.462  0.00  0.00    +0.000 C 
ATOM     32  C   UNL     1       2.363  -2.449   3.014  0.00  0.00    +0.002 C 
ATOM     33  C   UNL     1       1.408  -2.019   1.899  0.00  0.00    +0.022 C 
ENDBRANCH  26  28
BRANCH  23  34
ATOM     34  C   UNL     1      -2.212  -0.041  -0.706  0.00  0.00    +0.075 C 
ATOM     35  C   UNL     1      -1.908  -1.538  -0.780  0.00  0.00    +0.028 C 
BRANCH  34  37
ATOM     36  C   UNL     1      -1.353   2.238  -1.262  0.00  0.00    +0.006 C 
ATOM     37  C   UNL     1      -0.999   0.751  -1.197  0.00  0.00    +0.019 C 
ENDBRANCH  34  37
ENDBRANCH  23  34
ENDBRANCH  22  23
ENDBRANCH   1  22
TORSDOF 8
