REMARK  Name = ZINC39711114
REMARK  14 active torsions:
REMARK  status: ('A' for Active; 'I' for Inactive)
REMARK    1  A    between atoms: C_1  and  C_2
REMARK    2  A    between atoms: C_2  and  C_3
REMARK    3  A    between atoms: C_3  and  C_4
REMARK    4  A    between atoms: C_3  and  C_5
REMARK    5  A    between atoms: C_3  and  N_6
REMARK    6  A    between atoms: C_7  and  C_12
REMARK    7  A    between atoms: C_12  and  C_14
REMARK    8  A    between atoms: C_12  and  N_28
REMARK    9  A    between atoms: C_18  and  C_27
REMARK   10  A    between atoms: C_21  and  C_26
REMARK   11  A    between atoms: N_28  and  C_29
REMARK   12  A    between atoms: N_28  and  C_36
REMARK   13  A    between atoms: C_29  and  C_30
REMARK   14  A    between atoms: C_36  and  C_37
REMARK                            x       y       z     vdW  Elec       q    Type
REMARK                         _______ _______ _______ _____ _____    ______ ____
ROOT
ATOM      1  C   UNL     1       2.013  -1.266   3.516  0.00  0.00    -0.010 C 
ENDROOT
BRANCH   1   2
ATOM      2  C   UNL     1       3.093  -0.435   4.213  0.00  0.00    +0.088 C 
ATOM      3  C   UNL     1       2.730  -0.339   5.681  0.00  0.00    -0.006 C 
ATOM      4  C   UNL     1       2.569   0.910   6.205  0.00  0.00    -0.004 A 
ATOM      5  C   UNL     1       2.219   1.094   7.613  0.00  0.00    -0.042 A 
ATOM      6  C   UNL     1       2.068   2.356   8.091  0.00  0.00    +0.004 A 
ATOM      7  C   UNL     1       2.241   3.470   7.268  0.00  0.00    +0.005 A 
ATOM      8  C   UNL     1       2.566   3.366   5.953  0.00  0.00    -0.029 A 
ATOM      9  C   UNL     1       2.746   2.103   5.359  0.00  0.00    +0.043 A 
ATOM     10  N   UNL     1       3.066   2.014   4.069  0.00  0.00    -0.284 N 
ATOM     11  C   UNL     1       3.247   0.861   3.449  0.00  0.00    +0.223 C 
ATOM     12  O   UNL     1       3.537   0.842   2.267  0.00  0.00    -0.275 OA
ATOM     13  C   UNL     1       2.736   4.613   5.125  0.00  0.00    +0.045 C 
ATOM     14  C   UNL     1       2.027  -0.096   8.518  0.00  0.00    +0.044 C 
ATOM     15  H   UNL     1       3.170   2.833   3.560  0.00  0.00    +0.155 HD
ENDBRANCH   1   2
BRANCH   1  17
ATOM     16  N   UNL     1       3.790  -1.849   1.898  0.00  0.00    -0.211 N 
ATOM     17  C   UNL     1       2.379  -1.444   2.041  0.00  0.00    +0.183 C 
ATOM     18  N   UNL     1       2.334  -0.153   1.328  0.00  0.00    -0.229 N 
ATOM     19  N   UNL     1       3.634   0.072   0.861  0.00  0.00    -0.064 NA
ATOM     20  N   UNL     1       4.410  -0.828   1.169  0.00  0.00    -0.061 NA
ATOM     21  H   UNL     1       1.562   0.421   1.208  0.00  0.00    +0.172 HD
BRANCH  16  22
ATOM     22  C   UNL     1       4.416  -3.067   2.419  0.00  0.00    +0.050 C 
ATOM     23  C   UNL     1       4.000  -4.262   1.558  0.00  0.00    +0.033 C 
ATOM     24  C   UNL     1       3.964  -3.296   3.862  0.00  0.00    +0.033 C 
BRANCH  22  26
ATOM     25  C   UNL     1       6.593  -4.232   2.804  0.00  0.00    +0.006 C 
ATOM     26  C   UNL     1       5.938  -2.916   2.379  0.00  0.00    +0.023 C 
ENDBRANCH  22  26
ENDBRANCH  16  22
ENDBRANCH   1  17
BRANCH   1  27
ATOM     27  N   UNL     1       1.918  -2.583   4.159  0.00  0.00    +0.390 N 
ATOM     28  H   UNL     1       2.840  -2.897   4.421  0.00  0.00    -0.080 HD
BRANCH  27  29
ATOM     29  C   UNL     1       1.321  -3.544   3.221  0.00  0.00    -0.042 C 
BRANCH  29  30
ATOM     30  C   UNL     1      -0.050  -3.067   2.818  0.00  0.00    -0.064 A 
ATOM     31  C   UNL     1      -1.160  -3.463   3.541  0.00  0.00    +0.002 A 
ATOM     32  C   UNL     1      -2.418  -3.025   3.171  0.00  0.00    +0.000 A 
ATOM     33  C   UNL     1      -2.566  -2.192   2.078  0.00  0.00    +0.000 A 
ATOM     34  C   UNL     1      -1.456  -1.795   1.356  0.00  0.00    +0.000 A 
ATOM     35  C   UNL     1      -0.198  -2.229   1.728  0.00  0.00    +0.002 A 
ENDBRANCH  29  30
ENDBRANCH  27  29
BRANCH  27  36
ATOM     36  C   UNL     1       1.075  -2.482   5.358  0.00  0.00    -0.040 C 
BRANCH  36  37
ATOM     37  C   UNL     1       1.394  -3.620   6.293  0.00  0.00    -0.046 A 
ATOM     38  C   UNL     1       0.751  -4.841   6.158  0.00  0.00    +0.005 A 
ATOM     39  C   UNL     1       1.076  -5.860   7.041  0.00  0.00    +0.020 A 
ATOM     40  C   UNL     1       2.024  -5.626   8.019  0.00  0.00    +0.111 A 
ATOM     41  N   UNL     1       2.616  -4.452   8.118  0.00  0.00    -0.263 NA
ATOM     42  C   UNL     1       2.336  -3.463   7.292  0.00  0.00    +0.112 A 
ENDBRANCH  36  37
ENDBRANCH  27  36
ENDBRANCH   1  27
TORSDOF 9
