REMARK  Name = ZINC59410524
REMARK  9 active torsions:
REMARK  status: ('A' for Active; 'I' for Inactive)
REMARK    1  A    between atoms: C_1  and  C_2
REMARK    2  A    between atoms: C_5  and  C_36
REMARK    3  A    between atoms: N_8  and  C_10
REMARK    4  A    between atoms: C_10  and  C_11
REMARK    5  A    between atoms: C_14  and  C_17
REMARK    6  A    between atoms: C_17  and  N_18
REMARK    7  A    between atoms: C_19  and  C_21
REMARK    8  A    between atoms: N_24  and  C_27
REMARK    9  A    between atoms: C_32  and  N_33
REMARK                            x       y       z     vdW  Elec       q    Type
REMARK                         _______ _______ _______ _____ _____    ______ ____
ROOT
ATOM      1  N   UNL     1       6.080   2.956   2.467  0.00  0.00    -0.311 N 
ATOM      2  C   UNL     1       7.203   3.675   2.270  0.00  0.00    +0.216 C 
ATOM      3  O   UNL     1       8.115   3.606   3.066  0.00  0.00    -0.276 OA
ATOM      4  H   UNL     1       5.351   3.012   1.831  0.00  0.00    +0.149 HD
ENDROOT
BRANCH   2   5
ATOM      5  C   UNL     1       7.325   4.565   1.060  0.00  0.00    +0.078 C 
ATOM      6  C   UNL     1       7.197   3.720  -0.209  0.00  0.00    +0.031 C 
ATOM      7  C   UNL     1       7.287   4.633  -1.436  0.00  0.00    +0.106 C 
ATOM      8  N   UNL     1       8.528   5.415  -1.354  0.00  0.00    -0.328 N 
ATOM      9  C   UNL     1       8.793   6.194  -0.137  0.00  0.00    +0.106 C 
ATOM     10  C   UNL     1       8.687   5.263   1.076  0.00  0.00    +0.031 C 
BRANCH   8  11
ATOM     11  C   UNL     1       9.438   5.419  -2.413  0.00  0.00    +0.060 A 
ATOM     12  C   UNL     1      10.509   4.533  -2.414  0.00  0.00    +0.025 A 
ATOM     13  C   UNL     1      11.407   4.539  -3.463  0.00  0.00    +0.002 A 
ATOM     14  C   UNL     1      11.242   5.425  -4.512  0.00  0.00    +0.002 A 
ATOM     15  C   UNL     1      10.178   6.308  -4.514  0.00  0.00    +0.034 A 
ATOM     16  C   UNL     1       9.273   6.304  -3.471  0.00  0.00    +0.147 A 
BRANCH  16  17
ATOM     17  N   UNL     1       8.131   7.245  -3.477  0.00  0.00    +0.058 N 
ATOM     18  O   UNL     1       7.929   7.946  -4.442  0.00  0.00    -0.126 OA
ATOM     19  O   UNL     1       7.399   7.315  -2.517  0.00  0.00    -0.126 OA
ENDBRANCH  16  17
ENDBRANCH   8  11
ENDBRANCH   2   5
BRANCH   1  20
ATOM     20  C   UNL     1       5.962   2.091   3.643  0.00  0.00    +0.139 C 
BRANCH  20  24
ATOM     21  C   UNL     1       2.161   0.141   3.602  0.00  0.00    -0.064 A 
ATOM     22  C   UNL     1       3.249  -0.451   2.988  0.00  0.00    +0.002 A 
ATOM     23  C   UNL     1       4.478   0.180   3.001  0.00  0.00    +0.005 A 
ATOM     24  C   UNL     1       4.621   1.403   3.628  0.00  0.00    -0.030 A 
ATOM     25  C   UNL     1       3.533   1.996   4.242  0.00  0.00    +0.005 A 
ATOM     26  C   UNL     1       2.303   1.367   4.226  0.00  0.00    +0.002 A 
BRANCH  21  27
ATOM     27  C   UNL     1       0.821  -0.547   3.588  0.00  0.00    -0.043 C 
BRANCH  27  33
ATOM     28  C   UNL     1      -0.002   1.433  -0.047  0.00  0.00    +0.005 C 
ATOM     29  C   UNL     1       0.033  -0.097  -0.054  0.00  0.00    -0.031 C 
ATOM     30  C   UNL     1      -1.399  -0.641  -0.049  0.00  0.00    +0.003 C 
ATOM     31  C   UNL     1      -2.093  -0.211   1.247  0.00  0.00    -0.031 C 
ATOM     32  C   UNL     1      -1.280  -0.707   2.444  0.00  0.00    -0.075 C 
ATOM     33  N   UNL     1       0.069  -0.131   2.396  0.00  0.00    +0.383 N 
ATOM     34  C   UNL     1       0.768  -0.597   1.192  0.00  0.00    -0.075 C 
ATOM     35  C   UNL     1      -3.498  -0.814   1.298  0.00  0.00    +0.005 C 
ATOM     36  H   UNL     1       0.004   0.876   2.377  0.00  0.00    -0.081 HD
ENDBRANCH  27  33
ENDBRANCH  21  27
ENDBRANCH  20  24
ENDBRANCH   1  20
TORSDOF 7
