REMARK  Name = ZINC04733327
REMARK  4 active torsions:
REMARK  status: ('A' for Active; 'I' for Inactive)
REMARK    1  A    between atoms: C_3  and  C_6
REMARK    2  A    between atoms: N_8  and  C_9
REMARK    3  A    between atoms: C_9  and  N_11
REMARK    4  A    between atoms: N_11  and  C_12
REMARK                            x       y       z     vdW  Elec       q    Type
REMARK                         _______ _______ _______ _____ _____    ______ ____
ROOT
ATOM      1  N   UNL     1       5.849   2.694  -0.037  0.00  0.00    -0.297 N 
ATOM      2  H   UNL     1       5.662   3.608  -0.302  0.00  0.00    +0.154 HD
ENDROOT
BRANCH   1   3
ATOM      3  C   UNL     1       7.174   2.248   0.054  0.00  0.00    +0.034 A 
ATOM      4  C   UNL     1       8.110   2.616  -0.910  0.00  0.00    +0.025 A 
ATOM      5  C   UNL     1       9.411   2.191  -0.840  0.00  0.00    +0.031 A 
ATOM      6  C   UNL     1       9.847   1.362   0.219  0.00  0.00    +0.080 A 
ATOM      7  C   UNL     1       8.873   1.008   1.179  0.00  0.00    +0.043 A 
ATOM      8  C   UNL     1       7.572   1.439   1.111  0.00  0.00    +0.040 A 
ATOM      9  S   UNL     1       9.801  -0.008   2.303  0.00  0.00    -0.053 S 
ATOM     10  C   UNL     1      11.371   0.096   1.457  0.00  0.00    +0.157 A 
ATOM     11  N   UNL     1      11.086   0.861   0.429  0.00  0.00    -0.225 NA
ATOM     12  N   UNL     1      12.578  -0.482   1.798  0.00  0.00    -0.337 N 
ATOM     13  H   UNL     1      13.359  -0.339   1.240  0.00  0.00    +0.144 HD
ATOM     14  H   UNL     1      12.646  -1.030   2.595  0.00  0.00    +0.144 HD
ENDBRANCH   1   3
BRANCH   1  15
ATOM     15  C   UNL     1       4.834   1.853   0.242  0.00  0.00    +0.141 C 
ATOM     16  S   UNL     1       5.155   0.203   0.570  0.00  0.00    -0.018 S 
BRANCH  15  19
ATOM     17  C   UNL     1       2.551   1.468   0.541  0.00  0.00    +0.256 C 
ATOM     18  O   UNL     1       2.779   0.296   0.775  0.00  0.00    -0.269 OA
ATOM     19  N   UNL     1       3.566   2.309   0.262  0.00  0.00    -0.263 N 
ATOM     20  H   UNL     1       3.384   3.244   0.076  0.00  0.00    +0.157 HD
BRANCH  17  23
ATOM     21  C   UNL     1      -1.171   1.989   0.775  0.00  0.00    +0.008 A 
ATOM     22  C   UNL     1      -0.001   1.274   0.825  0.00  0.00    +0.021 A 
ATOM     23  C   UNL     1       1.173   1.964   0.564  0.00  0.00    +0.074 A 
ATOM     24  S   UNL     1       0.568   3.615   0.263  0.00  0.00    -0.092 S 
ATOM     25  C   UNL     1      -1.125   3.317   0.488  0.00  0.00    +0.046 A 
ENDBRANCH  17  23
ENDBRANCH  15  19
ENDBRANCH   1  15
TORSDOF 4
