REMARK  Name = ZINC09637153
REMARK  7 active torsions:
REMARK  status: ('A' for Active; 'I' for Inactive)
REMARK    1  A    between atoms: C_1  and  C_2
REMARK    2  A    between atoms: C_2  and  C_3
REMARK    3  A    between atoms: C_8  and  N_9
REMARK    4  A    between atoms: C_10  and  C_12
REMARK    5  A    between atoms: C_12  and  N_60
REMARK    6  A    between atoms: C_18  and  C_20
REMARK    7  A    between atoms: C_23  and  C_25
REMARK                            x       y       z     vdW  Elec       q    Type
REMARK                         _______ _______ _______ _____ _____    ______ ____
ROOT
ATOM      1  C   UNL     1       2.186   0.557   0.916  0.00  0.00    -0.059 C 
ATOM      2  C   UNL     1       3.121  -0.652   0.809  0.00  0.00    +0.089 C 
ATOM      3  N   UNL     1       4.476  -0.169   0.500  0.00  0.00    -0.299 N 
ATOM      4  C   UNL     1       4.643   0.756  -0.631  0.00  0.00    +0.089 C 
ATOM      5  C   UNL     1       3.648   1.910  -0.467  0.00  0.00    -0.059 C 
ATOM      6  C   UNL     1       5.535  -0.565   1.233  0.00  0.00    +0.282 C 
ATOM      7  O   UNL     1       6.629  -0.067   1.039  0.00  0.00    -0.267 OA
ATOM      8  N   UNL     1       2.287   1.347  -0.331  0.00  0.00    +0.387 N 
ATOM      9  H   UNL     1       2.099   0.732  -1.131  0.00  0.00    -0.081 HD
ENDROOT
BRANCH   6  10
ATOM     10  C   UNL     1       5.370  -1.595   2.264  0.00  0.00    +0.190 A 
ATOM     11  C   UNL     1       6.328  -1.986   3.173  0.00  0.00    +0.055 A 
ATOM     12  C   UNL     1       5.752  -2.986   3.964  0.00  0.00    +0.053 A 
ATOM     13  C   UNL     1       4.466  -3.167   3.507  0.00  0.00    +0.161 A 
ATOM     14  O   UNL     1       4.253  -2.317   2.487  0.00  0.00    -0.448 OA
BRANCH  13  15
ATOM     15  C   UNL     1       3.488  -4.125   4.047  0.00  0.00    +0.145 A 
ATOM     16  N   UNL     1       3.629  -4.982   5.037  0.00  0.00    -0.236 NA
ATOM     17  C   UNL     1       2.644  -5.801   5.431  0.00  0.00    +0.079 A 
ATOM     18  C   UNL     1       2.667  -6.758   6.475  0.00  0.00    +0.029 A 
ATOM     19  C   UNL     1       1.575  -7.520   6.745  0.00  0.00    +0.002 A 
ATOM     20  C   UNL     1       0.400  -7.396   6.016  0.00  0.00    +0.001 A 
ATOM     21  C   UNL     1       0.334  -6.475   4.988  0.00  0.00    +0.017 A 
ATOM     22  C   UNL     1       1.432  -5.699   4.706  0.00  0.00    +0.040 A 
ATOM     23  S   UNL     1       1.806  -4.428   3.522  0.00  0.00    -0.064 S 
ENDBRANCH  13  15
ENDBRANCH   6  10
BRANCH   8  24
ATOM     24  C   UNL     1       1.289   2.437  -0.319  0.00  0.00    +0.019 C 
BRANCH  24  26
ATOM     25  N   UNL     1      -1.174   2.632  -0.429  0.00  0.00    -0.287 N 
ATOM     26  C   UNL     1      -0.089   1.833  -0.399  0.00  0.00    +0.201 C 
ATOM     27  O   UNL     1      -0.222   0.628  -0.442  0.00  0.00    -0.278 OA
ATOM     28  H   UNL     1      -1.074   3.591  -0.317  0.00  0.00    +0.155 HD
BRANCH  25  34
ATOM     29  C   UNL     1      -3.551   2.646  -0.004  0.00  0.00    -0.026 A 
ATOM     30  C   UNL     1      -4.805   2.098  -0.197  0.00  0.00    +0.005 A 
ATOM     31  C   UNL     1      -4.958   0.988  -1.006  0.00  0.00    +0.000 A 
ATOM     32  C   UNL     1      -3.858   0.422  -1.624  0.00  0.00    +0.002 A 
ATOM     33  C   UNL     1      -2.603   0.967  -1.439  0.00  0.00    +0.023 A 
ATOM     34  C   UNL     1      -2.445   2.080  -0.623  0.00  0.00    +0.036 A 
BRANCH  29  36
ATOM     35  C   UNL     1      -3.404   5.121   0.016  0.00  0.00    +0.009 C 
ATOM     36  C   UNL     1      -3.385   3.857   0.878  0.00  0.00    +0.033 C 
ENDBRANCH  29  36
ENDBRANCH  25  34
ENDBRANCH  24  26
ENDBRANCH   8  24
TORSDOF 6
