REMARK  Name = ZINC09647178
REMARK  8 active torsions:
REMARK  status: ('A' for Active; 'I' for Inactive)
REMARK    1  A    between atoms: C_3  and  S_25
REMARK    2  A    between atoms: C_6  and  C_7
REMARK    3  A    between atoms: C_8  and  C_9
REMARK    4  A    between atoms: C_9  and  O_11
REMARK    5  A    between atoms: O_11  and  C_12
REMARK    6  A    between atoms: C_12  and  C_13
REMARK    7  A    between atoms: N_18  and  C_19
REMARK    8  A    between atoms: S_25  and  N_28
REMARK                            x       y       z     vdW  Elec       q    Type
REMARK                         _______ _______ _______ _____ _____    ______ ____
ROOT
ATOM      1  C   UNL     1      -2.999  -3.756   0.011  0.00  0.00    +0.015 C 
ATOM      2  C   UNL     1      -2.841  -2.416   0.016  0.00  0.00    +0.092 C 
ENDROOT
BRANCH   1   8
ATOM      3  C   UNL     1      -5.474  -3.503   0.041  0.00  0.00    +0.010 A 
ATOM      4  C   UNL     1      -6.738  -4.055   0.044  0.00  0.00    +0.029 A 
ATOM      5  C   UNL     1      -6.896  -5.430   0.039  0.00  0.00    +0.106 A 
ATOM      6  C   UNL     1      -5.790  -6.261   0.024  0.00  0.00    +0.029 A 
ATOM      7  C   UNL     1      -4.520  -5.725   0.015  0.00  0.00    +0.010 A 
ATOM      8  C   UNL     1      -4.351  -4.336   0.020  0.00  0.00    -0.025 A 
BRANCH   5   9
ATOM      9  S   UNL     1      -8.515  -6.125   0.051  0.00  0.00    +0.061 S 
ATOM     10  O   UNL     1      -9.385  -5.139  -0.486  0.00  0.00    -0.153 OA
ATOM     11  O   UNL     1      -8.402  -7.427  -0.508  0.00  0.00    -0.153 OA
BRANCH   9  12
ATOM     12  N   UNL     1      -8.950  -6.327   1.636  0.00  0.00    -0.177 NA
ATOM     13  C   UNL     1      -8.636  -7.579   2.287  0.00  0.00    +0.109 C 
ATOM     14  C   UNL     1      -9.793  -8.580   2.086  0.00  0.00    +0.017 C 
ATOM     15  C   UNL     1     -10.961  -8.177   2.884  0.00  0.00    +0.001 C 
ATOM     16  C   UNL     1     -11.555  -6.827   2.492  0.00  0.00    +0.001 C 
ATOM     17  C   UNL     1     -10.806  -5.726   3.203  0.00  0.00    +0.017 C 
ATOM     18  C   UNL     1      -9.647  -5.223   2.325  0.00  0.00    +0.109 C 
ENDBRANCH   9  12
ENDBRANCH   5   9
ENDBRANCH   1   8
BRANCH   2  19
ATOM     19  C   UNL     1      -1.497  -1.838   0.006  0.00  0.00    +0.332 C 
ATOM     20  O   UNL     1      -0.523  -2.566  -0.007  0.00  0.00    -0.246 OA
BRANCH  19  21
ATOM     21  O   UNL     1      -1.339  -0.499   0.012  0.00  0.00    -0.452 OA
BRANCH  21  22
ATOM     22  C   UNL     1       0.002  -0.004   0.002  0.00  0.00    +0.328 C 
BRANCH  22  23
ATOM     23  C   UNL     1      -0.018   1.503   0.010  0.00  0.00    +0.258 C 
ATOM     24  O   UNL     1      -1.076   2.095   0.018  0.00  0.00    -0.272 OA
ATOM     25  N   UNL     1       1.139   2.192   0.003  0.00  0.00    -0.237 N 
ATOM     26  C   UNL     1       1.121   3.540   0.010  0.00  0.00    +0.306 C 
ATOM     27  O   UNL     1       0.061   4.133   0.024  0.00  0.00    -0.252 OA
ATOM     28  N   UNL     1       2.279   4.230   0.003  0.00  0.00    -0.296 N 
ATOM     29  H   UNL     1       1.986   1.719  -0.008  0.00  0.00    +0.159 HD
ATOM     30  H   UNL     1       3.126   3.756  -0.008  0.00  0.00    +0.151 HD
BRANCH  28  31
ATOM     31  C   UNL     1       2.259   5.695   0.011  0.00  0.00    +0.074 C 
ATOM     32  C   UNL     1       2.113   6.211  -1.422  0.00  0.00    +0.022 C 
ATOM     33  C   UNL     1       2.092   7.740  -1.413  0.00  0.00    +0.002 C 
ATOM     34  C   UNL     1       3.398   8.265  -0.813  0.00  0.00    +0.000 C 
ATOM     35  C   UNL     1       3.545   7.749   0.620  0.00  0.00    +0.002 C 
ATOM     36  C   UNL     1       3.565   6.219   0.611  0.00  0.00    +0.022 C 
ENDBRANCH  28  31
ENDBRANCH  22  23
ENDBRANCH  21  22
ENDBRANCH  19  21
ENDBRANCH   2  19
TORSDOF 8
