REMARK  Name = ZINC59730344
REMARK  7 active torsions:
REMARK  status: ('A' for Active; 'I' for Inactive)
REMARK    1  A    between atoms: C_4  and  C_7
REMARK    2  A    between atoms: C_7  and  N_8
REMARK    3  A    between atoms: C_9  and  C_11
REMARK    4  A    between atoms: C_11  and  N_19
REMARK    5  A    between atoms: C_12  and  C_13
REMARK    6  A    between atoms: C_20  and  C_22
REMARK    7  A    between atoms: C_25  and  N_28
REMARK                            x       y       z     vdW  Elec       q    Type
REMARK                         _______ _______ _______ _____ _____    ______ ____
ROOT
ATOM      1  N   UNL     1       7.132  -2.635   2.990  0.00  0.00    -0.277 N 
ATOM      2  C   UNL     1       7.786  -2.990   1.866  0.00  0.00    +0.248 C 
ATOM      3  O   UNL     1       7.381  -2.615   0.783  0.00  0.00    -0.270 OA
ATOM      4  H   UNL     1       7.494  -2.874   3.857  0.00  0.00    +0.155 HD
ENDROOT
BRANCH   2   5
ATOM      5  C   UNL     1       8.994  -3.833   1.950  0.00  0.00    +0.037 A 
ATOM      6  C   UNL     1       9.458  -4.270   3.194  0.00  0.00    +0.015 A 
ATOM      7  C   UNL     1      10.586  -5.057   3.269  0.00  0.00    +0.025 A 
ATOM      8  C   UNL     1      11.262  -5.418   2.109  0.00  0.00    +0.045 A 
ATOM      9  C   UNL     1      10.803  -4.985   0.869  0.00  0.00    +0.025 A 
ATOM     10  C   UNL     1       9.674  -4.202   0.786  0.00  0.00    +0.015 A 
BRANCH   8  11
ATOM     11  N   UNL     1      12.406  -6.216   2.189  0.00  0.00    -0.202 N 
ATOM     12  C   UNL     1      12.926  -6.689   3.336  0.00  0.00    +0.258 C 
ATOM     13  O   UNL     1      12.482  -6.492   4.449  0.00  0.00    -0.269 OA
ATOM     14  C   UNL     1      14.127  -7.488   3.015  0.00  0.00    +0.050 A 
ATOM     15  C   UNL     1      15.046  -8.199   3.769  0.00  0.00    +0.014 A 
ATOM     16  C   UNL     1      16.090  -8.858   3.139  0.00  0.00    +0.001 A 
ATOM     17  C   UNL     1      16.218  -8.811   1.763  0.00  0.00    +0.001 A 
ATOM     18  C   UNL     1      15.306  -8.104   0.995  0.00  0.00    +0.014 A 
ATOM     19  C   UNL     1      14.258  -7.440   1.612  0.00  0.00    +0.050 A 
ATOM     20  C   UNL     1      13.129  -6.618   1.128  0.00  0.00    +0.258 C 
ATOM     21  O   UNL     1      12.895  -6.349  -0.033  0.00  0.00    -0.269 OA
ENDBRANCH   8  11
ENDBRANCH   2   5
BRANCH   1  22
ATOM     22  C   UNL     1       5.932  -1.924   2.905  0.00  0.00    +0.097 C 
ATOM     23  C   UNL     1       5.334  -1.470   4.030  0.00  0.00    +0.036 C 
BRANCH  23  24
ATOM     24  C   UNL     1       3.996  -0.862   3.958  0.00  0.00    -0.023 A 
ATOM     25  C   UNL     1       3.089  -1.273   2.976  0.00  0.00    +0.008 A 
ATOM     26  C   UNL     1       1.837  -0.698   2.915  0.00  0.00    +0.001 A 
ATOM     27  C   UNL     1       1.477   0.283   3.822  0.00  0.00    +0.000 A 
ATOM     28  C   UNL     1       2.369   0.695   4.797  0.00  0.00    +0.001 A 
ATOM     29  C   UNL     1       3.623   0.127   4.875  0.00  0.00    +0.008 A 
ENDBRANCH  23  24
BRANCH  22  31
ATOM     30  N   UNL     1       5.250  -0.412   1.114  0.00  0.00    -0.306 N 
ATOM     31  C   UNL     1       5.319  -1.669   1.593  0.00  0.00    +0.259 C 
ATOM     32  O   UNL     1       4.875  -2.594   0.939  0.00  0.00    -0.269 OA
ATOM     33  H   UNL     1       5.668   0.316   1.600  0.00  0.00    +0.149 HD
BRANCH  30  34
ATOM     34  C   UNL     1       4.543  -0.143  -0.141  0.00  0.00    +0.140 C 
BRANCH  34  38
ATOM     35  C   UNL     1       5.031   3.966  -1.202  0.00  0.00    +0.000 A 
ATOM     36  C   UNL     1       5.995   3.041  -1.559  0.00  0.00    +0.000 A 
ATOM     37  C   UNL     1       5.837   1.711  -1.215  0.00  0.00    +0.005 A 
ATOM     38  C   UNL     1       4.716   1.306  -0.515  0.00  0.00    -0.030 A 
ATOM     39  C   UNL     1       3.753   2.231  -0.158  0.00  0.00    +0.005 A 
ATOM     40  C   UNL     1       3.910   3.561  -0.503  0.00  0.00    +0.000 A 
ENDBRANCH  34  38
ENDBRANCH  30  34
ENDBRANCH  22  31
ENDBRANCH   1  22
TORSDOF 7
