REMARK  Name = ZINC38634202
REMARK  12 active torsions:
REMARK  status: ('A' for Active; 'I' for Inactive)
REMARK    1  A    between atoms: C_1  and  C_2
REMARK    2  A    between atoms: C_2  and  C_3
REMARK    3  A    between atoms: C_2  and  C_4
REMARK    4  A    between atoms: C_4  and  C_5
REMARK    5  A    between atoms: C_7  and  N_28
REMARK    6  A    between atoms: C_10  and  O_11
REMARK    7  A    between atoms: C_16  and  N_25
REMARK    8  A    between atoms: C_18  and  C_21
REMARK    9  A    between atoms: C_19  and  O_20
REMARK   10  A    between atoms: C_21  and  C_22
REMARK   11  A    between atoms: C_22  and  C_23
REMARK   12  A    between atoms: C_22  and  C_24
REMARK                            x       y       z     vdW  Elec       q    Type
REMARK                         _______ _______ _______ _____ _____    ______ ____
ROOT
ATOM      1  C   UNL     1      -1.416  -2.035  -0.119  0.00  0.00    -0.003 A 
ATOM      2  C   UNL     1      -1.554  -2.611  -1.361  0.00  0.00    +0.030 A 
ATOM      3  C   UNL     1      -1.542  -4.001  -1.505  0.00  0.00    +0.037 A 
ATOM      4  C   UNL     1      -1.388  -4.808  -0.378  0.00  0.00    +0.057 A 
ATOM      5  C   UNL     1      -1.244  -4.213   0.896  0.00  0.00    +0.077 A 
ATOM      6  C   UNL     1      -1.254  -2.827   1.018  0.00  0.00    +0.132 A 
ATOM      7  C   UNL     1      -1.078  -5.090   2.075  0.00  0.00    +0.202 C 
ATOM      8  O   UNL     1      -1.389  -4.713   3.189  0.00  0.00    -0.286 OA
ATOM      9  C   UNL     1      -0.521  -6.441   1.851  0.00  0.00    +0.077 A 
ATOM     10  C   UNL     1      -0.668  -7.034   0.577  0.00  0.00    +0.057 A 
ATOM     11  C   UNL     1      -0.152  -8.309   0.343  0.00  0.00    +0.037 A 
ATOM     12  C   UNL     1       0.507  -8.985   1.373  0.00  0.00    +0.030 A 
ATOM     13  C   UNL     1       0.651  -8.404   2.612  0.00  0.00    -0.003 A 
ATOM     14  C   UNL     1       0.140  -7.130   2.864  0.00  0.00    +0.132 A 
ATOM     15  C   UNL     1      -1.370  -6.281  -0.482  0.00  0.00    +0.198 C 
ATOM     16  O   UNL     1      -1.915  -6.854  -1.407  0.00  0.00    -0.286 OA
ENDROOT
BRANCH  11  17
ATOM     17  N   UNL     1      -0.294  -8.902  -0.904  0.00  0.00    -0.357 N 
ATOM     18  H   UNL     1      -0.752  -8.429  -1.616  0.00  0.00    +0.142 HD
ATOM     19  H   UNL     1       0.067  -9.788  -1.063  0.00  0.00    +0.142 HD
ENDBRANCH  11  17
BRANCH   3  20
ATOM     20  N   UNL     1      -1.682  -4.575  -2.761  0.00  0.00    -0.357 N 
ATOM     21  H   UNL     1      -1.789  -4.010  -3.543  0.00  0.00    +0.142 HD
ATOM     22  H   UNL     1      -1.673  -5.540  -2.857  0.00  0.00    +0.142 HD
ENDBRANCH   3  20
BRANCH   6  23
ATOM     23  O   UNL     1      -1.114  -2.248   2.237  0.00  0.00    -0.506 OA
ATOM     24  H   UNL     1      -1.949  -2.100   2.701  0.00  0.00    +0.292 HD
ENDBRANCH   6  23
BRANCH  14  25
ATOM     25  O   UNL     1       0.288  -6.566   4.089  0.00  0.00    -0.506 OA
ATOM     26  H   UNL     1      -0.436  -6.760   4.701  0.00  0.00    +0.292 HD
ENDBRANCH  14  25
BRANCH   1  27
ATOM     27  C   UNL     1      -1.433  -0.534   0.013  0.00  0.00    +0.042 C 
BRANCH  27  29
ATOM     28  C   UNL     1      -0.019   1.526   0.010  0.00  0.00    +0.007 C 
ATOM     29  C   UNL     1       0.002  -0.004   0.002  0.00  0.00    -0.013 C 
ATOM     30  C   UNL     1       0.742  -0.511   1.242  0.00  0.00    +0.007 C 
ENDBRANCH  27  29
ENDBRANCH   1  27
BRANCH  13  31
ATOM     31  C   UNL     1       1.367  -9.151   3.708  0.00  0.00    +0.042 C 
BRANCH  31  32
ATOM     32  C   UNL     1       0.344  -9.889   4.574  0.00  0.00    -0.013 C 
ATOM     33  C   UNL     1      -0.351 -10.965   3.738  0.00  0.00    +0.007 C 
ATOM     34  C   UNL     1       1.057 -10.545   5.758  0.00  0.00    +0.007 C 
ENDBRANCH  31  32
ENDBRANCH  13  31
TORSDOF 8
