REMARK  Name = ZINC36593856
REMARK  5 active torsions:
REMARK  status: ('A' for Active; 'I' for Inactive)
REMARK    1  A    between atoms: C_4  and  C_7
REMARK    2  A    between atoms: C_7  and  N_8
REMARK    3  A    between atoms: C_11  and  N_14
REMARK    4  A    between atoms: C_15  and  C_17
REMARK    5  A    between atoms: C_17  and  C_18
REMARK                            x       y       z     vdW  Elec       q    Type
REMARK                         _______ _______ _______ _____ _____    ______ ____
ROOT
ATOM      1  N   UNL     1       5.449  -2.776   4.914  0.00  0.00    -0.313 N 
ATOM      2  C   UNL     1       6.370  -3.698   5.258  0.00  0.00    +0.215 C 
ATOM      3  O   UNL     1       6.842  -4.429   4.414  0.00  0.00    -0.276 OA
ATOM      4  H   UNL     1       5.071  -2.192   5.589  0.00  0.00    +0.149 HD
ENDROOT
BRANCH   1   8
ATOM      5  N   UNL     1       4.153  -0.953   1.342  0.00  0.00    +0.382 N 
ATOM      6  C   UNL     1       3.203  -1.854   2.005  0.00  0.00    -0.077 C 
ATOM      7  C   UNL     1       3.614  -2.050   3.466  0.00  0.00    +0.003 C 
ATOM      8  C   UNL     1       5.019  -2.657   3.518  0.00  0.00    +0.069 C 
ATOM      9  C   UNL     1       5.987  -1.746   2.760  0.00  0.00    +0.003 C 
ATOM     10  C   UNL     1       5.489  -1.562   1.325  0.00  0.00    -0.077 C 
ATOM     11  H   UNL     1       4.190  -0.078   1.843  0.00  0.00    -0.081 HD
BRANCH   5  12
ATOM     12  C   UNL     1       3.711  -0.707  -0.038  0.00  0.00    -0.043 C 
BRANCH  12  16
ATOM     13  C   UNL     1      -0.017   1.378   0.010  0.00  0.00    +0.000 A 
ATOM     14  C   UNL     1       1.171   2.086   0.002  0.00  0.00    +0.000 A 
ATOM     15  C   UNL     1       2.377   1.411  -0.013  0.00  0.00    +0.002 A 
ATOM     16  C   UNL     1       2.396   0.029  -0.020  0.00  0.00    -0.064 A 
ATOM     17  C   UNL     1       1.208  -0.679  -0.012  0.00  0.00    +0.002 A 
ATOM     18  C   UNL     1       0.002  -0.004   0.002  0.00  0.00    +0.000 A 
ENDBRANCH  12  16
ENDBRANCH   5  12
ENDBRANCH   1   8
BRANCH   2  19
ATOM     19  C   UNL     1       6.813  -3.821   6.694  0.00  0.00    +0.127 C 
BRANCH  19  20
ATOM     20  C   UNL     1       7.856  -4.934   6.812  0.00  0.00    +0.168 C 
ATOM     21  C   UNL     1       8.213  -5.137   8.259  0.00  0.00    +0.238 C 
ATOM     22  O   UNL     1       8.087  -6.240   8.748  0.00  0.00    -0.273 OA
ATOM     23  N   UNL     1       8.665  -4.143   9.018  0.00  0.00    -0.283 N 
ATOM     24  C   UNL     1       8.815  -2.827   8.617  0.00  0.00    +0.046 A 
ATOM     25  C   UNL     1       8.443  -1.834   9.527  0.00  0.00    +0.024 A 
ATOM     26  C   UNL     1       8.568  -0.502   9.202  0.00  0.00    +0.002 A 
ATOM     27  C   UNL     1       9.066  -0.131   7.964  0.00  0.00    +0.001 A 
ATOM     28  C   UNL     1       9.436  -1.093   7.054  0.00  0.00    +0.015 A 
ATOM     29  C   UNL     1       9.313  -2.457   7.369  0.00  0.00    +0.058 A 
ATOM     30  C   UNL     1       9.717  -3.428   6.346  0.00  0.00    +0.246 C 
ATOM     31  O   UNL     1      10.720  -3.188   5.701  0.00  0.00    -0.270 OA
ATOM     32  N   UNL     1       9.061  -4.557   6.073  0.00  0.00    -0.300 N 
ATOM     33  H   UNL     1       8.909  -4.358   9.932  0.00  0.00    +0.155 HD
ATOM     34  H   UNL     1       9.389  -5.142   5.372  0.00  0.00    +0.150 HD
ENDBRANCH  19  20
ENDBRANCH   2  19
TORSDOF 5
