REMARK  Name = ZINC04491841
REMARK  5 active torsions:
REMARK  status: ('A' for Active; 'I' for Inactive)
REMARK    1  A    between atoms: C_3  and  O_24
REMARK    2  A    between atoms: C_4  and  O_23
REMARK    3  A    between atoms: C_6  and  C_7
REMARK    4  A    between atoms: N_9  and  N_10
REMARK    5  A    between atoms: C_11  and  C_13
REMARK                            x       y       z     vdW  Elec       q    Type
REMARK                         _______ _______ _______ _____ _____    ______ ____
ROOT
ATOM      1  C   UNL     1      -1.658   5.108   2.846  0.00  0.00    +0.260 C 
ATOM      2  O   UNL     1      -1.214   5.908   2.046  0.00  0.00    -0.269 OA
ATOM      3  N   UNL     1      -1.519   3.786   2.625  0.00  0.00    -0.230 N 
ATOM      4  H   UNL     1      -1.873   3.147   3.263  0.00  0.00    +0.173 HD
ENDROOT
BRANCH   1  10
ATOM      5  C   UNL     1      -2.864   4.665   4.978  0.00  0.00    +0.017 A 
ATOM      6  C   UNL     1      -3.504   5.112   6.114  0.00  0.00    +0.050 A 
ATOM      7  C   UNL     1      -3.649   6.473   6.344  0.00  0.00    +0.158 A 
ATOM      8  C   UNL     1      -3.142   7.395   5.430  0.00  0.00    +0.159 A 
ATOM      9  C   UNL     1      -2.494   6.955   4.292  0.00  0.00    +0.062 A 
ATOM     10  C   UNL     1      -2.349   5.584   4.061  0.00  0.00    +0.042 A 
BRANCH   8  11
ATOM     11  O   UNL     1      -3.284   8.728   5.658  0.00  0.00    -0.503 OA
ATOM     12  H   UNL     1      -4.094   9.106   5.290  0.00  0.00    +0.292 HD
ENDBRANCH   8  11
BRANCH   7  13
ATOM     13  O   UNL     1      -4.285   6.907   7.462  0.00  0.00    -0.503 OA
ATOM     14  H   UNL     1      -5.239   7.025   7.351  0.00  0.00    +0.292 HD
ENDBRANCH   7  13
ENDBRANCH   1  10
BRANCH   3  15
ATOM     15  N   UNL     1      -0.863   3.334   1.472  0.00  0.00    -0.234 N 
ATOM     16  C   UNL     1      -0.724   2.012   1.250  0.00  0.00    +0.235 C 
ATOM     17  O   UNL     1      -1.167   1.213   2.049  0.00  0.00    -0.274 OA
ATOM     18  H   UNL     1      -0.509   3.973   0.834  0.00  0.00    +0.173 HD
BRANCH  16  19
ATOM     19  C   UNL     1      -0.019   1.526   0.010  0.00  0.00    +0.049 C 
ATOM     20  C   UNL     1       1.417   2.055  -0.000  0.00  0.00    +0.019 C 
ATOM     21  C   UNL     1       2.133   1.562  -1.259  0.00  0.00    -0.009 C 
ATOM     22  C   UNL     1       2.154   0.032  -1.268  0.00  0.00    +0.007 C 
ATOM     23  C   UNL     1       0.718  -0.497  -1.257  0.00  0.00    -0.009 C 
ATOM     24  C   UNL     1       0.002  -0.004   0.002  0.00  0.00    +0.019 C 
ATOM     25  C   UNL     1      -0.022   0.009  -2.496  0.00  0.00    +0.007 C 
ATOM     26  C   UNL     1      -0.043   1.539  -2.488  0.00  0.00    -0.009 C 
ATOM     27  C   UNL     1       1.393   2.069  -2.499  0.00  0.00    +0.007 C 
ATOM     28  C   UNL     1      -0.759   2.033  -1.229  0.00  0.00    +0.019 C 
ENDBRANCH  16  19
ENDBRANCH   3  15
TORSDOF 5
