REMARK  Name = ZINC25498451
REMARK  4 active torsions:
REMARK  status: ('A' for Active; 'I' for Inactive)
REMARK    1  A    between atoms: C_3  and  O_20
REMARK    2  A    between atoms: C_4  and  C_10
REMARK    3  A    between atoms: C_6  and  N_7
REMARK    4  A    between atoms: C_10  and  C_11
REMARK                            x       y       z     vdW  Elec       q    Type
REMARK                         _______ _______ _______ _____ _____    ______ ____
ROOT
ATOM      1  C   UNL     1      -4.995   1.126   0.033  0.00  0.00    +0.085 C 
ENDROOT
BRANCH   1   2
ATOM      2  C   UNL     1      -5.483   0.967   1.450  0.00  0.00    +0.085 A 
ATOM      3  C   UNL     1      -5.026  -0.078   2.247  0.00  0.00    +0.259 A 
ATOM      4  N   UNL     1      -5.473  -0.184   3.494  0.00  0.00    -0.302 N 
ATOM      5  C   UNL     1      -6.352   0.683   3.975  0.00  0.00    +0.161 A 
ATOM      6  N   UNL     1      -6.813   1.686   3.243  0.00  0.00    -0.302 N 
ATOM      7  C   UNL     1      -6.404   1.857   1.990  0.00  0.00    +0.259 A 
ATOM      8  O   UNL     1      -6.881   2.885   1.247  0.00  0.00    -0.267 OA
ATOM      9  S   UNL     1      -6.921   0.497   5.632  0.00  0.00    -0.013 S 
ATOM     10  O   UNL     1      -4.131  -0.972   1.759  0.00  0.00    -0.267 OA
ATOM     11  H   UNL     1      -5.105  -1.004   4.128  0.00  0.00    +0.171 HD
ATOM     12  H   UNL     1      -7.542   2.382   3.683  0.00  0.00    +0.171 HD
ENDBRANCH   1   2
BRANCH   1  16
ATOM     13  C   UNL     1      -1.343   3.348   0.025  0.00  0.00    +0.036 A 
ATOM     14  C   UNL     1      -1.816   2.800  -1.151  0.00  0.00    +0.048 A 
ATOM     15  C   UNL     1      -3.002   2.080  -1.152  0.00  0.00    +0.120 A 
ATOM     16  C   UNL     1      -3.707   1.908   0.030  0.00  0.00    +0.001 A 
ATOM     17  C   UNL     1      -3.227   2.453   1.205  0.00  0.00    +0.040 A 
ATOM     18  C   UNL     1      -2.044   3.170   1.203  0.00  0.00    +0.127 A 
BRANCH  18  19
ATOM     19  N   UNL     1      -1.532   3.754   2.463  0.00  0.00    +0.056 N 
ATOM     20  O   UNL     1      -2.152   3.602   3.501  0.00  0.00    -0.126 OA
ATOM     21  O   UNL     1      -0.488   4.381   2.463  0.00  0.00    -0.126 OA
ENDBRANCH  18  19
BRANCH  15  22
ATOM     22  O   UNL     1      -3.472   1.544  -2.309  0.00  0.00    -0.506 OA
ATOM     23  H   UNL     1      -4.412   0.973  -2.309  0.00  0.00    +0.292 HD
ENDBRANCH  15  22
ENDBRANCH   1  16
TORSDOF 4
