REMARK  Name = ZINC05833428
REMARK  8 active torsions:
REMARK  status: ('A' for Active; 'I' for Inactive)
REMARK    1  A    between atoms: C_1  and  C_2
REMARK    2  A    between atoms: C_3  and  C_4
REMARK    3  A    between atoms: C_11  and  C_32
REMARK    4  A    between atoms: C_17  and  C_18
REMARK    5  A    between atoms: C_17  and  C_19
REMARK    6  A    between atoms: C_23  and  C_29
REMARK    7  A    between atoms: N_25  and  C_28
REMARK    8  A    between atoms: C_29  and  O_30
REMARK                            x       y       z     vdW  Elec       q    Type
REMARK                         _______ _______ _______ _____ _____    ______ ____
ROOT
ATOM      1  C   UNL     1      -2.683   6.840  -0.172  0.00  0.00    +0.047 C 
ATOM      2  C   UNL     1      -3.917   7.675  -0.334  0.00  0.00    -0.022 C 
ATOM      3  C   UNL     1      -5.031   7.476   0.301  0.00  0.00    -0.027 C 
ATOM      4  C   UNL     1      -5.225   6.358   1.276  0.00  0.00    +0.016 C 
ATOM      5  C   UNL     1      -6.050   6.792   2.485  0.00  0.00    +0.011 C 
ATOM      6  C   UNL     1      -6.282   5.572   3.385  0.00  0.00    -0.014 C 
ATOM      7  C   UNL     1      -4.936   5.022   3.855  0.00  0.00    +0.003 C 
ATOM      8  C   UNL     1      -4.079   4.626   2.648  0.00  0.00    +0.005 C 
ATOM      9  C   UNL     1      -3.866   5.858   1.771  0.00  0.00    +0.010 C 
ATOM     10  C   UNL     1      -3.002   5.529   0.553  0.00  0.00    +0.044 C 
ATOM     11  C   UNL     1      -3.766   4.593  -0.385  0.00  0.00    +0.020 C 
ATOM     12  C   UNL     1      -7.111   5.992   4.600  0.00  0.00    +0.007 C 
ENDROOT
BRANCH  10  13
ATOM     13  C   UNL     1      -1.723   4.870   0.999  0.00  0.00    +0.179 C 
ATOM     14  O   UNL     1      -1.461   4.792   2.182  0.00  0.00    -0.291 OA
ATOM     15  C   UNL     1      -0.798   4.324   0.008  0.00  0.00    +0.124 C 
ATOM     16  C   UNL     1       0.339   3.594   0.288  0.00  0.00    +0.194 C 
ATOM     17  C   UNL     1       0.964   3.252  -1.045  0.00  0.00    +0.173 C 
ATOM     18  N   UNL     1       0.095   3.845  -2.068  0.00  0.00    -0.288 N 
ATOM     19  C   UNL     1      -0.926   4.465  -1.447  0.00  0.00    +0.254 C 
ATOM     20  O   UNL     1      -1.826   5.057  -2.012  0.00  0.00    -0.270 OA
ATOM     21  C   UNL     1       0.303   3.774  -3.516  0.00  0.00    +0.133 C 
ATOM     22  O   UNL     1       0.798   3.254   1.502  0.00  0.00    -0.290 OA
BRANCH  17  23
ATOM     23  C   UNL     1       1.027   1.734  -1.223  0.00  0.00    +0.186 C 
BRANCH  23  24
ATOM     24  O   UNL     1      -0.269   1.174  -1.004  0.00  0.00    -0.393 OA
ATOM     25  H   UNL     1      -0.421   0.088  -1.089  0.00  0.00    +0.209 HD
ENDBRANCH  23  24
ENDBRANCH  17  23
ENDBRANCH  10  13
BRANCH   1  28
ATOM     26  C   UNL     1       0.515   8.684   0.890  0.00  0.00    +0.035 C 
ATOM     27  C   UNL     1      -0.505   7.912   0.092  0.00  0.00    -0.034 C 
ATOM     28  C   UNL     1      -1.663   7.612   0.625  0.00  0.00    -0.023 C 
ENDBRANCH   1  28
TORSDOF 4
