REMARK  Name = ZINC17194671
REMARK  7 active torsions:
REMARK  status: ('A' for Active; 'I' for Inactive)
REMARK    1  A    between atoms: C_1  and  C_2
REMARK    2  A    between atoms: C_2  and  C_3
REMARK    3  A    between atoms: C_3  and  C_4
REMARK    4  A    between atoms: C_4  and  C_5
REMARK    5  A    between atoms: C_5  and  C_6
REMARK    6  A    between atoms: C_6  and  N_7
REMARK    7  A    between atoms: C_10  and  C_16
REMARK                            x       y       z     vdW  Elec       q    Type
REMARK                         _______ _______ _______ _____ _____    ______ ____
ROOT
ATOM      1  N   UNL     1      -4.202  -4.630   0.017  0.00  0.00    -0.261 N 
ATOM      2  C   UNL     1      -4.820  -4.862   1.192  0.00  0.00    +0.262 A 
ATOM      3  O   UNL     1      -4.239  -4.652   2.243  0.00  0.00    -0.267 OA
ATOM      4  C   UNL     1      -6.139  -5.349   1.197  0.00  0.00    +0.073 A 
ATOM      5  C   UNL     1      -6.766  -5.575   0.008  0.00  0.00    +0.260 A 
ATOM      6  N   UNL     1      -6.100  -5.325  -1.165  0.00  0.00    -0.275 N 
ATOM      7  C   UNL     1      -4.839  -4.855  -1.146  0.00  0.00    +0.332 A 
ATOM      8  O   UNL     1      -4.266  -4.634  -2.196  0.00  0.00    -0.246 OA
ATOM      9  O   UNL     1      -8.033  -6.042  -0.016  0.00  0.00    -0.267 OA
ATOM     10  H   UNL     1      -6.542  -5.485  -2.014  0.00  0.00    +0.173 HD
ENDROOT
BRANCH   4  11
ATOM     11  C   UNL     1      -6.850  -5.617   2.498  0.00  0.00    +0.018 C 
ATOM     12  C   UNL     1      -6.151  -6.732   3.238  0.00  0.00    +0.011 A 
ATOM     13  C   UNL     1      -5.918  -6.698   4.570  0.00  0.00    -0.022 A 
ATOM     14  C   UNL     1      -5.233  -7.923   4.917  0.00  0.00    +0.003 A 
ATOM     15  C   UNL     1      -4.746  -8.433   6.124  0.00  0.00    +0.010 A 
ATOM     16  C   UNL     1      -4.134  -9.660   6.079  0.00  0.00    +0.001 A 
ATOM     17  C   UNL     1      -3.998 -10.372   4.898  0.00  0.00    +0.002 A 
ATOM     18  C   UNL     1      -4.470  -9.893   3.689  0.00  0.00    +0.026 A 
ATOM     19  C   UNL     1      -5.096  -8.648   3.704  0.00  0.00    +0.047 A 
ATOM     20  N   UNL     1      -5.663  -7.898   2.713  0.00  0.00    -0.359 N 
ATOM     21  H   UNL     1      -5.713  -8.153   1.779  0.00  0.00    +0.166 HD
ATOM     22  C   UNL     1      -6.337  -5.549   5.453  0.00  0.00    +0.018 C 
ATOM     23  C   UNL     1      -7.352  -4.703   4.672  0.00  0.00    -0.076 C 
ATOM     24  N   UNL     1      -6.824  -4.406   3.334  0.00  0.00    +0.388 N 
ATOM     25  H   UNL     1      -5.873  -4.078   3.417  0.00  0.00    -0.084 HD
ATOM     26  H   UNL     1      -7.386  -3.689   2.901  0.00  0.00    -0.084 HD
ENDBRANCH   4  11
BRANCH   1  27
ATOM     27  C   UNL     1      -2.827  -4.123   0.007  0.00  0.00    +0.130 C 
BRANCH  27  28
ATOM     28  C   UNL     1      -2.848  -2.593   0.015  0.00  0.00    +0.022 C 
BRANCH  28  29
ATOM     29  C   UNL     1      -1.413  -2.063   0.004  0.00  0.00    +0.002 C 
BRANCH  29  30
ATOM     30  C   UNL     1      -1.433  -0.534   0.013  0.00  0.00    -0.000 C 
BRANCH  30  32
ATOM     31  C   UNL     1      -0.019   1.526   0.010  0.00  0.00    +0.004 C 
ATOM     32  C   UNL     1       0.002  -0.004   0.002  0.00  0.00    -0.003 C 
ENDBRANCH  30  32
ENDBRANCH  29  30
ENDBRANCH  28  29
ENDBRANCH  27  28
ENDBRANCH   1  27
TORSDOF 6
