REMARK  Name = ZINC24659319
REMARK  8 active torsions:
REMARK  status: ('A' for Active; 'I' for Inactive)
REMARK    1  A    between atoms: C_3  and  C_6
REMARK    2  A    between atoms: C_6  and  C_8
REMARK    3  A    between atoms: C_6  and  N_18
REMARK    4  A    between atoms: C_19  and  C_21
REMARK    5  A    between atoms: C_21  and  C_22
REMARK    6  A    between atoms: C_22  and  C_23
REMARK    7  A    between atoms: C_23  and  N_24
REMARK    8  A    between atoms: C_28  and  N_34
REMARK                            x       y       z     vdW  Elec       q    Type
REMARK                         _______ _______ _______ _____ _____    ______ ____
ROOT
ATOM      1  N   UNL     1      -4.437   8.558  -3.019  0.00  0.00    -0.304 N 
ATOM      2  C   UNL     1      -3.979   7.313  -2.784  0.00  0.00    +0.214 C 
ATOM      3  O   UNL     1      -3.717   6.577  -3.712  0.00  0.00    -0.276 OA
ATOM      4  H   UNL     1      -4.675   9.225  -2.178  0.00  0.00    +0.150 HD
ENDROOT
BRANCH   1   5
ATOM      5  C   UNL     1      -4.619   9.024  -4.397  0.00  0.00    +0.140 C 
BRANCH   5   6
ATOM      6  C   UNL     1      -4.531  10.528  -4.434  0.00  0.00    -0.022 A 
ATOM      7  C   UNL     1      -5.114  11.282  -3.433  0.00  0.00    +0.006 A 
ATOM      8  C   UNL     1      -5.026  12.658  -3.473  0.00  0.00    +0.004 A 
ATOM      9  C   UNL     1      -4.367  13.293  -4.518  0.00  0.00    -0.044 A 
ATOM     10  C   UNL     1      -3.788  12.542  -5.516  0.00  0.00    -0.044 A 
ATOM     11  C   UNL     1      -3.873  11.157  -5.471  0.00  0.00    +0.009 A 
ATOM     12  C   UNL     1      -3.050  13.163  -6.673  0.00  0.00    +0.035 C 
ATOM     13  C   UNL     1      -3.409  14.641  -6.809  0.00  0.00    +0.005 C 
ATOM     14  C   UNL     1      -3.228  15.311  -5.442  0.00  0.00    +0.005 C 
ATOM     15  C   UNL     1      -4.321  14.799  -4.506  0.00  0.00    +0.035 C 
ENDBRANCH   5   6
BRANCH   5  18
ATOM     16  C   UNL     1      -7.632   7.776  -6.365  0.00  0.00    +0.008 A 
ATOM     17  C   UNL     1      -6.316   8.124  -6.127  0.00  0.00    +0.013 A 
ATOM     18  C   UNL     1      -5.971   8.587  -4.900  0.00  0.00    +0.014 A 
ATOM     19  S   UNL     1      -7.534   8.553  -4.039  0.00  0.00    -0.099 S 
ATOM     20  C   UNL     1      -8.541   7.917  -5.369  0.00  0.00    +0.045 A 
ENDBRANCH   5  18
ENDBRANCH   1   5
BRANCH   2  21
ATOM     21  C   UNL     1      -3.792   6.834  -1.367  0.00  0.00    +0.097 C 
BRANCH  21  22
ATOM     22  C   UNL     1      -3.266   5.397  -1.380  0.00  0.00    +0.031 C 
BRANCH  22  23
ATOM     23  C   UNL     1      -3.076   4.911   0.058  0.00  0.00    +0.129 C 
BRANCH  23  24
ATOM     24  N   UNL     1      -2.573   3.536   0.046  0.00  0.00    -0.274 N 
ATOM     25  C   UNL     1      -1.233   3.148   0.031  0.00  0.00    +0.090 A 
ATOM     26  C   UNL     1      -0.039   3.851   0.023  0.00  0.00    +0.032 A 
ATOM     27  C   UNL     1       1.161   3.167   0.008  0.00  0.00    +0.035 A 
ATOM     28  C   UNL     1       1.174   1.784   0.000  0.00  0.00    +0.130 A 
ATOM     29  C   UNL     1      -0.013   1.076   0.008  0.00  0.00    +0.081 A 
ATOM     30  C   UNL     1      -1.222   1.753   0.017  0.00  0.00    +0.159 A 
ATOM     31  O   UNL     1      -2.513   1.340   0.034  0.00  0.00    -0.407 OA
ATOM     32  C   UNL     1      -3.319   2.413   0.048  0.00  0.00    +0.421 A 
ATOM     33  O   UNL     1      -4.534   2.378   0.060  0.00  0.00    -0.223 OA
BRANCH  28  34
ATOM     34  N   UNL     1       2.464   1.058  -0.016  0.00  0.00    +0.057 N 
ATOM     35  O   UNL     1       2.478  -0.160  -0.023  0.00  0.00    -0.126 OA
ATOM     36  O   UNL     1       3.511   1.679  -0.023  0.00  0.00    -0.126 OA
ENDBRANCH  28  34
ENDBRANCH  23  24
ENDBRANCH  22  23
ENDBRANCH  21  22
ENDBRANCH   2  21
TORSDOF 8
