REMARK  Name = ZINC27194866
REMARK  8 active torsions:
REMARK  status: ('A' for Active; 'I' for Inactive)
REMARK    1  A    between atoms: C_1  and  O_2
REMARK    2  A    between atoms: O_2  and  N_3
REMARK    3  A    between atoms: C_4  and  C_6
REMARK    4  A    between atoms: C_9  and  C_12
REMARK    5  A    between atoms: C_15  and  C_17
REMARK    6  A    between atoms: C_21  and  C_26
REMARK    7  A    between atoms: N_28  and  O_29
REMARK    8  A    between atoms: O_29  and  C_30
REMARK                            x       y       z     vdW  Elec       q    Type
REMARK                         _______ _______ _______ _____ _____    ______ ____
ROOT
ATOM      1  C   UNL     1       3.446  -4.262   5.714  0.00  0.00    +0.136 A 
ATOM      2  C   UNL     1       3.166  -5.473   6.274  0.00  0.00    +0.050 A 
ATOM      3  C   UNL     1       4.059  -5.646   7.342  0.00  0.00    +0.052 A 
ATOM      4  C   UNL     1       4.845  -4.534   7.387  0.00  0.00    +0.155 A 
ATOM      5  O   UNL     1       4.468  -3.706   6.394  0.00  0.00    -0.453 OA
ENDROOT
BRANCH   4   6
ATOM      6  C   UNL     1       5.930  -4.281   8.357  0.00  0.00    +0.125 A 
ATOM      7  C   UNL     1       6.715  -3.166   8.407  0.00  0.00    +0.124 A 
ATOM      8  N   UNL     1       7.587  -3.336   9.447  0.00  0.00    -0.305 N 
ATOM      9  C   UNL     1       8.579  -2.548   9.946  0.00  0.00    +0.104 A 
ATOM     10  C   UNL     1       9.318  -2.960  11.015  0.00  0.00    +0.034 A 
ATOM     11  C   UNL     1       9.057  -4.216  11.614  0.00  0.00    +0.016 A 
ATOM     12  C   UNL     1       8.068  -5.002  11.118  0.00  0.00    +0.047 A 
ATOM     13  C   UNL     1       7.314  -4.557  10.011  0.00  0.00    +0.138 A 
ATOM     14  N   UNL     1       6.311  -5.109   9.346  0.00  0.00    -0.225 NA
BRANCH  10  15
ATOM     15  C   UNL     1      10.394  -2.096  11.548  0.00  0.00    +0.164 C 
ATOM     16  N   UNL     1      10.650  -0.868  10.961  0.00  0.00    -0.340 N 
ATOM     17  N   UNL     1      11.100  -2.489  12.568  0.00  0.00    -0.069 NA
ATOM     18  H   UNL     1      10.124  -0.575  10.201  0.00  0.00    +0.144 HD
ATOM     19  H   UNL     1      11.355  -0.301  11.310  0.00  0.00    +0.144 HD
BRANCH  17  20
ATOM     20  O   UNL     1      12.130  -1.662  13.078  0.00  0.00    -0.396 OA
ATOM     21  C   UNL     1      12.822  -2.219  14.197  0.00  0.00    +0.313 C 
ENDBRANCH  17  20
ENDBRANCH  10  15
ENDBRANCH   4   6
BRANCH   1  25
ATOM     22  C   UNL     1       1.454  -2.546   2.390  0.00  0.00    +0.017 A 
ATOM     23  C   UNL     1       2.503  -1.859   3.006  0.00  0.00    +0.012 A 
ATOM     24  C   UNL     1       3.145  -2.412   4.077  0.00  0.00    +0.012 A 
ATOM     25  C   UNL     1       2.752  -3.665   4.558  0.00  0.00    +0.017 A 
ATOM     26  C   UNL     1       1.702  -4.352   3.940  0.00  0.00    +0.012 A 
ATOM     27  C   UNL     1       1.057  -3.796   2.872  0.00  0.00    +0.012 A 
BRANCH  22  29
ATOM     28  N   UNL     1       0.667  -0.577   1.113  0.00  0.00    -0.250 N 
ATOM     29  C   UNL     1       0.759  -1.948   1.230  0.00  0.00    +0.129 C 
ATOM     30  N   UNL     1       0.234  -2.716   0.317  0.00  0.00    -0.383 N 
ATOM     31  H   UNL     1       1.058  -0.005   1.792  0.00  0.00    +0.196 HD
ATOM     32  H   UNL     1       0.298  -3.680   0.399  0.00  0.00    +0.157 HD
ATOM     33  H   UNL     1      -0.222  -2.324  -0.444  0.00  0.00    +0.157 HD
BRANCH  28  35
ATOM     34  C   UNL     1      -0.017   1.425   0.010  0.00  0.00    +0.229 C 
ATOM     35  O   UNL     1       0.002  -0.004   0.002  0.00  0.00    -0.276 OA
ENDBRANCH  28  35
ENDBRANCH  22  29
ENDBRANCH   1  25
TORSDOF 6
