REMARK  Name = ZINC12492740
REMARK  10 active torsions:
REMARK  status: ('A' for Active; 'I' for Inactive)
REMARK    1  A    between atoms: C_1  and  C_2
REMARK    2  A    between atoms: C_2  and  C_3
REMARK    3  A    between atoms: C_2  and  C_4
REMARK    4  A    between atoms: C_2  and  C_5
REMARK    5  A    between atoms: C_8  and  C_12
REMARK    6  A    between atoms: N_14  and  N_15
REMARK    7  A    between atoms: C_16  and  C_18
REMARK    8  A    between atoms: C_18  and  O_19
REMARK    9  A    between atoms: O_19  and  C_20
REMARK   10  A    between atoms: C_23  and  N_26
REMARK                            x       y       z     vdW  Elec       q    Type
REMARK                         _______ _______ _______ _____ _____    ______ ____
ROOT
ATOM      1  C   UNL     1      -1.325  -1.846  -0.134  0.00  0.00    +0.260 C 
ATOM      2  O   UNL     1      -0.246  -2.386  -0.279  0.00  0.00    -0.269 OA
ATOM      3  N   UNL     1      -1.397  -0.506  -0.013  0.00  0.00    -0.230 N 
ATOM      4  H   UNL     1      -2.259  -0.075   0.102  0.00  0.00    +0.173 HD
ENDROOT
BRANCH   1   8
ATOM      5  C   UNL     1      -4.871  -4.183  -0.011  0.00  0.00    -0.028 A 
ATOM      6  C   UNL     1      -4.948  -2.808   0.114  0.00  0.00    +0.006 A 
ATOM      7  C   UNL     1      -3.800  -2.044   0.080  0.00  0.00    +0.013 A 
ATOM      8  C   UNL     1      -2.559  -2.660  -0.091  0.00  0.00    +0.039 A 
ATOM      9  C   UNL     1      -2.487  -4.048  -0.216  0.00  0.00    +0.028 A 
ATOM     10  C   UNL     1      -3.643  -4.802  -0.175  0.00  0.00    +0.022 A 
ATOM     11 BR   UNL     1      -3.550  -6.683  -0.344  0.00  0.00    -0.050 Br
BRANCH   5  13
ATOM     12  C   UNL     1      -7.340  -4.093   0.203  0.00  0.00    +0.015 C 
ATOM     13  C   UNL     1      -6.129  -5.012   0.032  0.00  0.00    -0.012 C 
ATOM     14  C   UNL     1      -6.266  -5.798  -1.273  0.00  0.00    +0.015 C 
ATOM     15  C   UNL     1      -6.058  -5.987   1.210  0.00  0.00    +0.015 C 
ENDBRANCH   5  13
ENDBRANCH   1   8
BRANCH   3  16
ATOM     16  N   UNL     1      -0.229   0.265  -0.054  0.00  0.00    -0.231 N 
ATOM     17  C   UNL     1      -0.301   1.605   0.067  0.00  0.00    +0.267 C 
ATOM     18  O   UNL     1      -1.378   2.144   0.206  0.00  0.00    -0.271 OA
ATOM     19  H   UNL     1       0.633  -0.166  -0.170  0.00  0.00    +0.173 HD
BRANCH  17  20
ATOM     20  C   UNL     1       0.957   2.435   0.023  0.00  0.00    +0.326 C 
BRANCH  20  21
ATOM     21  O   UNL     1       0.622   3.816   0.171  0.00  0.00    -0.483 OA
BRANCH  21  22
ATOM     22  C   UNL     1       1.649   4.705   0.153  0.00  0.00    +0.121 A 
ATOM     23  C   UNL     1       2.953   4.257   0.002  0.00  0.00    +0.048 A 
ATOM     24  C   UNL     1       3.996   5.164  -0.021  0.00  0.00    +0.036 A 
ATOM     25  C   UNL     1       3.741   6.516   0.118  0.00  0.00    +0.126 A 
ATOM     26  C   UNL     1       2.442   6.964   0.274  0.00  0.00    +0.036 A 
ATOM     27  C   UNL     1       1.396   6.062   0.292  0.00  0.00    +0.048 A 
BRANCH  25  28
ATOM     28  N   UNL     1       4.860   7.484   0.099  0.00  0.00    +0.056 N 
ATOM     29  O   UNL     1       4.636   8.676   0.220  0.00  0.00    -0.126 OA
ATOM     30  O   UNL     1       6.004   7.090  -0.039  0.00  0.00    -0.126 OA
ENDBRANCH  25  28
ENDBRANCH  21  22
ENDBRANCH  20  21
ENDBRANCH  17  20
ENDBRANCH   3  16
TORSDOF 7
