REMARK  Name = ZINC39531585
REMARK  10 active torsions:
REMARK  status: ('A' for Active; 'I' for Inactive)
REMARK    1  A    between atoms: C_1  and  C_2
REMARK    2  A    between atoms: C_5  and  C_8
REMARK    3  A    between atoms: C_8  and  C_10
REMARK    4  A    between atoms: C_8  and  N_22
REMARK    5  A    between atoms: C_10  and  N_11
REMARK    6  A    between atoms: N_11  and  S_12
REMARK    7  A    between atoms: S_12  and  O_15
REMARK    8  A    between atoms: O_15  and  C_16
REMARK    9  A    between atoms: C_26  and  C_29
REMARK   10  A    between atoms: C_34  and  O_35
REMARK                            x       y       z     vdW  Elec       q    Type
REMARK                         _______ _______ _______ _____ _____    ______ ____
ROOT
ATOM      1  C   UNL     1       0.059  -4.275  -0.021  0.00  0.00    -0.060 C 
ENDROOT
BRANCH   1   2
ATOM      2  N   UNL     1      -0.770  -4.410   1.183  0.00  0.00    +0.381 N 
ATOM      3  C   UNL     1      -0.730  -5.801   1.653  0.00  0.00    -0.098 C 
ATOM      4  C   UNL     1      -1.595  -5.941   2.907  0.00  0.00    -0.101 C 
ATOM      5  N   UNL     1      -2.981  -5.571   2.591  0.00  0.00    +0.381 N 
ATOM      6  C   UNL     1      -3.021  -4.180   2.122  0.00  0.00    -0.054 C 
ATOM      7  C   UNL     1      -2.156  -4.040   0.867  0.00  0.00    -0.090 C 
ATOM      8  H   UNL     1      -3.335  -6.180   1.869  0.00  0.00    -0.085 HD
ATOM      9  H   UNL     1      -3.550  -5.663   3.418  0.00  0.00    -0.085 HD
ATOM     10  H   UNL     1      -0.416  -3.801   1.905  0.00  0.00    -0.081 HD
BRANCH   6  11
ATOM     11  C   UNL     1      -4.442  -3.800   1.797  0.00  0.00    -0.022 A 
ATOM     12  C   UNL     1      -5.385  -4.783   1.564  0.00  0.00    +0.005 A 
ATOM     13  C   UNL     1      -6.689  -4.435   1.266  0.00  0.00    +0.000 A 
ATOM     14  C   UNL     1      -7.054  -3.103   1.200  0.00  0.00    +0.004 A 
ATOM     15  C   UNL     1      -6.116  -2.116   1.433  0.00  0.00    +0.045 A 
ATOM     16  C   UNL     1      -4.808  -2.463   1.737  0.00  0.00    +0.118 A 
BRANCH  16  17
ATOM     17  O   UNL     1      -3.884  -1.494   1.972  0.00  0.00    -0.507 OA
ATOM     18  H   UNL     1      -3.415  -1.197   1.179  0.00  0.00    +0.292 HD
ENDBRANCH  16  17
ENDBRANCH   6  11
ENDBRANCH   1   2
BRANCH   1  23
ATOM     19  C   UNL     1      -0.560   1.040  -2.201  0.00  0.00    +0.044 C 
ATOM     20  C   UNL     1      -0.398  -0.346  -1.633  0.00  0.00    -0.050 A 
ATOM     21  C   UNL     1      -0.327  -1.436  -2.480  0.00  0.00    +0.003 A 
ATOM     22  C   UNL     1      -0.178  -2.708  -1.958  0.00  0.00    +0.002 A 
ATOM     23  C   UNL     1      -0.101  -2.889  -0.590  0.00  0.00    -0.063 A 
ATOM     24  C   UNL     1      -0.172  -1.799   0.257  0.00  0.00    +0.002 A 
ATOM     25  C   UNL     1      -0.316  -0.527  -0.265  0.00  0.00    +0.003 A 
ENDBRANCH   1  23
BRANCH   1  26
ATOM     26  C   UNL     1       1.527  -4.511   0.341  0.00  0.00    -0.121 C 
BRANCH  26  27
ATOM     27  N   UNL     1       1.713  -5.908   0.742  0.00  0.00    +0.491 NA
BRANCH  27  28
ATOM     28  S   UNL     1       3.213  -6.448   1.190  0.00  0.00    +0.066 S 
ATOM     29  O   UNL     1       4.031  -6.384   0.030  0.00  0.00    -0.159 OA
ATOM     30  O   UNL     1       3.545  -5.771   2.395  0.00  0.00    -0.159 OA
BRANCH  28  31
ATOM     31  O   UNL     1       3.073  -7.922   1.543  0.00  0.00    -0.362 OA
BRANCH  31  32
ATOM     32  C   UNL     1       2.943  -8.739   0.465  0.00  0.00    +0.154 A 
ATOM     33  C   UNL     1       1.683  -9.027  -0.040  0.00  0.00    +0.048 A 
ATOM     34  C   UNL     1       1.554  -9.857  -1.137  0.00  0.00    +0.004 A 
ATOM     35  C   UNL     1       2.678 -10.401  -1.730  0.00  0.00    +0.000 A 
ATOM     36  C   UNL     1       3.934 -10.116  -1.228  0.00  0.00    +0.004 A 
ATOM     37  C   UNL     1       4.070  -9.281  -0.136  0.00  0.00    +0.048 A 
ENDBRANCH  31  32
ENDBRANCH  28  31
ENDBRANCH  27  28
ENDBRANCH  26  27
ENDBRANCH   1  26
TORSDOF 9
