REMARK  Name = ZINC08871175
REMARK  15 active torsions:
REMARK  status: ('A' for Active; 'I' for Inactive)
REMARK    1  A    between atoms: C_1  and  C_2
REMARK    2  A    between atoms: C_2  and  C_3
REMARK    3  A    between atoms: C_2  and  O_4
REMARK    4  A    between atoms: O_4  and  C_5
REMARK    5  A    between atoms: C_5  and  C_6
REMARK    6  A    between atoms: C_6  and  C_7
REMARK    7  A    between atoms: C_7  and  N_8
REMARK    8  A    between atoms: C_9  and  C_11
REMARK    9  A    between atoms: N_22  and  N_25
REMARK   10  A    between atoms: C_23  and  N_24
REMARK   11  A    between atoms: C_26  and  C_27
REMARK   12  A    between atoms: C_30  and  C_33
REMARK   13  A    between atoms: C_33  and  C_34
REMARK   14  A    between atoms: C_33  and  C_35
REMARK   15  A    between atoms: C_33  and  C_36
REMARK                            x       y       z     vdW  Elec       q    Type
REMARK                         _______ _______ _______ _____ _____    ______ ____
ROOT
ATOM      1  C   UNL     1      -6.670  -0.139  -0.747  0.00  0.00    +0.105 A 
ATOM      2  C   UNL     1      -6.713  -0.177   0.724  0.00  0.00    +0.124 A 
ATOM      3  C   UNL     1      -5.509   0.531   1.168  0.00  0.00    +0.183 A 
ATOM      4  N   UNL     1      -5.272   0.660   2.456  0.00  0.00    -0.224 NA
ATOM      5  C   UNL     1      -6.129   0.147   3.347  0.00  0.00    +0.092 A 
ATOM      6  C   UNL     1      -5.883   0.280   4.726  0.00  0.00    +0.030 A 
ATOM      7  C   UNL     1      -6.760  -0.245   5.624  0.00  0.00    +0.002 A 
ATOM      8  C   UNL     1      -7.905  -0.917   5.200  0.00  0.00    +0.002 A 
ATOM      9  C   UNL     1      -8.176  -1.067   3.875  0.00  0.00    +0.030 A 
ATOM     10  C   UNL     1      -7.293  -0.537   2.916  0.00  0.00    +0.090 A 
ATOM     11  N   UNL     1      -7.551  -0.679   1.610  0.00  0.00    -0.241 NA
ATOM     12  N   UNL     1      -4.837   0.936   0.030  0.00  0.00    -0.198 N 
ATOM     13  C   UNL     1      -5.513   0.553  -1.091  0.00  0.00    +0.134 A 
ENDROOT
BRANCH   1  15
ATOM     14  N   UNL     1      -7.511  -1.980  -2.098  0.00  0.00    -0.311 N 
ATOM     15  C   UNL     1      -7.652  -0.711  -1.666  0.00  0.00    +0.250 C 
ATOM     16  O   UNL     1      -8.597  -0.041  -2.041  0.00  0.00    -0.270 OA
ATOM     17  H   UNL     1      -6.759  -2.513  -1.798  0.00  0.00    +0.149 HD
BRANCH  14  18
ATOM     18  C   UNL     1      -8.496  -2.553  -3.018  0.00  0.00    +0.107 C 
BRANCH  18  19
ATOM     19  C   UNL     1      -8.106  -3.995  -3.349  0.00  0.00    +0.047 C 
BRANCH  19  20
ATOM     20  C   UNL     1      -9.134  -4.594  -4.311  0.00  0.00    +0.161 C 
BRANCH  20  21
ATOM     21  O   UNL     1      -8.769  -5.940  -4.620  0.00  0.00    -0.377 OA
BRANCH  21  23
ATOM     22  C   UNL     1      -9.213  -6.361  -6.958  0.00  0.00    +0.037 C 
ATOM     23  C   UNL     1      -9.669  -6.595  -5.517  0.00  0.00    +0.112 C 
ATOM     24  C   UNL     1      -9.680  -8.096  -5.222  0.00  0.00    +0.037 C 
ENDBRANCH  21  23
ENDBRANCH  20  21
ENDBRANCH  19  20
ENDBRANCH  18  19
ENDBRANCH  14  18
ENDBRANCH   1  15
BRANCH  13  25
ATOM     25  N   UNL     1      -5.108   0.811  -2.375  0.00  0.00    -0.342 N 
ATOM     26  H   UNL     1      -4.285   1.299  -2.535  0.00  0.00    +0.144 HD
ATOM     27  H   UNL     1      -5.645   0.506  -3.123  0.00  0.00    +0.144 HD
ENDBRANCH  13  25
BRANCH  12  28
ATOM     28  N   UNL     1      -3.631   1.648   0.028  0.00  0.00    -0.171 NA
ATOM     29  C   UNL     1      -2.501   1.010   0.019  0.00  0.00    +0.141 C 
BRANCH  29  30
ATOM     30  C   UNL     1      -1.231   1.759   0.017  0.00  0.00    -0.005 A 
ATOM     31  C   UNL     1      -0.013   1.076   0.008  0.00  0.00    +0.010 A 
ATOM     32  C   UNL     1       1.171   1.783   0.001  0.00  0.00    +0.005 A 
ATOM     33  C   UNL     1       1.155   3.167   0.008  0.00  0.00    -0.042 A 
ATOM     34  C   UNL     1      -0.048   3.851   0.022  0.00  0.00    +0.005 A 
ATOM     35  C   UNL     1      -1.240   3.156   0.030  0.00  0.00    +0.010 A 
BRANCH  33  36
ATOM     36  C   UNL     1       2.452   3.933  -0.001  0.00  0.00    -0.013 C 
ATOM     37  C   UNL     1       3.247   3.577  -1.259  0.00  0.00    +0.015 C 
ATOM     38  C   UNL     1       2.159   5.434   0.010  0.00  0.00    +0.015 C 
ATOM     39  C   UNL     1       3.270   3.564   1.239  0.00  0.00    +0.015 C 
ENDBRANCH  33  36
ENDBRANCH  29  30
ENDBRANCH  12  28
TORSDOF 10
