REMARK  Name = ZINC12701961
REMARK  10 active torsions:
REMARK  status: ('A' for Active; 'I' for Inactive)
REMARK    1  A    between atoms: C_1  and  C_2
REMARK    2  A    between atoms: C_5  and  C_8
REMARK    3  A    between atoms: C_8  and  C_10
REMARK    4  A    between atoms: C_8  and  N_18
REMARK    5  A    between atoms: N_12  and  C_13
REMARK    6  A    between atoms: N_18  and  C_19
REMARK    7  A    between atoms: C_19  and  C_20
REMARK    8  A    between atoms: C_26  and  C_28
REMARK    9  A    between atoms: C_28  and  N_29
REMARK   10  A    between atoms: C_31  and  C_34
REMARK                            x       y       z     vdW  Elec       q    Type
REMARK                         _______ _______ _______ _____ _____    ______ ____
ROOT
ATOM      1  N   UNL     1       2.364   0.941  -0.187  0.00  0.00    -0.282 N 
ATOM      2  C   UNL     1       3.487   0.850   0.553  0.00  0.00    +0.240 C 
ATOM      3  O   UNL     1       3.623   1.545   1.537  0.00  0.00    -0.273 OA
ENDROOT
BRANCH   1   4
ATOM      4  C   UNL     1       1.308   1.881   0.198  0.00  0.00    +0.192 C 
BRANCH   4   9
ATOM      5  C   UNL     1       3.414   7.263   0.159  0.00  0.00    +0.044 C 
ATOM      6  C   UNL     1       2.865   5.859   0.170  0.00  0.00    -0.050 A 
ATOM      7  C   UNL     1       1.883   5.508   1.077  0.00  0.00    +0.004 A 
ATOM      8  C   UNL     1       1.379   4.221   1.086  0.00  0.00    +0.006 A 
ATOM      9  C   UNL     1       1.857   3.285   0.188  0.00  0.00    -0.018 A 
ATOM     10  C   UNL     1       2.843   3.635  -0.716  0.00  0.00    +0.006 A 
ATOM     11  C   UNL     1       3.343   4.923  -0.728  0.00  0.00    +0.004 A 
ENDBRANCH   4   9
BRANCH   4  12
ATOM     12  C   UNL     1       0.166   1.782  -0.780  0.00  0.00    +0.238 C 
ATOM     13  O   UNL     1       0.384   1.824  -1.973  0.00  0.00    -0.273 OA
ATOM     14  N   UNL     1      -1.097   1.652  -0.330  0.00  0.00    -0.311 N 
ATOM     15  H   UNL     1      -1.271   1.618   0.624  0.00  0.00    +0.149 HD
BRANCH  14  16
ATOM     16  C   UNL     1      -2.208   1.561  -1.280  0.00  0.00    +0.073 C 
ATOM     17  C   UNL     1      -2.713   2.974  -1.640  0.00  0.00    +0.022 C 
ATOM     18  C   UNL     1      -4.248   2.808  -1.764  0.00  0.00    +0.002 C 
ATOM     19  C   UNL     1      -4.578   1.810  -0.627  0.00  0.00    +0.002 C 
ATOM     20  C   UNL     1      -3.394   0.821  -0.637  0.00  0.00    +0.022 C 
ENDBRANCH  14  16
ENDBRANCH   4  12
ENDBRANCH   1   4
BRANCH   1  21
ATOM     21  C   UNL     1       2.199   0.101  -1.375  0.00  0.00    +0.140 C 
BRANCH  21  22
ATOM     22  C   UNL     1       2.827   0.798  -2.584  0.00  0.00    +0.136 C 
ATOM     23  C   UNL     1       2.571  -0.020  -3.869  0.00  0.00    +0.035 C 
ATOM     24  C   UNL     1       3.875   0.140  -4.682  0.00  0.00    +0.031 C 
ATOM     25  C   UNL     1       4.765   1.034  -3.792  0.00  0.00    +0.160 C 
ATOM     26  O   UNL     1       4.264   0.838  -2.450  0.00  0.00    -0.375 OA
ENDBRANCH  21  22
ENDBRANCH   1  21
BRANCH   2  27
ATOM     27  C   UNL     1       4.573  -0.117   0.157  0.00  0.00    +0.264 C 
BRANCH  27  28
ATOM     28  N   UNL     1       5.679  -0.028   1.113  0.00  0.00    -0.154 N 
ATOM     29  N   UNL     1       6.694   0.760   1.008  0.00  0.00    -0.130 NA
ATOM     30  C   UNL     1       7.471   0.558   2.053  0.00  0.00    +0.205 A 
ATOM     31  N   UNL     1       6.883  -0.393   2.791  0.00  0.00    -0.108 NA
ATOM     32  N   UNL     1       5.793  -0.727   2.188  0.00  0.00    -0.045 NA
BRANCH  30  33
ATOM     33  C   UNL     1       8.751   1.248   2.352  0.00  0.00    +0.023 A 
ATOM     34  C   UNL     1       9.242   2.218   1.481  0.00  0.00    +0.014 A 
ATOM     35  C   UNL     1      10.430   2.860   1.765  0.00  0.00    +0.039 A 
ATOM     36  C   UNL     1      11.140   2.533   2.909  0.00  0.00    +0.123 A 
ATOM     37  C   UNL     1      10.658   1.565   3.775  0.00  0.00    +0.039 A 
ATOM     38  C   UNL     1       9.469   0.922   3.501  0.00  0.00    +0.014 A 
ATOM     39  F   UNL     1      12.306   3.160   3.180  0.00  0.00    -0.205 F 
ENDBRANCH  30  33
ENDBRANCH  27  28
ENDBRANCH   2  27
TORSDOF 9
