REMARK  Name = ZINC12526028
REMARK  10 active torsions:
REMARK  status: ('A' for Active; 'I' for Inactive)
REMARK    1  A    between atoms: C_1  and  C_2
REMARK    2  A    between atoms: C_6  and  N_8
REMARK    3  A    between atoms: N_8  and  S_9
REMARK    4  A    between atoms: S_9  and  C_12
REMARK    5  A    between atoms: C_14  and  N_20
REMARK    6  A    between atoms: C_17  and  O_18
REMARK    7  A    between atoms: O_18  and  C_19
REMARK    8  A    between atoms: C_21  and  C_23
REMARK    9  A    between atoms: C_23  and  N_24
REMARK   10  A    between atoms: N_24  and  C_25
REMARK                            x       y       z     vdW  Elec       q    Type
REMARK                         _______ _______ _______ _____ _____    ______ ____
ROOT
ATOM      1  C   UNL     1      -4.909   0.453   0.269  0.00  0.00    +0.152 A 
ATOM      2  C   UNL     1      -3.597   0.866   0.147  0.00  0.00    +0.055 A 
ATOM      3  C   UNL     1      -2.568  -0.064   0.208  0.00  0.00    +0.036 A 
ATOM      4  C   UNL     1      -2.859  -1.410   0.386  0.00  0.00    +0.027 A 
ATOM      5  C   UNL     1      -4.171  -1.821   0.513  0.00  0.00    +0.049 A 
ATOM      6  C   UNL     1      -5.199  -0.891   0.453  0.00  0.00    +0.147 A 
ENDROOT
BRANCH   3   7
ATOM      7  N   UNL     1      -1.236   0.355   0.083  0.00  0.00    -0.284 N 
ATOM      8  C   UNL     1      -0.852   1.541   0.595  0.00  0.00    +0.235 C 
ATOM      9  O   UNL     1      -1.675   2.285   1.087  0.00  0.00    -0.274 OA
ATOM     10  H   UNL     1      -0.591  -0.209  -0.371  0.00  0.00    +0.155 HD
BRANCH   8  11
ATOM     11  C   UNL     1       0.600   1.942   0.561  0.00  0.00    +0.205 C 
BRANCH  11  12
ATOM     12  N   UNL     1       0.758   3.260   1.180  0.00  0.00    -0.280 N 
ATOM     13  C   UNL     1       1.014   3.369   2.618  0.00  0.00    +0.134 C 
ATOM     14  C   UNL     1       0.667   4.373   0.425  0.00  0.00    +0.300 C 
ATOM     15  O   UNL     1       0.454   4.283  -0.769  0.00  0.00    -0.253 OA
ATOM     16  N   UNL     1       0.811   5.587   0.994  0.00  0.00    -0.313 N 
ATOM     17  H   UNL     1       0.981   5.659   1.946  0.00  0.00    +0.146 HD
ATOM     18  H   UNL     1       0.746   6.388   0.451  0.00  0.00    +0.146 HD
ENDBRANCH  11  12
ENDBRANCH   8  11
ENDBRANCH   3   7
BRANCH   1  19
ATOM     19  S   UNL     1      -6.215   1.633   0.192  0.00  0.00    +0.076 S 
ATOM     20  O   UNL     1      -7.045   1.395   1.321  0.00  0.00    -0.150 OA
ATOM     21  O   UNL     1      -5.608   2.895  -0.054  0.00  0.00    -0.150 OA
BRANCH  19  22
ATOM     22  N   UNL     1      -7.121   1.274  -1.146  0.00  0.00    -0.215 N 
ATOM     23  H   UNL     1      -8.026   0.940  -1.044  0.00  0.00    +0.174 HD
BRANCH  22  29
ATOM     24  C   UNL     1      -3.213   1.275  -4.126  0.00  0.00    +0.044 C 
ATOM     25  C   UNL     1      -4.691   1.460  -3.897  0.00  0.00    -0.049 A 
ATOM     26  C   UNL     1      -5.516   1.805  -4.952  0.00  0.00    +0.004 A 
ATOM     27  C   UNL     1      -6.872   1.975  -4.747  0.00  0.00    +0.017 A 
ATOM     28  C   UNL     1      -7.410   1.794  -3.486  0.00  0.00    +0.040 A 
ATOM     29  C   UNL     1      -6.583   1.452  -2.423  0.00  0.00    +0.062 A 
ATOM     30  C   UNL     1      -5.220   1.283  -2.634  0.00  0.00    +0.029 A 
ATOM     31 BR   UNL     1      -9.266   2.018  -3.207  0.00  0.00    -0.048 Br
ENDBRANCH  22  29
ENDBRANCH  19  22
ENDBRANCH   1  19
BRANCH   6  32
ATOM     32  O   UNL     1      -6.490  -1.297   0.573  0.00  0.00    -0.493 OA
ATOM     33  C   UNL     1      -6.724  -2.705   0.643  0.00  0.00    +0.277 C 
ENDBRANCH   6  32
TORSDOF 7
