REMARK  Name = ZINC48154503
REMARK  13 active torsions:
REMARK  status: ('A' for Active; 'I' for Inactive)
REMARK    1  A    between atoms: C_1  and  C_2
REMARK    2  A    between atoms: C_2  and  C_3
REMARK    3  A    between atoms: C_3  and  C_5
REMARK    4  A    between atoms: C_3  and  C_6
REMARK    5  A    between atoms: C_6  and  C_8
REMARK    6  A    between atoms: C_6  and  N_24
REMARK    7  A    between atoms: N_10  and  C_11
REMARK    8  A    between atoms: C_11  and  C_13
REMARK    9  A    between atoms: C_11  and  C_14
REMARK   10  A    between atoms: C_17  and  C_20
REMARK   11  A    between atoms: C_20  and  C_21
REMARK   12  A    between atoms: C_20  and  C_22
REMARK   13  A    between atoms: C_20  and  C_23
REMARK                            x       y       z     vdW  Elec       q    Type
REMARK                         _______ _______ _______ _____ _____    ______ ____
ROOT
ATOM      1  C   UNL     1       1.849  -2.467  -2.415  0.00  0.00    +0.234 C 
ATOM      2  O   UNL     1       1.630  -2.753  -3.574  0.00  0.00    -0.274 OA
ATOM      3  N   UNL     1       3.105  -2.529  -1.931  0.00  0.00    -0.307 N 
ATOM      4  H   UNL     1       3.279  -2.301  -1.005  0.00  0.00    +0.149 HD
ENDROOT
BRANCH   3   5
ATOM      5  C   UNL     1       4.207  -2.942  -2.804  0.00  0.00    +0.100 C 
ATOM      6  C   UNL     1       4.723  -1.730  -3.581  0.00  0.00    +0.033 C 
BRANCH   5   7
ATOM      7  C   UNL     1       5.322  -3.515  -1.968  0.00  0.00    -0.027 A 
ATOM      8  C   UNL     1       5.651  -2.930  -0.759  0.00  0.00    +0.006 A 
ATOM      9  C   UNL     1       6.674  -3.456   0.008  0.00  0.00    +0.004 A 
ATOM     10  C   UNL     1       7.368  -4.567  -0.434  0.00  0.00    -0.042 A 
ATOM     11  C   UNL     1       7.039  -5.152  -1.642  0.00  0.00    +0.004 A 
ATOM     12  C   UNL     1       6.013  -4.629  -2.407  0.00  0.00    +0.006 A 
BRANCH  10  13
ATOM     13  C   UNL     1       8.484  -5.139   0.402  0.00  0.00    -0.013 C 
ATOM     14  C   UNL     1       7.934  -5.564   1.765  0.00  0.00    +0.015 C 
ATOM     15  C   UNL     1       9.081  -6.355  -0.309  0.00  0.00    +0.015 C 
ATOM     16  C   UNL     1       9.569  -4.079   0.598  0.00  0.00    +0.015 C 
ENDBRANCH  10  13
ENDBRANCH   5   7
ENDBRANCH   3   5
BRANCH   1  17
ATOM     17  C   UNL     1       0.715  -2.043  -1.518  0.00  0.00    +0.163 C 
BRANCH  17  18
ATOM     18  N   UNL     1      -0.556  -2.497  -2.087  0.00  0.00    -0.288 N 
ATOM     19  C   UNL     1      -0.999  -3.745  -1.836  0.00  0.00    +0.298 C 
ATOM     20  O   UNL     1      -0.302  -4.524  -1.214  0.00  0.00    -0.253 OA
ATOM     21  N   UNL     1      -2.214  -4.130  -2.274  0.00  0.00    -0.313 N 
ATOM     22  H   UNL     1      -1.078  -1.900  -2.645  0.00  0.00    +0.151 HD
ATOM     23  H   UNL     1      -2.770  -3.509  -2.770  0.00  0.00    +0.146 HD
ATOM     24  H   UNL     1      -2.533  -5.028  -2.093  0.00  0.00    +0.146 HD
ENDBRANCH  17  18
BRANCH  17  25
ATOM     25  C   UNL     1       0.704  -0.517  -1.397  0.00  0.00    +0.015 C 
ATOM     26  C   UNL     1       0.493   0.102  -2.781  0.00  0.00    +0.010 C 
BRANCH  25  28
ATOM     27  C   UNL     1      -0.369   1.425  -0.249  0.00  0.00    +0.004 C 
ATOM     28  C   UNL     1      -0.433  -0.087  -0.468  0.00  0.00    +0.002 C 
ENDBRANCH  25  28
ENDBRANCH  17  25
ENDBRANCH   1  17
TORSDOF 7
