REMARK  Name = ZINC42016664
REMARK  9 active torsions:
REMARK  status: ('A' for Active; 'I' for Inactive)
REMARK    1  A    between atoms: C_1  and  C_2
REMARK    2  A    between atoms: C_5  and  N_8
REMARK    3  A    between atoms: N_8  and  C_9
REMARK    4  A    between atoms: C_9  and  N_11
REMARK    5  A    between atoms: N_11  and  N_12
REMARK    6  A    between atoms: C_13  and  C_15
REMARK    7  A    between atoms: C_18  and  N_21
REMARK    8  A    between atoms: C_22  and  C_24
REMARK    9  A    between atoms: C_27  and  C_29
REMARK                            x       y       z     vdW  Elec       q    Type
REMARK                         _______ _______ _______ _____ _____    ______ ____
ROOT
ATOM      1  N   UNL     1       0.535  -6.858  -0.114  0.00  0.00    -0.231 N 
ATOM      2  C   UNL     1       0.456  -8.204  -0.122  0.00  0.00    +0.260 C 
ATOM      3  O   UNL     1       0.391  -8.815   0.927  0.00  0.00    -0.269 OA
ATOM      4  H   UNL     1       0.587  -6.371  -0.951  0.00  0.00    +0.173 HD
ENDROOT
BRANCH   2   5
ATOM      5  C   UNL     1       0.450  -8.935  -1.404  0.00  0.00    +0.038 A 
ATOM      6  C   UNL     1       0.530  -8.235  -2.610  0.00  0.00    +0.015 A 
ATOM      7  C   UNL     1       0.525  -8.920  -3.804  0.00  0.00    +0.024 A 
ATOM      8  C   UNL     1       0.438 -10.309  -3.810  0.00  0.00    +0.033 A 
ATOM      9  C   UNL     1       0.357 -11.009  -2.611  0.00  0.00    +0.024 A 
ATOM     10  C   UNL     1       0.368 -10.331  -1.413  0.00  0.00    +0.015 A 
BRANCH   8  11
ATOM     11  N   UNL     1       0.432 -11.000  -5.021  0.00  0.00    -0.285 N 
ATOM     12  C   UNL     1      -0.159 -10.458  -6.104  0.00  0.00    +0.221 C 
ATOM     13  O   UNL     1      -0.772  -9.416  -6.002  0.00  0.00    -0.275 OA
ATOM     14  H   UNL     1       0.854 -11.871  -5.084  0.00  0.00    +0.155 HD
BRANCH  12  15
ATOM     15  C   UNL     1      -0.059 -11.145  -7.441  0.00  0.00    +0.078 C 
ATOM     16  C   UNL     1      -1.337 -11.757  -8.019  0.00  0.00    +0.017 C 
ATOM     17  C   UNL     1      -0.753 -10.481  -8.631  0.00  0.00    -0.002 C 
ATOM     18  C   UNL     1      -1.497  -9.169  -8.373  0.00  0.00    +0.008 C 
ENDBRANCH  12  15
ENDBRANCH   8  11
ENDBRANCH   2   5
BRANCH   1  19
ATOM     19  N   UNL     1       0.541  -6.164   1.103  0.00  0.00    -0.245 N 
ATOM     20  H   UNL     1       0.489  -6.651   1.940  0.00  0.00    +0.172 HD
BRANCH  19  21
ATOM     21  C   UNL     1       0.619  -4.818   1.110  0.00  0.00    +0.151 C 
ATOM     22  S   UNL     1       0.627  -3.970   2.597  0.00  0.00    -0.017 S 
BRANCH  21  23
ATOM     23  N   UNL     1       0.692  -4.141  -0.053  0.00  0.00    -0.296 N 
ATOM     24  H   UNL     1       0.606  -4.614  -0.895  0.00  0.00    +0.154 HD
BRANCH  23  29
ATOM     25  C   UNL     1       1.498   1.474  -0.020  0.00  0.00    +0.044 C 
ATOM     26  C   UNL     1       1.284  -0.018  -0.029  0.00  0.00    -0.050 A 
ATOM     27  C   UNL     1       1.991  -0.821   0.847  0.00  0.00    +0.005 A 
ATOM     28  C   UNL     1       1.797  -2.189   0.842  0.00  0.00    +0.023 A 
ATOM     29  C   UNL     1       0.891  -2.756  -0.044  0.00  0.00    +0.033 A 
ATOM     30  C   UNL     1       0.182  -1.946  -0.922  0.00  0.00    +0.023 A 
ATOM     31  C   UNL     1       0.377  -0.579  -0.908  0.00  0.00    +0.005 A 
ENDBRANCH  23  29
ENDBRANCH  21  23
ENDBRANCH  19  21
ENDBRANCH   1  19
TORSDOF 7
