REMARK  Name = ZINC19420392
REMARK  7 active torsions:
REMARK  status: ('A' for Active; 'I' for Inactive)
REMARK    1  A    between atoms: C_7  and  C_11
REMARK    2  A    between atoms: C_11  and  O_13
REMARK    3  A    between atoms: O_13  and  C_14
REMARK    4  A    between atoms: C_14  and  C_15
REMARK    5  A    between atoms: N_17  and  C_18
REMARK    6  A    between atoms: C_18  and  C_19
REMARK    7  A    between atoms: N_21  and  C_22
REMARK                            x       y       z     vdW  Elec       q    Type
REMARK                         _______ _______ _______ _____ _____    ______ ____
ROOT
ATOM      1  C   UNL     1       1.001  -6.895  -0.075  0.00  0.00    +0.251 C 
ATOM      2  O   UNL     1       2.214  -6.907  -0.094  0.00  0.00    -0.272 OA
ATOM      3  N   UNL     1       0.316  -8.056  -0.064  0.00  0.00    -0.304 N 
ATOM      4  H   UNL     1      -0.654  -8.047  -0.049  0.00  0.00    +0.149 HD
ENDROOT
BRANCH   1   5
ATOM      5  C   UNL     1       0.261  -5.583  -0.066  0.00  0.00    +0.328 C 
BRANCH   5   6
ATOM      6  O   UNL     1       1.200  -4.506  -0.081  0.00  0.00    -0.452 OA
BRANCH   6   7
ATOM      7  C   UNL     1       0.696  -3.255  -0.075  0.00  0.00    +0.342 C 
ATOM      8  O   UNL     1      -0.507  -3.084  -0.057  0.00  0.00    -0.245 OA
BRANCH   7  15
ATOM      9  C   UNL     1      -0.022   1.373  -0.069  0.00  0.00    +0.001 A 
ATOM     10  C   UNL     1       1.165   2.090  -0.087  0.00  0.00    +0.002 A 
ATOM     11  C   UNL     1       2.379   1.438  -0.104  0.00  0.00    +0.026 A 
ATOM     12  C   UNL     1       2.419   0.047  -0.103  0.00  0.00    +0.047 A 
ATOM     13  C   UNL     1       1.216  -0.676  -0.085  0.00  0.00    +0.014 A 
ATOM     14  C   UNL     1      -0.003  -0.004  -0.069  0.00  0.00    +0.011 A 
ATOM     15  C   UNL     1       1.601  -2.100  -0.089  0.00  0.00    +0.084 A 
ATOM     16  C   UNL     1       2.966  -2.131  -0.109  0.00  0.00    +0.098 A 
ATOM     17  N   UNL     1       3.452  -0.868  -0.117  0.00  0.00    -0.360 N 
ATOM     18  H   UNL     1       4.394  -0.638  -0.131  0.00  0.00    +0.165 HD
ENDBRANCH   7  15
ENDBRANCH   6   7
ENDBRANCH   5   6
ENDBRANCH   1   5
BRANCH   3  19
ATOM     19  C   UNL     1       1.036  -9.332  -0.073  0.00  0.00    +0.200 C 
BRANCH  19  20
ATOM     20  C   UNL     1       0.046 -10.468  -0.057  0.00  0.00    +0.234 C 
ATOM     21  O   UNL     1      -1.144 -10.235  -0.040  0.00  0.00    -0.274 OA
ATOM     22  N   UNL     1       0.483 -11.743  -0.063  0.00  0.00    -0.283 N 
ATOM     23  H   UNL     1       1.431 -11.930  -0.142  0.00  0.00    +0.155 HD
BRANCH  22  24
ATOM     24  C   UNL     1      -0.432 -12.796   0.047  0.00  0.00    +0.047 A 
ATOM     25  C   UNL     1      -1.690 -12.688  -0.530  0.00  0.00    +0.024 A 
ATOM     26  C   UNL     1      -2.590 -13.730  -0.421  0.00  0.00    +0.002 A 
ATOM     27  C   UNL     1      -2.240 -14.880   0.264  0.00  0.00    +0.001 A 
ATOM     28  C   UNL     1      -0.989 -14.991   0.841  0.00  0.00    +0.017 A 
ATOM     29  C   UNL     1      -0.081 -13.955   0.729  0.00  0.00    +0.039 A 
ATOM     30 BR   UNL     1       1.634 -14.110   1.512  0.00  0.00    -0.048 Br
ENDBRANCH  22  24
ENDBRANCH  19  20
ENDBRANCH   3  19
TORSDOF 7
