REMARK  Name = ZINC38188573
REMARK  5 active torsions:
REMARK  status: ('A' for Active; 'I' for Inactive)
REMARK    1  A    between atoms: C_2  and  C_3
REMARK    2  A    between atoms: C_3  and  N_4
REMARK    3  A    between atoms: N_20  and  N_21
REMARK    4  A    between atoms: C_22  and  C_24
REMARK    5  A    between atoms: C_29  and  O_30
REMARK                            x       y       z     vdW  Elec       q    Type
REMARK                         _______ _______ _______ _____ _____    ______ ____
ROOT
ATOM      1  N   UNL     1      -1.318  -1.700  -1.126  0.00  0.00    -0.241 N 
ATOM      2  C   UNL     1      -1.812  -1.300  -2.286  0.00  0.00    +0.260 C 
ATOM      3  O   UNL     1      -2.251  -0.176  -2.438  0.00  0.00    -0.269 OA
ATOM      4  C   UNL     1      -1.805  -2.290  -3.393  0.00  0.00    +0.090 C 
ATOM      5  C   UNL     1      -2.253  -2.153  -4.698  0.00  0.00    +0.065 C 
ATOM      6  C   UNL     1      -2.231  -3.172  -5.768  0.00  0.00    +0.010 A 
ATOM      7  C   UNL     1      -1.793  -4.492  -5.819  0.00  0.00    +0.010 A 
ATOM      8  C   UNL     1      -1.909  -5.206  -6.995  0.00  0.00    +0.001 A 
ATOM      9  C   UNL     1      -2.457  -4.610  -8.118  0.00  0.00    +0.002 A 
ATOM     10  C   UNL     1      -2.894  -3.302  -8.079  0.00  0.00    +0.024 A 
ATOM     11  C   UNL     1      -2.787  -2.566  -6.904  0.00  0.00    +0.042 A 
ATOM     12  N   UNL     1      -3.142  -1.258  -6.596  0.00  0.00    -0.281 N 
ATOM     13  C   UNL     1      -2.858  -0.962  -5.316  0.00  0.00    +0.250 C 
ATOM     14  O   UNL     1      -3.063   0.104  -4.765  0.00  0.00    -0.270 OA
ATOM     15  S   UNL     1      -1.066  -3.706  -2.592  0.00  0.00    -0.047 S 
ATOM     16  C   UNL     1      -0.818  -2.983  -0.979  0.00  0.00    +0.186 C 
ATOM     17  N   UNL     1      -0.295  -3.531   0.083  0.00  0.00    -0.157 NA
ATOM     18  H   UNL     1      -3.546  -0.639  -7.224  0.00  0.00    +0.155 HD
ENDROOT
BRANCH  17  19
ATOM     19  N   UNL     1       0.159  -4.856   0.036  0.00  0.00    -0.201 N 
ATOM     20  C   UNL     1       0.699  -5.422   1.133  0.00  0.00    +0.267 C 
ATOM     21  O   UNL     1       0.793  -4.783   2.164  0.00  0.00    -0.268 OA
ATOM     22  H   UNL     1       0.084  -5.365  -0.786  0.00  0.00    +0.178 HD
BRANCH  20  23
ATOM     23  C   UNL     1       1.177  -6.817   1.083  0.00  0.00    +0.080 A 
ATOM     24  C   UNL     1       1.076  -7.553  -0.100  0.00  0.00    +0.017 A 
ATOM     25  C   UNL     1       1.525  -8.855  -0.140  0.00  0.00    +0.001 A 
ATOM     26  C   UNL     1       2.075  -9.440   0.989  0.00  0.00    +0.004 A 
ATOM     27  C   UNL     1       2.181  -8.724   2.165  0.00  0.00    +0.046 A 
ATOM     28  C   UNL     1       1.740  -7.410   2.222  0.00  0.00    +0.129 A 
BRANCH  28  29
ATOM     29  O   UNL     1       1.848  -6.704   3.375  0.00  0.00    -0.506 OA
ATOM     30  H   UNL     1       1.080  -6.782   3.958  0.00  0.00    +0.292 HD
ENDBRANCH  28  29
ENDBRANCH  20  23
ENDBRANCH  17  19
BRANCH   1  31
ATOM     31  C   UNL     1      -1.293  -0.775   0.010  0.00  0.00    +0.142 C 
BRANCH  31  33
ATOM     32  C   UNL     1      -0.016   1.306   0.009  0.00  0.00    +0.005 C 
ATOM     33  C   UNL     1       0.002  -0.004   0.002  0.00  0.00    -0.015 C 
ENDBRANCH  31  33
ENDBRANCH   1  31
TORSDOF 5
