REMARK  Name = ZINC13029967
REMARK  10 active torsions:
REMARK  status: ('A' for Active; 'I' for Inactive)
REMARK    1  A    between atoms: C_1  and  C_2
REMARK    2  A    between atoms: C_2  and  O_3
REMARK    3  A    between atoms: O_3  and  C_4
REMARK    4  A    between atoms: C_9  and  C_10
REMARK    5  A    between atoms: C_10  and  C_12
REMARK    6  A    between atoms: C_10  and  N_20
REMARK    7  A    between atoms: N_14  and  C_15
REMARK    8  A    between atoms: N_20  and  C_21
REMARK    9  A    between atoms: C_28  and  C_30
REMARK   10  A    between atoms: C_30  and  N_31
REMARK                            x       y       z     vdW  Elec       q    Type
REMARK                         _______ _______ _______ _____ _____    ______ ____
ROOT
ATOM      1  N   UNL     1      -5.822   3.488  -1.730  0.00  0.00    -0.254 N 
ATOM      2  C   UNL     1      -4.841   2.773  -1.144  0.00  0.00    +0.242 C 
ATOM      3  O   UNL     1      -4.088   2.107  -1.822  0.00  0.00    -0.273 OA
ENDROOT
BRANCH   1   4
ATOM      4  C   UNL     1      -6.621   4.343  -0.961  0.00  0.00    +0.038 A 
ATOM      5  C   UNL     1      -6.093   5.526  -0.462  0.00  0.00    +0.026 A 
ATOM      6  C   UNL     1      -6.885   6.371   0.291  0.00  0.00    +0.040 A 
ATOM      7  C   UNL     1      -8.201   6.032   0.559  0.00  0.00    +0.124 A 
ATOM      8  C   UNL     1      -8.727   4.849   0.068  0.00  0.00    +0.040 A 
ATOM      9  C   UNL     1      -7.940   4.005  -0.691  0.00  0.00    +0.026 A 
ATOM     10  F   UNL     1      -8.972   6.856   1.301  0.00  0.00    -0.205 F 
ENDBRANCH   1   4
BRANCH   1  11
ATOM     11  C   UNL     1      -6.051   3.372  -3.173  0.00  0.00    +0.201 C 
BRANCH  11  17
ATOM     12  C   UNL     1      -6.336   1.442  -4.748  0.00  0.00    +0.126 A 
ATOM     13  C   UNL     1      -6.799   0.166  -5.038  0.00  0.00    +0.046 A 
ATOM     14  C   UNL     1      -7.474  -0.558  -4.075  0.00  0.00    +0.004 A 
ATOM     15  C   UNL     1      -7.689  -0.012  -2.822  0.00  0.00    +0.001 A 
ATOM     16  C   UNL     1      -7.224   1.256  -2.529  0.00  0.00    +0.009 A 
ATOM     17  C   UNL     1      -6.553   1.987  -3.491  0.00  0.00    +0.024 A 
BRANCH  12  18
ATOM     18  O   UNL     1      -5.672   2.156  -5.694  0.00  0.00    -0.492 OA
BRANCH  18  20
ATOM     19  C   UNL     1      -4.723   2.481  -7.893  0.00  0.00    +0.048 C 
ATOM     20  C   UNL     1      -5.485   1.532  -6.966  0.00  0.00    +0.225 C 
ENDBRANCH  18  20
ENDBRANCH  12  18
ENDBRANCH  11  17
BRANCH  11  21
ATOM     21  C   UNL     1      -7.077   4.389  -3.602  0.00  0.00    +0.239 C 
ATOM     22  O   UNL     1      -7.448   5.241  -2.823  0.00  0.00    -0.273 OA
ATOM     23  N   UNL     1      -7.582   4.351  -4.851  0.00  0.00    -0.311 N 
ATOM     24  H   UNL     1      -7.285   3.669  -5.473  0.00  0.00    +0.149 HD
BRANCH  23  25
ATOM     25  C   UNL     1      -8.579   5.339  -5.268  0.00  0.00    +0.073 C 
ATOM     26  C   UNL     1      -9.996   4.843  -4.914  0.00  0.00    +0.022 C 
ATOM     27  C   UNL     1     -10.873   5.318  -6.099  0.00  0.00    +0.002 C 
ATOM     28  C   UNL     1      -9.939   5.114  -7.318  0.00  0.00    +0.002 C 
ATOM     29  C   UNL     1      -8.543   5.512  -6.797  0.00  0.00    +0.022 C 
ENDBRANCH  23  25
ENDBRANCH  11  21
ENDBRANCH   1  11
BRANCH   2  30
ATOM     30  C   UNL     1      -4.681   2.801   0.354  0.00  0.00    +0.242 C 
BRANCH  30  31
ATOM     31  N   UNL     1      -3.635   1.855   0.751  0.00  0.00    -0.235 N 
ATOM     32  C   UNL     1      -3.804   0.528   1.069  0.00  0.00    +0.090 A 
ATOM     33  C   UNL     1      -4.905  -0.320   1.123  0.00  0.00    +0.029 A 
ATOM     34  C   UNL     1      -4.740  -1.626   1.490  0.00  0.00    +0.002 A 
ATOM     35  C   UNL     1      -3.479  -2.118   1.801  0.00  0.00    +0.002 A 
ATOM     36  C   UNL     1      -2.382  -1.308   1.752  0.00  0.00    +0.032 A 
ATOM     37  C   UNL     1      -2.526   0.036   1.383  0.00  0.00    +0.113 A 
ATOM     38  N   UNL     1      -1.651   1.054   1.247  0.00  0.00    -0.129 NA
ATOM     39  N   UNL     1      -2.265   2.124   0.881  0.00  0.00    -0.064 NA
ENDBRANCH  30  31
ENDBRANCH   2  30
TORSDOF 9
