REMARK  Name = ZINC67181058
REMARK  9 active torsions:
REMARK  status: ('A' for Active; 'I' for Inactive)
REMARK    1  A    between atoms: C_1  and  C_2
REMARK    2  A    between atoms: C_2  and  C_3
REMARK    3  A    between atoms: C_3  and  C_5
REMARK    4  A    between atoms: C_3  and  C_6
REMARK    5  A    between atoms: C_6  and  C_8
REMARK    6  A    between atoms: C_6  and  N_23
REMARK    7  A    between atoms: N_10  and  C_11
REMARK    8  A    between atoms: C_15  and  C_17
REMARK    9  A    between atoms: C_18  and  C_22
REMARK                            x       y       z     vdW  Elec       q    Type
REMARK                         _______ _______ _______ _____ _____    ______ ____
ROOT
ATOM      1  C   UNL     1       1.598  -3.077  -2.362  0.00  0.00    +0.238 C 
ATOM      2  O   UNL     1       2.730  -3.512  -2.377  0.00  0.00    -0.273 OA
ATOM      3  N   UNL     1       0.928  -2.901  -3.518  0.00  0.00    -0.284 N 
ATOM      4  H   UNL     1      -0.001  -2.624  -3.503  0.00  0.00    +0.155 HD
ENDROOT
BRANCH   3   5
ATOM      5  C   UNL     1       1.574  -3.116  -4.740  0.00  0.00    +0.034 A 
ATOM      6  C   UNL     1       0.860  -3.606  -5.827  0.00  0.00    +0.023 A 
ATOM      7  C   UNL     1       1.493  -3.821  -7.037  0.00  0.00    +0.002 A 
ATOM      8  C   UNL     1       2.840  -3.551  -7.173  0.00  0.00    +0.009 A 
ATOM      9  C   UNL     1       3.566  -3.058  -6.088  0.00  0.00    -0.009 A 
ATOM     10  C   UNL     1       2.925  -2.836  -4.869  0.00  0.00    +0.032 A 
BRANCH   9  11
ATOM     11  C   UNL     1       5.009  -2.768  -6.231  0.00  0.00    +0.022 A 
ATOM     12  C   UNL     1       5.993  -3.540  -6.788  0.00  0.00    -0.036 A 
ATOM     13  C   UNL     1       7.282  -3.055  -6.810  0.00  0.00    +0.011 A 
ATOM     14  C   UNL     1       7.538  -1.831  -6.280  0.00  0.00    +0.046 A 
ATOM     15  S   UNL     1       5.919  -1.316  -5.730  0.00  0.00    -0.096 S 
ATOM     16  C   UNL     1       5.672  -4.894  -7.367  0.00  0.00    +0.045 C 
ENDBRANCH   9  11
ENDBRANCH   3   5
BRANCH   1  17
ATOM     17  C   UNL     1       0.939  -2.735  -1.050  0.00  0.00    +0.163 C 
BRANCH  17  18
ATOM     18  N   UNL     1       1.629  -3.431   0.039  0.00  0.00    -0.288 N 
ATOM     19  C   UNL     1       2.939  -3.202   0.262  0.00  0.00    +0.298 C 
ATOM     20  O   UNL     1       3.547  -2.418  -0.440  0.00  0.00    -0.253 OA
ATOM     21  N   UNL     1       3.573  -3.842   1.264  0.00  0.00    -0.313 N 
ATOM     22  H   UNL     1       1.144  -4.056   0.599  0.00  0.00    +0.151 HD
ATOM     23  H   UNL     1       3.088  -4.468   1.825  0.00  0.00    +0.146 HD
ATOM     24  H   UNL     1       4.516  -3.678   1.425  0.00  0.00    +0.146 HD
ENDBRANCH  17  18
BRANCH  17  25
ATOM     25  C   UNL     1       1.017  -1.224  -0.820  0.00  0.00    +0.015 C 
ATOM     26  C   UNL     1       0.296  -0.497  -1.957  0.00  0.00    +0.010 C 
BRANCH  25  28
ATOM     27  C   UNL     1       0.534   0.614   0.802  0.00  0.00    +0.004 C 
ATOM     28  C   UNL     1       0.348  -0.877   0.512  0.00  0.00    +0.002 C 
ENDBRANCH  25  28
ENDBRANCH  17  25
ENDBRANCH   1  17
TORSDOF 6
