REMARK  Name = ZINC55455241
REMARK  9 active torsions:
REMARK  status: ('A' for Active; 'I' for Inactive)
REMARK    1  A    between atoms: C_1  and  S_2
REMARK    2  A    between atoms: S_2  and  C_3
REMARK    3  A    between atoms: C_3  and  C_4
REMARK    4  A    between atoms: C_4  and  C_5
REMARK    5  A    between atoms: C_5  and  C_7
REMARK    6  A    between atoms: C_5  and  N_24
REMARK    7  A    between atoms: N_9  and  C_10
REMARK    8  A    between atoms: C_10  and  C_11
REMARK    9  A    between atoms: C_11  and  C_17
REMARK                            x       y       z     vdW  Elec       q    Type
REMARK                         _______ _______ _______ _____ _____    ______ ____
ROOT
ATOM      1  C   UNL     1      -2.425  -6.417   0.687  0.00  0.00    +0.233 C 
ATOM      2  O   UNL     1      -3.217  -5.673   1.224  0.00  0.00    -0.274 OA
ATOM      3  N   UNL     1      -2.478  -6.609  -0.646  0.00  0.00    -0.313 N 
ATOM      4  H   UNL     1      -1.844  -7.205  -1.076  0.00  0.00    +0.149 HD
ENDROOT
BRANCH   1   5
ATOM      5  C   UNL     1      -1.380  -7.126   1.509  0.00  0.00    +0.161 C 
BRANCH   5   6
ATOM      6  N   UNL     1      -1.205  -6.427   2.785  0.00  0.00    -0.288 N 
ATOM      7  C   UNL     1      -2.248  -6.293   3.628  0.00  0.00    +0.298 C 
ATOM      8  O   UNL     1      -3.333  -6.752   3.331  0.00  0.00    -0.253 OA
ATOM      9  N   UNL     1      -2.087  -5.650   4.802  0.00  0.00    -0.313 N 
ATOM     10  H   UNL     1      -0.339  -6.061   3.022  0.00  0.00    +0.151 HD
ATOM     11  H   UNL     1      -1.221  -5.283   5.039  0.00  0.00    +0.146 HD
ATOM     12  H   UNL     1      -2.837  -5.553   5.409  0.00  0.00    +0.146 HD
ENDBRANCH   5   6
BRANCH   5  13
ATOM     13  C   UNL     1      -1.829  -8.565   1.774  0.00  0.00    +0.042 C 
BRANCH  13  14
ATOM     14  C   UNL     1      -0.715  -9.321   2.501  0.00  0.00    +0.071 C 
BRANCH  14  16
ATOM     15  C   UNL     1       0.166 -11.777   3.669  0.00  0.00    +0.084 C 
ATOM     16  S   UNL     1      -1.247 -11.027   2.814  0.00  0.00    -0.164 S 
ENDBRANCH  14  16
ENDBRANCH  13  14
ENDBRANCH   5  13
ENDBRANCH   1   5
BRANCH   3  17
ATOM     17  C   UNL     1      -3.494  -5.920  -1.446  0.00  0.00    +0.115 C 
BRANCH  17  18
ATOM     18  C   UNL     1      -3.260  -6.213  -2.929  0.00  0.00    +0.011 C 
ATOM     19  C   UNL     1      -4.272  -5.430  -3.769  0.00  0.00    +0.013 C 
ATOM     20  C   UNL     1      -5.691  -5.853  -3.383  0.00  0.00    +0.001 C 
ATOM     21  C   UNL     1      -5.864  -7.351  -3.640  0.00  0.00    +0.000 C 
ATOM     22  C   UNL     1      -4.852  -8.134  -2.801  0.00  0.00    +0.001 C 
ATOM     23  C   UNL     1      -3.434  -7.711  -3.187  0.00  0.00    +0.013 C 
BRANCH  18  24
ATOM     24  C   UNL     1      -1.863  -5.796  -3.309  0.00  0.00    -0.040 A 
ATOM     25  C   UNL     1      -1.007  -6.707  -3.901  0.00  0.00    +0.007 A 
ATOM     26  C   UNL     1       0.274  -6.326  -4.251  0.00  0.00    +0.038 A 
ATOM     27  C   UNL     1       0.702  -5.032  -4.008  0.00  0.00    +0.123 A 
ATOM     28  C   UNL     1      -0.156  -4.120  -3.415  0.00  0.00    +0.038 A 
ATOM     29  C   UNL     1      -1.439  -4.502  -3.071  0.00  0.00    +0.007 A 
ATOM     30  F   UNL     1       1.954  -4.658  -4.349  0.00  0.00    -0.205 F 
ENDBRANCH  18  24
ENDBRANCH  17  18
ENDBRANCH   3  17
TORSDOF 8
