REMARK  Name = ZINC16115560
REMARK  13 active torsions:
REMARK  status: ('A' for Active; 'I' for Inactive)
REMARK    1  A    between atoms: C_1  and  C_2
REMARK    2  A    between atoms: C_2  and  O_3
REMARK    3  A    between atoms: O_3  and  C_4
REMARK    4  A    between atoms: C_4  and  C_6
REMARK    5  A    between atoms: C_8  and  C_31
REMARK    6  A    between atoms: C_15  and  C_26
REMARK    7  A    between atoms: C_17  and  C_21
REMARK    8  A    between atoms: C_18  and  C_20
REMARK    9  A    between atoms: C_21  and  O_23
REMARK   10  A    between atoms: O_23  and  C_24
REMARK   11  A    between atoms: C_24  and  C_25
REMARK   12  A    between atoms: C_34  and  O_37
REMARK   13  A    between atoms: O_37  and  C_38
REMARK                            x       y       z     vdW  Elec       q    Type
REMARK                         _______ _______ _______ _____ _____    ______ ____
ROOT
ATOM      1  C   UNL     1      -1.045   1.586   1.352  0.00  0.00    +0.176 C 
ATOM      2  C   UNL     1      -0.233   1.212   0.107  0.00  0.00    +0.046 C 
ATOM      3  C   UNL     1      -0.907   1.830  -1.120  0.00  0.00    +0.060 C 
ATOM      4  C   UNL     1      -2.326   1.329  -1.224  0.00  0.00    +0.016 C 
ATOM      5  C   UNL     1      -3.034   1.010  -0.120  0.00  0.00    +0.025 C 
ATOM      6  C   UNL     1      -2.468   1.121   1.162  0.00  0.00    +0.176 C 
ATOM      7  O   UNL     1      -3.136   0.836   2.136  0.00  0.00    -0.291 OA
ATOM      8  C   UNL     1      -4.458   0.528  -0.231  0.00  0.00    +0.093 C 
ATOM      9  C   UNL     1      -4.761   0.061  -1.625  0.00  0.00    +0.065 C 
ATOM     10  C   UNL     1      -3.982   0.411  -2.662  0.00  0.00    +0.016 C 
ATOM     11  N   UNL     1      -2.884   1.202  -2.468  0.00  0.00    -0.321 N 
ATOM     12  C   UNL     1      -4.321  -0.071  -4.049  0.00  0.00    +0.061 C 
ATOM     13  H   UNL     1      -2.449   1.739  -3.324  0.00  0.00    +0.152 HD
ENDROOT
BRANCH   2  14
ATOM     14  C   UNL     1       1.169   1.748   0.238  0.00  0.00    -0.042 A 
ATOM     15  C   UNL     1       1.689   2.570  -0.745  0.00  0.00    +0.007 A 
ATOM     16  C   UNL     1       2.973   3.066  -0.624  0.00  0.00    +0.046 A 
ATOM     17  C   UNL     1       3.744   2.730   0.478  0.00  0.00    +0.120 A 
ATOM     18  C   UNL     1       3.223   1.901   1.461  0.00  0.00    +0.046 A 
ATOM     19  C   UNL     1       1.936   1.411   1.338  0.00  0.00    +0.007 A 
BRANCH  17  20
ATOM     20  O   UNL     1       5.009   3.213   0.597  0.00  0.00    -0.495 OA
ATOM     21  C   UNL     1       5.480   4.061  -0.453  0.00  0.00    +0.277 C 
ENDBRANCH  17  20
ENDBRANCH   2  14
BRANCH   8  22
ATOM     22  C   UNL     1      -5.392   1.655   0.127  0.00  0.00    -0.028 A 
ATOM     23  C   UNL     1      -6.271   1.528   1.186  0.00  0.00    +0.012 A 
ATOM     24  C   UNL     1      -7.098   2.561   1.482  0.00  0.00    +0.045 A 
ATOM     25  S   UNL     1      -6.643   3.764   0.244  0.00  0.00    -0.105 S 
ATOM     26  C   UNL     1      -5.379   2.811  -0.581  0.00  0.00    +0.049 A 
ENDBRANCH   8  22
BRANCH   1  27
ATOM     27  C   UNL     1      -1.025   3.081   1.538  0.00  0.00    +0.318 C 
ATOM     28  O   UNL     1      -0.496   3.786   0.710  0.00  0.00    -0.250 OA
BRANCH  27  29
ATOM     29  O   UNL     1      -1.593   3.631   2.623  0.00  0.00    -0.464 OA
BRANCH  29  31
ATOM     30  C   UNL     1      -2.230   5.516   4.026  0.00  0.00    +0.048 C 
ATOM     31  C   UNL     1      -1.536   5.077   2.736  0.00  0.00    +0.229 C 
ENDBRANCH  29  31
ENDBRANCH  27  29
ENDBRANCH   1  27
BRANCH   9  32
ATOM     32  C   UNL     1      -5.888  -0.764  -1.851  0.00  0.00    +0.338 C 
ATOM     33  O   UNL     1      -6.085  -1.235  -2.955  0.00  0.00    -0.245 OA
BRANCH  32  34
ATOM     34  O   UNL     1      -6.745  -1.027  -0.842  0.00  0.00    -0.462 OA
BRANCH  34  35
ATOM     35  C   UNL     1      -7.861  -1.867  -1.141  0.00  0.00    +0.229 C 
ATOM     36  C   UNL     1      -8.713  -2.051   0.116  0.00  0.00    +0.048 C 
ENDBRANCH  34  35
ENDBRANCH  32  34
ENDBRANCH   9  32
TORSDOF 9
