REMARK  Name = ZINC13640373
REMARK  9 active torsions:
REMARK  status: ('A' for Active; 'I' for Inactive)
REMARK    1  A    between atoms: C_1  and  C_2
REMARK    2  A    between atoms: C_2  and  C_3
REMARK    3  A    between atoms: C_3  and  C_5
REMARK    4  A    between atoms: C_3  and  N_6
REMARK    5  A    between atoms: N_6  and  S_7
REMARK    6  A    between atoms: S_7  and  C_10
REMARK    7  A    between atoms: C_23  and  C_26
REMARK    8  A    between atoms: C_29  and  O_33
REMARK    9  A    between atoms: C_31  and  O_32
REMARK                            x       y       z     vdW  Elec       q    Type
REMARK                         _______ _______ _______ _____ _____    ______ ____
ROOT
ATOM      1  C   UNL     1      -2.759   2.144  -3.027  0.00  0.00    +0.106 A 
ATOM      2  C   UNL     1      -2.122   3.171  -3.699  0.00  0.00    +0.030 A 
ATOM      3  C   UNL     1      -0.872   3.587  -3.284  0.00  0.00    +0.025 A 
ATOM      4  C   UNL     1      -0.261   2.976  -2.197  0.00  0.00    +0.031 A 
ATOM      5  C   UNL     1      -0.900   1.959  -1.511  0.00  0.00    -0.018 A 
ATOM      6  C   UNL     1      -2.152   1.535  -1.948  0.00  0.00    +0.034 A 
ATOM      7  C   UNL     1      -0.277   1.257  -0.346  0.00  0.00    +0.049 C 
ATOM      8  C   UNL     1      -0.921   1.692   0.949  0.00  0.00    -0.023 C 
ATOM      9  C   UNL     1      -0.023   1.760   1.901  0.00  0.00    -0.030 C 
ATOM     10  C   UNL     1       1.344   1.373   1.371  0.00  0.00    +0.033 C 
ATOM     11  C   UNL     1       1.214   1.602  -0.164  0.00  0.00    +0.029 C 
ATOM     12  C   UNL     1       1.441   3.094  -0.423  0.00  0.00    +0.108 C 
ATOM     13  N   UNL     1       1.004   3.411  -1.787  0.00  0.00    -0.336 N 
ATOM     14  H   UNL     1       1.578   3.910  -2.389  0.00  0.00    +0.147 HD
ENDROOT
BRANCH  12  15
ATOM     15  C   UNL     1       0.642   3.905   0.564  0.00  0.00    +0.015 A 
ATOM     16  C   UNL     1      -0.656   4.272   0.266  0.00  0.00    +0.012 A 
ATOM     17  C   UNL     1      -1.391   5.016   1.169  0.00  0.00    +0.046 A 
ATOM     18  C   UNL     1      -0.827   5.396   2.378  0.00  0.00    +0.120 A 
ATOM     19  C   UNL     1       0.476   5.029   2.680  0.00  0.00    +0.091 A 
ATOM     20  C   UNL     1       1.209   4.279   1.774  0.00  0.00    +0.125 A 
BRANCH  20  21
ATOM     21  O   UNL     1       2.485   3.913   2.069  0.00  0.00    -0.506 OA
ATOM     22  H   UNL     1       3.153   4.552   1.784  0.00  0.00    +0.292 HD
ENDBRANCH  20  21
BRANCH  18  23
ATOM     23  O   UNL     1      -1.550   6.128   3.266  0.00  0.00    -0.507 OA
ATOM     24  H   UNL     1      -2.055   5.595   3.896  0.00  0.00    +0.292 HD
ENDBRANCH  18  23
ENDBRANCH  12  15
BRANCH   1  25
ATOM     25  S   UNL     1      -4.354   1.609  -3.553  0.00  0.00    +0.059 S 
ATOM     26  O   UNL     1      -4.971   1.002  -2.425  0.00  0.00    -0.153 OA
ATOM     27  O   UNL     1      -4.941   2.702  -4.246  0.00  0.00    -0.153 OA
BRANCH  25  28
ATOM     28  N   UNL     1      -4.125   0.408  -4.670  0.00  0.00    -0.187 NA
ATOM     29  H   UNL     1      -4.400   0.543  -5.590  0.00  0.00    +0.148 HD
BRANCH  28  30
ATOM     30  C   UNL     1      -3.506  -0.857  -4.268  0.00  0.00    +0.073 C 
ATOM     31  C   UNL     1      -4.598  -1.876  -3.937  0.00  0.00    +0.025 C 
BRANCH  30  33
ATOM     32  C   UNL     1      -1.477  -0.430  -5.662  0.00  0.00    +0.005 C 
ATOM     33  C   UNL     1      -2.643  -1.389  -5.414  0.00  0.00    +0.017 C 
ENDBRANCH  30  33
ENDBRANCH  28  30
ENDBRANCH  25  28
ENDBRANCH   1  25
TORSDOF 7
