REMARK  Name = ZINC42334870
REMARK  4 active torsions:
REMARK  status: ('A' for Active; 'I' for Inactive)
REMARK    1  A    between atoms: C_3  and  N_19
REMARK    2  A    between atoms: C_6  and  S_7
REMARK    3  A    between atoms: S_7  and  C_8
REMARK    4  A    between atoms: C_8  and  C_16
REMARK                            x       y       z     vdW  Elec       q    Type
REMARK                         _______ _______ _______ _____ _____    ______ ____
ROOT
ATOM      1  C   UNL     1      -0.974  -2.643  -0.156  0.00  0.00    +0.125 C 
ATOM      2  C   UNL     1      -0.050  -2.678  -1.370  0.00  0.00    +0.052 C 
ATOM      3  C   UNL     1       0.702  -4.011  -1.416  0.00  0.00    +0.168 C 
ATOM      4  S   UNL     1      -0.500  -5.357  -1.627  0.00  0.00    -0.031 S 
ATOM      5  O   UNL     1       0.160  -6.593  -1.390  0.00  0.00    -0.174 OA
ATOM      6  O   UNL     1      -1.186  -5.162  -2.856  0.00  0.00    -0.174 OA
ATOM      7  C   UNL     1      -1.658  -5.049  -0.260  0.00  0.00    +0.168 C 
ATOM      8  C   UNL     1      -2.147  -3.601  -0.343  0.00  0.00    +0.052 C 
ENDROOT
BRANCH   1   9
ATOM      9  C   UNL     1      -0.196  -3.044   1.071  0.00  0.00    +0.372 C 
ATOM     10  O   UNL     1      -0.096  -2.272   2.009  0.00  0.00    -0.245 OA
ATOM     11  O   UNL     1       0.333  -4.141   1.125  0.00  0.00    -0.245 OA
ENDBRANCH   1   9
BRANCH   1  12
ATOM     12  S   UNL     1      -1.608  -0.958   0.064  0.00  0.00    -0.105 S 
BRANCH  12  18
ATOM     13  C   UNL     1       0.419   0.486  -1.094  0.00  0.00    +0.019 A 
ATOM     14  C   UNL     1       1.557   1.269  -1.022  0.00  0.00    +0.044 A 
ATOM     15  C   UNL     1       2.084   1.587   0.225  0.00  0.00    +0.116 A 
ATOM     16  N   UNL     1       1.510   1.148   1.334  0.00  0.00    -0.240 NA
ATOM     17  C   UNL     1       0.424   0.399   1.303  0.00  0.00    +0.127 A 
ATOM     18  C   UNL     1      -0.158   0.043   0.095  0.00  0.00    +0.027 A 
BRANCH  15  19
ATOM     19  N   UNL     1       3.230   2.375   0.308  0.00  0.00    -0.343 N 
ATOM     20  H   UNL     1       3.655   2.699  -0.501  0.00  0.00    +0.144 HD
ATOM     21  H   UNL     1       3.602   2.599   1.175  0.00  0.00    +0.144 HD
ENDBRANCH  15  19
ENDBRANCH  12  18
ENDBRANCH   1  12
TORSDOF 4
