REMARK  Name = ZINC06143994
REMARK  5 active torsions:
REMARK  status: ('A' for Active; 'I' for Inactive)
REMARK    1  A    between atoms: C_3  and  C_8
REMARK    2  A    between atoms: C_11  and  C_13
REMARK    3  A    between atoms: C_15  and  C_26
REMARK    4  A    between atoms: C_16  and  O_25
REMARK    5  A    between atoms: C_26  and  C_28
REMARK                            x       y       z     vdW  Elec       q    Type
REMARK                         _______ _______ _______ _____ _____    ______ ____
ROOT
ATOM      1  C   UNL     1       0.548   6.313  -0.010  0.00  0.00    +0.187 C 
ATOM      2  C   UNL     1       1.925   5.693  -0.000  0.00  0.00    +0.075 C 
ATOM      3  C   UNL     1       2.812   6.710  -0.097  0.00  0.00    +0.189 C 
ATOM      4  C   UNL     1       2.079   7.989  -0.165  0.00  0.00    +0.288 C 
ATOM      5  O   UNL     1       2.596   9.085  -0.256  0.00  0.00    -0.266 OA
ATOM      6  N   UNL     1       0.754   7.763  -0.110  0.00  0.00    -0.227 N 
ATOM      7  C   UNL     1      -0.242   8.730  -0.149  0.00  0.00    +0.191 A 
ATOM      8  N   UNL     1      -1.561   8.598  -0.107  0.00  0.00    -0.126 NA
ATOM      9  N   UNL     1      -2.331   9.596  -0.150  0.00  0.00    -0.148 NA
ATOM     10  C   UNL     1      -1.877  10.829  -0.248  0.00  0.00    +0.183 A 
ATOM     11  S   UNL     1      -0.115  10.511  -0.276  0.00  0.00    -0.038 S 
ENDROOT
BRANCH   1  15
ATOM     12  C   UNL     1      -0.834   6.059   3.363  0.00  0.00    +0.135 A 
ATOM     13  C   UNL     1      -1.513   5.043   2.768  0.00  0.00    +0.050 A 
ATOM     14  C   UNL     1      -1.091   5.004   1.424  0.00  0.00    +0.047 A 
ATOM     15  C   UNL     1      -0.178   5.984   1.269  0.00  0.00    +0.131 A 
ATOM     16  O   UNL     1      -0.028   6.621   2.441  0.00  0.00    -0.457 OA
BRANCH  12  19
ATOM     17  C   UNL     1      -1.947   6.198   6.947  0.00  0.00    +0.002 A 
ATOM     18  C   UNL     1      -1.839   5.808   5.628  0.00  0.00    +0.011 A 
ATOM     19  C   UNL     1      -0.958   6.475   4.775  0.00  0.00    +0.019 A 
ATOM     20  C   UNL     1      -0.199   7.541   5.261  0.00  0.00    +0.031 A 
ATOM     21  C   UNL     1      -0.320   7.924   6.582  0.00  0.00    +0.042 A 
ATOM     22  C   UNL     1      -1.192   7.254   7.423  0.00  0.00    +0.020 A 
ATOM     23 CL   UNL     1       0.623   9.250   7.189  0.00  0.00    -0.084 Cl
ENDBRANCH  12  19
ENDBRANCH   1  15
BRANCH   3  24
ATOM     24  O   UNL     1       4.159   6.576  -0.126  0.00  0.00    -0.502 OA
ATOM     25  H   UNL     1       4.582   7.479  -0.202  0.00  0.00    +0.292 HD
ENDBRANCH   3  24
BRANCH   2  26
ATOM     26  C   UNL     1       2.240   4.262   0.090  0.00  0.00    +0.202 C 
ATOM     27  O   UNL     1       2.813   3.825   1.073  0.00  0.00    -0.286 OA
BRANCH  26  28
ATOM     28  C   UNL     1       1.867   3.359  -1.002  0.00  0.00    +0.059 A 
ATOM     29  C   UNL     1       2.148   2.008  -1.155  0.00  0.00    +0.019 A 
ATOM     30  C   UNL     1       1.672   1.396  -2.286  0.00  0.00    +0.008 A 
ATOM     31  C   UNL     1       0.967   2.128  -3.191  0.00  0.00    +0.046 A 
ATOM     32  S   UNL     1       0.933   3.709  -2.481  0.00  0.00    -0.093 S 
ENDBRANCH  26  28
ENDBRANCH   2  26
TORSDOF 5
