REMARK  Name = ZINC67652137
REMARK  8 active torsions:
REMARK  status: ('A' for Active; 'I' for Inactive)
REMARK    1  A    between atoms: C_1  and  C_2
REMARK    2  A    between atoms: C_2  and  C_3
REMARK    3  A    between atoms: C_2  and  C_4
REMARK    4  A    between atoms: C_2  and  O_5
REMARK    5  A    between atoms: O_5  and  C_6
REMARK    6  A    between atoms: C_6  and  C_7
REMARK    7  A    between atoms: C_7  and  S_8
REMARK    8  A    between atoms: S_8  and  C_9
REMARK                            x       y       z     vdW  Elec       q    Type
REMARK                         _______ _______ _______ _____ _____    ______ ____
ROOT
ATOM      1  C   UNL     1       4.918  -0.722  -4.223  0.00  0.00    +0.196 A 
ATOM      2  N   UNL     1       4.212  -1.472  -5.039  0.00  0.00    -0.122 NA
ATOM      3  N   UNL     1       4.924  -1.820  -6.053  0.00  0.00    -0.127 NA
ATOM      4  C   UNL     1       6.136  -1.308  -5.942  0.00  0.00    +0.180 A 
ATOM      5  N   UNL     1       6.161  -0.587  -4.768  0.00  0.00    -0.275 N 
ATOM      6  C   UNL     1       7.297   0.070  -4.382  0.00  0.00    +0.115 A 
ATOM      7  C   UNL     1       8.407   0.023  -5.147  0.00  0.00    +0.059 A 
ATOM      8  C   UNL     1       8.412  -0.704  -6.353  0.00  0.00    +0.045 A 
ATOM      9  C   UNL     1       7.292  -1.368  -6.747  0.00  0.00    +0.087 A 
ATOM     10 CL   UNL     1       7.282  -2.266  -8.233  0.00  0.00    -0.080 Cl
ATOM     11 CL   UNL     1       9.840   0.863  -4.641  0.00  0.00    -0.082 Cl
ENDROOT
BRANCH   1  12
ATOM     12  S   UNL     1       4.360  -0.015  -2.709  0.00  0.00    -0.083 S 
BRANCH  12  13
ATOM     13  C   UNL     1       2.640  -0.574  -2.571  0.00  0.00    +0.105 C 
BRANCH  13  14
ATOM     14  C   UNL     1       2.026  -0.024  -1.282  0.00  0.00    +0.171 C 
BRANCH  14  15
ATOM     15  O   UNL     1       0.671  -0.465  -1.174  0.00  0.00    -0.373 OA
BRANCH  15  17
ATOM     16  C   UNL     1      -0.019   1.526   0.010  0.00  0.00    +0.041 C 
ATOM     17  C   UNL     1       0.002  -0.004   0.002  0.00  0.00    +0.061 C 
ATOM     18  C   UNL     1       0.742  -0.511   1.242  0.00  0.00    +0.041 C 
ATOM     19  C   UNL     1      -1.433  -0.534   0.013  0.00  0.00    +0.041 C 
ENDBRANCH  15  17
ENDBRANCH  14  15
ENDBRANCH  13  14
ENDBRANCH  12  13
ENDBRANCH   1  12
TORSDOF 5
