REMARK  Name = ZINC59431839
REMARK  9 active torsions:
REMARK  status: ('A' for Active; 'I' for Inactive)
REMARK    1  A    between atoms: C_1  and  C_2
REMARK    2  A    between atoms: C_5  and  N_9
REMARK    3  A    between atoms: C_6  and  C_8
REMARK    4  A    between atoms: C_14  and  S_16
REMARK    5  A    between atoms: S_16  and  C_17
REMARK    6  A    between atoms: N_21  and  C_22
REMARK    7  A    between atoms: N_23  and  C_24
REMARK    8  A    between atoms: C_27  and  C_31
REMARK    9  A    between atoms: C_29  and  C_30
REMARK                            x       y       z     vdW  Elec       q    Type
REMARK                         _______ _______ _______ _____ _____    ______ ____
ROOT
ATOM      1  N   UNL     1       0.425  -4.188   0.052  0.00  0.00    -0.283 N 
ATOM      2  C   UNL     1       0.711  -4.881  -1.108  0.00  0.00    +0.225 A 
ATOM      3  N   UNL     1       0.372  -6.162  -1.218  0.00  0.00    -0.181 NA
ATOM      4  C   UNL     1       0.647  -6.829  -2.335  0.00  0.00    +0.225 A 
ATOM      5  N   UNL     1       1.262  -6.215  -3.341  0.00  0.00    -0.188 NA
ATOM      6  C   UNL     1       1.602  -4.934  -3.231  0.00  0.00    +0.202 A 
ATOM      7  N   UNL     1       1.321  -4.266  -2.116  0.00  0.00    -0.188 NA
ATOM      8  N   UNL     1       0.295  -8.160  -2.450  0.00  0.00    -0.283 N 
ATOM      9  H   UNL     1       0.580  -3.232   0.097  0.00  0.00    +0.155 HD
ATOM     10  H   UNL     1      -0.102  -8.623  -1.695  0.00  0.00    +0.155 HD
ENDROOT
BRANCH   1  15
ATOM     11  C   UNL     1      -1.652  -6.938   4.558  0.00  0.00    +0.044 C 
ATOM     12  C   UNL     1      -1.101  -6.207   3.361  0.00  0.00    -0.050 A 
ATOM     13  C   UNL     1      -1.381  -6.662   2.085  0.00  0.00    +0.005 A 
ATOM     14  C   UNL     1      -0.877  -5.995   0.986  0.00  0.00    +0.024 A 
ATOM     15  C   UNL     1      -0.087  -4.866   1.163  0.00  0.00    +0.037 A 
ATOM     16  C   UNL     1       0.192  -4.412   2.445  0.00  0.00    -0.029 A 
ATOM     17  C   UNL     1      -0.319  -5.081   3.540  0.00  0.00    +0.008 A 
ATOM     18  C   UNL     1       1.049  -3.188   2.642  0.00  0.00    +0.045 C 
ENDBRANCH   1  15
BRANCH   8  19
ATOM     19  C   UNL     1       0.509  -8.839  -3.653  0.00  0.00    +0.037 A 
ATOM     20  C   UNL     1       0.207  -8.225  -4.862  0.00  0.00    +0.024 A 
ATOM     21  C   UNL     1       0.420  -8.899  -6.048  0.00  0.00    +0.005 A 
ATOM     22  C   UNL     1       0.934 -10.183  -6.034  0.00  0.00    -0.050 A 
ATOM     23  C   UNL     1       1.235 -10.796  -4.832  0.00  0.00    +0.008 A 
ATOM     24  C   UNL     1       1.030 -10.126  -3.642  0.00  0.00    -0.029 A 
ATOM     25  C   UNL     1       1.366 -10.793  -2.333  0.00  0.00    +0.045 C 
ATOM     26  C   UNL     1       1.165 -10.915  -7.331  0.00  0.00    +0.044 C 
ENDBRANCH   8  19
BRANCH   6  27
ATOM     27  S   UNL     1       2.417  -4.121  -4.564  0.00  0.00    -0.010 S 
BRANCH  27  28
ATOM     28  C   UNL     1       2.518  -2.442  -4.041  0.00  0.00    +0.199 A 
ATOM     29  N   UNL     1       2.169  -1.967  -2.869  0.00  0.00    -0.122 NA
ATOM     30  N   UNL     1       2.377  -0.699  -2.832  0.00  0.00    -0.137 NA
ATOM     31  C   UNL     1       2.867  -0.293  -3.969  0.00  0.00    +0.225 A 
ATOM     32  N   UNL     1       2.980  -1.389  -4.777  0.00  0.00    -0.311 N 
ATOM     33  C   UNL     1       3.489  -1.425  -6.151  0.00  0.00    +0.152 C 
ENDBRANCH  27  28
ENDBRANCH   6  27
TORSDOF 4
