REMARK  Name = ZINC03278438
REMARK  5 active torsions:
REMARK  status: ('A' for Active; 'I' for Inactive)
REMARK    1  A    between atoms: C_3  and  C_23
REMARK    2  A    between atoms: C_5  and  C_11
REMARK    3  A    between atoms: C_14  and  C_17
REMARK    4  A    between atoms: N_25  and  C_26
REMARK    5  A    between atoms: C_30  and  N_32
REMARK                            x       y       z     vdW  Elec       q    Type
REMARK                         _______ _______ _______ _____ _____    ______ ____
ROOT
ATOM      1  C   UNL     1      -0.037   1.324   0.015  0.00  0.00    +0.029 C 
ATOM      2  C   UNL     1      -0.010   0.005   0.007  0.00  0.00    +0.019 C 
ATOM      3  C   UNL     1      -1.287  -0.812   0.004  0.00  0.00    +0.143 C 
ATOM      4  C   UNL     1      -1.151  -1.887   1.090  0.00  0.00    +0.122 C 
ATOM      5  N   UNL     1       0.129  -2.577   0.936  0.00  0.00    -0.291 N 
ATOM      6  C   UNL     1       1.220  -1.968   0.451  0.00  0.00    +0.304 C 
ATOM      7  O   UNL     1       2.267  -2.585   0.417  0.00  0.00    -0.253 OA
ATOM      8  N   UNL     1       1.199  -0.701  -0.005  0.00  0.00    -0.273 N 
ATOM      9  H   UNL     1       0.190  -3.510   1.194  0.00  0.00    +0.151 HD
ATOM     10  H   UNL     1       2.009  -0.281  -0.334  0.00  0.00    +0.156 HD
ENDROOT
BRANCH   4  11
ATOM     11  C   UNL     1      -1.212  -1.238   2.449  0.00  0.00    -0.026 A 
ATOM     12  C   UNL     1      -0.090  -0.615   2.966  0.00  0.00    +0.006 A 
ATOM     13  C   UNL     1      -0.139  -0.019   4.210  0.00  0.00    +0.009 A 
ATOM     14  C   UNL     1      -1.322  -0.046   4.946  0.00  0.00    -0.018 A 
ATOM     15  C   UNL     1      -2.449  -0.676   4.421  0.00  0.00    +0.009 A 
ATOM     16  C   UNL     1      -2.390  -1.263   3.173  0.00  0.00    +0.006 A 
BRANCH  14  17
ATOM     17  C   UNL     1      -1.381   0.592   6.284  0.00  0.00    -0.018 A 
ATOM     18  C   UNL     1      -0.256   1.226   6.807  0.00  0.00    +0.008 A 
ATOM     19  C   UNL     1      -0.317   1.818   8.052  0.00  0.00    +0.001 A 
ATOM     20  C   UNL     1      -1.492   1.783   8.781  0.00  0.00    +0.000 A 
ATOM     21  C   UNL     1      -2.612   1.155   8.267  0.00  0.00    +0.001 A 
ATOM     22  C   UNL     1      -2.564   0.565   7.020  0.00  0.00    +0.008 A 
ENDBRANCH  14  17
ENDBRANCH   4  11
BRANCH   3  23
ATOM     23  C   UNL     1      -1.474  -1.463  -1.341  0.00  0.00    +0.228 C 
ATOM     24  O   UNL     1      -1.532  -2.672  -1.427  0.00  0.00    -0.275 OA
ATOM     25  N   UNL     1      -1.578  -0.703  -2.450  0.00  0.00    -0.285 N 
ATOM     26  H   UNL     1      -1.599   0.264  -2.374  0.00  0.00    +0.155 HD
BRANCH  25  27
ATOM     27  C   UNL     1      -1.655  -1.309  -3.709  0.00  0.00    +0.036 A 
ATOM     28  C   UNL     1      -1.055  -0.707  -4.808  0.00  0.00    +0.023 A 
ATOM     29  C   UNL     1      -1.133  -1.307  -6.049  0.00  0.00    +0.004 A 
ATOM     30  C   UNL     1      -1.806  -2.506  -6.199  0.00  0.00    +0.033 A 
ATOM     31  C   UNL     1      -2.404  -3.107  -5.106  0.00  0.00    +0.128 A 
ATOM     32  C   UNL     1      -2.325  -2.515  -3.861  0.00  0.00    +0.056 A 
BRANCH  31  33
ATOM     33  N   UNL     1      -3.125  -4.389  -5.271  0.00  0.00    +0.056 N 
ATOM     34  O   UNL     1      -3.190  -4.911  -6.360  0.00  0.00    -0.126 OA
ATOM     35  O   UNL     1      -3.648  -4.916  -4.316  0.00  0.00    -0.126 OA
ENDBRANCH  31  33
ENDBRANCH  25  27
ENDBRANCH   3  23
TORSDOF 5
