REMARK  Name = ZINC13645396
REMARK  7 active torsions:
REMARK  status: ('A' for Active; 'I' for Inactive)
REMARK    1  A    between atoms: C_1  and  C_2
REMARK    2  A    between atoms: C_5  and  N_9
REMARK    3  A    between atoms: C_7  and  C_8
REMARK    4  A    between atoms: N_9  and  S_10
REMARK    5  A    between atoms: S_10  and  C_13
REMARK    6  A    between atoms: C_26  and  C_29
REMARK    7  A    between atoms: C_30  and  C_34
REMARK                            x       y       z     vdW  Elec       q    Type
REMARK                         _______ _______ _______ _____ _____    ______ ____
ROOT
ATOM      1  C   UNL     1      -4.347   0.171   2.667  0.00  0.00    +0.109 A 
ATOM      2  C   UNL     1      -4.147  -0.053   4.017  0.00  0.00    +0.030 A 
ATOM      3  C   UNL     1      -2.924  -0.517   4.460  0.00  0.00    +0.025 A 
ATOM      4  C   UNL     1      -1.901  -0.757   3.550  0.00  0.00    +0.031 A 
ATOM      5  C   UNL     1      -2.096  -0.531   2.199  0.00  0.00    -0.018 A 
ATOM      6  C   UNL     1      -3.330  -0.066   1.764  0.00  0.00    +0.034 A 
ATOM      7  C   UNL     1      -1.026  -0.767   1.168  0.00  0.00    +0.049 C 
ATOM      8  C   UNL     1      -0.758   0.552   0.456  0.00  0.00    -0.023 C 
ATOM      9  C   UNL     1       0.279   1.154   0.983  0.00  0.00    -0.030 C 
ATOM     10  C   UNL     1       0.854   0.326   2.118  0.00  0.00    +0.033 C 
ATOM     11  C   UNL     1       0.338  -1.098   1.802  0.00  0.00    +0.029 C 
ATOM     12  C   UNL     1       0.195  -1.919   3.070  0.00  0.00    +0.112 C 
ATOM     13  N   UNL     1      -0.667  -1.207   4.021  0.00  0.00    -0.336 N 
ATOM     14  H   UNL     1      -0.395  -1.074   4.942  0.00  0.00    +0.147 HD
ENDROOT
BRANCH  12  15
ATOM     15  C   UNL     1      -0.419  -3.254   2.738  0.00  0.00    +0.013 A 
ATOM     16  C   UNL     1       0.173  -4.471   2.658  0.00  0.00    -0.038 A 
ATOM     17  C   UNL     1      -0.597  -5.572   2.337  0.00  0.00    +0.011 A 
ATOM     18  C   UNL     1      -1.921  -5.402   2.100  0.00  0.00    +0.046 A 
ATOM     19  S   UNL     1      -2.115  -3.643   2.339  0.00  0.00    -0.099 S 
ATOM     20  C   UNL     1       1.650  -4.620   2.920  0.00  0.00    +0.044 C 
ENDBRANCH  12  15
BRANCH   1  21
ATOM     21  S   UNL     1      -5.906   0.760   2.097  0.00  0.00    +0.072 S 
ATOM     22  O   UNL     1      -6.569   1.312   3.226  0.00  0.00    -0.150 OA
ATOM     23  O   UNL     1      -5.650   1.515   0.920  0.00  0.00    -0.150 OA
BRANCH  21  24
ATOM     24  N   UNL     1      -6.788  -0.561   1.629  0.00  0.00    -0.216 N 
ATOM     25  H   UNL     1      -7.590  -0.805   2.116  0.00  0.00    +0.174 HD
BRANCH  24  30
ATOM     26  C   UNL     1      -5.120  -3.655  -2.821  0.00  0.00    +0.044 C 
ATOM     27  C   UNL     1      -5.563  -2.833  -1.638  0.00  0.00    -0.047 A 
ATOM     28  C   UNL     1      -6.138  -1.591  -1.838  0.00  0.00    +0.005 A 
ATOM     29  C   UNL     1      -6.549  -0.837  -0.757  0.00  0.00    +0.025 A 
ATOM     30  C   UNL     1      -6.377  -1.323   0.533  0.00  0.00    +0.048 A 
ATOM     31  C   UNL     1      -5.799  -2.570   0.730  0.00  0.00    +0.028 A 
ATOM     32  C   UNL     1      -5.394  -3.321  -0.356  0.00  0.00    -0.046 A 
ATOM     33  C   UNL     1      -4.768  -4.675  -0.143  0.00  0.00    +0.044 C 
ENDBRANCH  24  30
ENDBRANCH  21  24
ENDBRANCH   1  21
TORSDOF 4
