REMARK  Name = ZINC12922267
REMARK  9 active torsions:
REMARK  status: ('A' for Active; 'I' for Inactive)
REMARK    1  A    between atoms: C_1  and  C_2
REMARK    2  A    between atoms: C_11  and  C_12
REMARK    3  A    between atoms: C_11  and  N_60
REMARK    4  A    between atoms: N_14  and  C_15
REMARK    5  A    between atoms: C_18  and  S_21
REMARK    6  A    between atoms: S_21  and  N_24
REMARK    7  A    between atoms: N_24  and  C_25
REMARK    8  A    between atoms: N_24  and  C_26
REMARK    9  A    between atoms: C_26  and  C_27
REMARK                            x       y       z     vdW  Elec       q    Type
REMARK                         _______ _______ _______ _____ _____    ______ ____
ROOT
ATOM      1  C   UNL     1      -1.045   1.958  -0.220  0.00  0.00    +0.033 A 
ATOM      2  C   UNL     1      -0.880   3.335  -0.139  0.00  0.00    +0.025 A 
ATOM      3  C   UNL     1      -1.984   4.164  -0.163  0.00  0.00    +0.030 A 
ATOM      4  C   UNL     1      -3.254   3.624  -0.257  0.00  0.00    +0.106 A 
ATOM      5  C   UNL     1      -3.422   2.253  -0.331  0.00  0.00    +0.030 A 
ATOM      6  C   UNL     1      -2.321   1.419  -0.313  0.00  0.00    +0.025 A 
ENDROOT
BRANCH   1   9
ATOM      7  C   UNL     1       1.231   1.521  -0.758  0.00  0.00    +0.201 C 
ATOM      8  O   UNL     1       1.282   2.578  -1.351  0.00  0.00    -0.278 OA
ATOM      9  N   UNL     1       0.073   1.116  -0.201  0.00  0.00    -0.287 N 
ATOM     10  H   UNL     1       0.012   0.239   0.209  0.00  0.00    +0.155 HD
BRANCH   7  11
ATOM     11  C   UNL     1       2.463   0.661  -0.644  0.00  0.00    +0.020 C 
BRANCH  11  21
ATOM     12  C   UNL     1       4.553   2.348   0.572  0.00  0.00    -0.007 C 
ATOM     13  C   UNL     1       3.950   2.570  -0.816  0.00  0.00    -0.023 C 
ATOM     14  C   UNL     1       4.975   3.205  -1.724  0.00  0.00    +0.005 A 
ATOM     15  C   UNL     1       5.803   4.225  -1.454  0.00  0.00    +0.021 A 
ATOM     16  C   UNL     1       6.574   4.458  -2.612  0.00  0.00    +0.019 A 
ATOM     17  C   UNL     1       6.183   3.565  -3.546  0.00  0.00    +0.086 A 
ATOM     18  N   UNL     1       5.202   2.795  -3.011  0.00  0.00    -0.354 N 
ATOM     19  C   UNL     1       4.466   1.696  -3.648  0.00  0.00    +0.103 C 
ATOM     20  C   UNL     1       3.204   1.421  -2.821  0.00  0.00    -0.055 C 
ATOM     21  N   UNL     1       3.584   1.256  -1.401  0.00  0.00    +0.392 N 
ATOM     22  H   UNL     1       4.395   0.629  -1.344  0.00  0.00    -0.080 HD
ENDBRANCH  11  21
ENDBRANCH   7  11
ENDBRANCH   1   9
BRANCH   4  23
ATOM     23  S   UNL     1      -4.661   4.684  -0.280  0.00  0.00    +0.061 S 
ATOM     24  O   UNL     1      -4.209   5.948  -0.749  0.00  0.00    -0.153 OA
ATOM     25  O   UNL     1      -5.703   3.962  -0.922  0.00  0.00    -0.153 OA
BRANCH  23  26
ATOM     26  N   UNL     1      -5.135   4.904   1.291  0.00  0.00    -0.175 NA
ATOM     27  C   UNL     1      -6.106   3.990   1.898  0.00  0.00    +0.132 C 
BRANCH  26  28
ATOM     28  C   UNL     1      -4.584   6.012   2.074  0.00  0.00    +0.144 C 
BRANCH  28  29
ATOM     29  C   UNL     1      -5.520   7.191   2.005  0.00  0.00    -0.032 A 
ATOM     30  C   UNL     1      -5.371   8.135   1.006  0.00  0.00    +0.005 A 
ATOM     31  C   UNL     1      -6.233   9.213   0.939  0.00  0.00    +0.000 A 
ATOM     32  C   UNL     1      -7.238   9.354   1.877  0.00  0.00    +0.000 A 
ATOM     33  C   UNL     1      -7.384   8.413   2.880  0.00  0.00    +0.000 A 
ATOM     34  C   UNL     1      -6.525   7.332   2.943  0.00  0.00    +0.005 A 
ENDBRANCH  28  29
ENDBRANCH  26  28
ENDBRANCH  23  26
ENDBRANCH   4  23
TORSDOF 7
