REMARK  Name = ZINC12476853
REMARK  13 active torsions:
REMARK  status: ('A' for Active; 'I' for Inactive)
REMARK    1  A    between atoms: C_1  and  C_2
REMARK    2  A    between atoms: C_5  and  C_8
REMARK    3  A    between atoms: C_8  and  C_10
REMARK    4  A    between atoms: C_8  and  N_17
REMARK    5  A    between atoms: N_12  and  C_13
REMARK    6  A    between atoms: C_13  and  C_14
REMARK    7  A    between atoms: C_13  and  C_15
REMARK    8  A    between atoms: C_13  and  C_16
REMARK    9  A    between atoms: N_17  and  C_18
REMARK   10  A    between atoms: C_18  and  C_19
REMARK   11  A    between atoms: C_25  and  C_27
REMARK   12  A    between atoms: C_27  and  N_28
REMARK   13  A    between atoms: C_30  and  C_33
REMARK                            x       y       z     vdW  Elec       q    Type
REMARK                         _______ _______ _______ _____ _____    ______ ____
ROOT
ATOM      1  N   UNL     1       3.337   1.643   3.862  0.00  0.00    -0.282 N 
ATOM      2  C   UNL     1       4.534   1.047   4.030  0.00  0.00    +0.240 C 
ATOM      3  O   UNL     1       4.609  -0.163   4.069  0.00  0.00    -0.273 OA
ENDROOT
BRANCH   1   4
ATOM      4  C   UNL     1       2.126   0.829   3.728  0.00  0.00    +0.192 C 
BRANCH   4   9
ATOM      5  C   UNL     1       1.407  -2.359   8.493  0.00  0.00    +0.044 C 
ATOM      6  C   UNL     1       1.595  -1.528   7.250  0.00  0.00    -0.050 A 
ATOM      7  C   UNL     1       1.190  -2.018   6.023  0.00  0.00    +0.004 A 
ATOM      8  C   UNL     1       1.362  -1.256   4.883  0.00  0.00    +0.006 A 
ATOM      9  C   UNL     1       1.938  -0.002   4.970  0.00  0.00    -0.018 A 
ATOM     10  C   UNL     1       2.347   0.486   6.197  0.00  0.00    +0.006 A 
ATOM     11  C   UNL     1       2.171  -0.274   7.338  0.00  0.00    +0.004 A 
ENDBRANCH   4   9
BRANCH   4  12
ATOM     12  C   UNL     1       0.933   1.731   3.542  0.00  0.00    +0.238 C 
ATOM     13  O   UNL     1       0.755   2.665   4.295  0.00  0.00    -0.273 OA
ATOM     14  N   UNL     1       0.063   1.500   2.538  0.00  0.00    -0.309 N 
ATOM     15  H   UNL     1       0.205   0.753   1.935  0.00  0.00    +0.149 HD
BRANCH  14  16
ATOM     16  C   UNL     1      -1.097   2.377   2.357  0.00  0.00    +0.026 C 
ATOM     17  C   UNL     1      -0.619   3.809   2.110  0.00  0.00    +0.031 C 
ATOM     18  C   UNL     1      -1.966   2.338   3.616  0.00  0.00    +0.031 C 
ATOM     19  C   UNL     1      -1.916   1.898   1.157  0.00  0.00    +0.031 C 
ENDBRANCH  14  16
ENDBRANCH   4  12
ENDBRANCH   1   4
BRANCH   1  20
ATOM     20  C   UNL     1       3.246   3.104   3.815  0.00  0.00    +0.140 C 
BRANCH  20  21
ATOM     21  C   UNL     1       3.109   3.653   5.237  0.00  0.00    +0.136 C 
ATOM     22  C   UNL     1       2.907   5.184   5.205  0.00  0.00    +0.035 C 
ATOM     23  C   UNL     1       3.699   5.692   6.431  0.00  0.00    +0.031 C 
ATOM     24  C   UNL     1       4.286   4.408   7.058  0.00  0.00    +0.160 C 
ATOM     25  O   UNL     1       4.336   3.455   5.972  0.00  0.00    -0.375 OA
ENDBRANCH  20  21
ENDBRANCH   1  20
BRANCH   2  26
ATOM     26  C   UNL     1       5.779   1.883   4.168  0.00  0.00    +0.264 C 
BRANCH  26  27
ATOM     27  N   UNL     1       6.941   1.006   4.338  0.00  0.00    -0.154 N 
ATOM     28  N   UNL     1       7.401   0.590   5.467  0.00  0.00    -0.130 NA
ATOM     29  C   UNL     1       8.445  -0.176   5.219  0.00  0.00    +0.205 A 
ATOM     30  N   UNL     1       8.599  -0.196   3.887  0.00  0.00    -0.108 NA
ATOM     31  N   UNL     1       7.664   0.536   3.383  0.00  0.00    -0.045 NA
BRANCH  29  32
ATOM     32  C   UNL     1       9.290  -0.875   6.220  0.00  0.00    +0.023 A 
ATOM     33  C   UNL     1       9.008  -0.754   7.579  0.00  0.00    +0.014 A 
ATOM     34  C   UNL     1       9.793  -1.409   8.505  0.00  0.00    +0.039 A 
ATOM     35  C   UNL     1      10.866  -2.179   8.086  0.00  0.00    +0.123 A 
ATOM     36  C   UNL     1      11.153  -2.298   6.736  0.00  0.00    +0.039 A 
ATOM     37  C   UNL     1      10.370  -1.650   5.803  0.00  0.00    +0.014 A 
ATOM     38  F   UNL     1      11.635  -2.815   8.997  0.00  0.00    -0.205 F 
ENDBRANCH  29  32
ENDBRANCH  26  27
ENDBRANCH   2  26
TORSDOF 9
