REMARK  Name = ZINC58291152
REMARK  5 active torsions:
REMARK  status: ('A' for Active; 'I' for Inactive)
REMARK    1  A    between atoms: C_4  and  N_11
REMARK    2  A    between atoms: C_5  and  C_7
REMARK    3  A    between atoms: C_7  and  C_8
REMARK    4  A    between atoms: C_12  and  C_14
REMARK    5  A    between atoms: C_20  and  N_23
REMARK                            x       y       z     vdW  Elec       q    Type
REMARK                         _______ _______ _______ _____ _____    ______ ____
ROOT
ATOM      1  N   UNL     1       3.621  -0.650  -0.036  0.00  0.00    -0.280 N 
ATOM      2  C   UNL     1       4.775   0.038  -0.146  0.00  0.00    +0.267 C 
ATOM      3  O   UNL     1       4.761   1.254  -0.140  0.00  0.00    -0.268 OA
ATOM      4  H   UNL     1       3.637  -1.618   0.024  0.00  0.00    +0.155 HD
ENDROOT
BRANCH   2   5
ATOM      5  C   UNL     1       6.050  -0.682  -0.273  0.00  0.00    +0.127 A 
ATOM      6  C   UNL     1       7.274  -0.102  -0.385  0.00  0.00    +0.043 A 
ATOM      7  C   UNL     1       8.234  -1.138  -0.485  0.00  0.00    +0.005 A 
ATOM      8  C   UNL     1       9.629  -1.148  -0.617  0.00  0.00    +0.010 A 
ATOM      9  C   UNL     1      10.296  -2.336  -0.691  0.00  0.00    +0.003 A 
ATOM     10  C   UNL     1       9.604  -3.540  -0.635  0.00  0.00    +0.035 A 
ATOM     11  C   UNL     1       8.234  -3.557  -0.506  0.00  0.00    +0.152 A 
ATOM     12  C   UNL     1       7.531  -2.357  -0.428  0.00  0.00    +0.102 A 
ATOM     13  N   UNL     1       6.196  -2.056  -0.293  0.00  0.00    -0.240 NA
BRANCH  11  14
ATOM     14  N   UNL     1       7.509  -4.846  -0.449  0.00  0.00    +0.059 N 
ATOM     15  O   UNL     1       8.121  -5.887  -0.516  0.00  0.00    -0.126 OA
ATOM     16  O   UNL     1       6.306  -4.859  -0.335  0.00  0.00    -0.126 OA
ENDBRANCH  11  14
ENDBRANCH   2   5
BRANCH   1  20
ATOM     17  C   UNL     1      -0.015   1.381   0.041  0.00  0.00    +0.000 A 
ATOM     18  C   UNL     1       1.104   1.946   0.627  0.00  0.00    +0.002 A 
ATOM     19  C   UNL     1       2.310   1.275   0.603  0.00  0.00    +0.023 A 
ATOM     20  C   UNL     1       2.400   0.032  -0.010  0.00  0.00    +0.037 A 
ATOM     21  C   UNL     1       1.275  -0.532  -0.598  0.00  0.00    -0.017 A 
ATOM     22  C   UNL     1       0.071   0.144  -0.570  0.00  0.00    +0.006 A 
BRANCH  21  23
ATOM     23  C   UNL     1       1.368  -1.881  -1.265  0.00  0.00    +0.132 C 
BRANCH  23  24
ATOM     24  C   UNL     1       1.195  -2.965  -0.233  0.00  0.00    +0.215 C 
ATOM     25  O   UNL     1       1.014  -2.672   0.930  0.00  0.00    -0.276 OA
ATOM     26  N   UNL     1       1.241  -4.260  -0.602  0.00  0.00    -0.329 N 
ATOM     27  H   UNL     1       1.386  -4.495  -1.532  0.00  0.00    +0.145 HD
ATOM     28  H   UNL     1       1.129  -4.958   0.063  0.00  0.00    +0.145 HD
ENDBRANCH  23  24
ENDBRANCH  21  23
ENDBRANCH   1  20
TORSDOF 5
