REMARK  Name = ZINC59484219
REMARK  8 active torsions:
REMARK  status: ('A' for Active; 'I' for Inactive)
REMARK    1  A    between atoms: C_1  and  C_2
REMARK    2  A    between atoms: C_2  and  O_3
REMARK    3  A    between atoms: O_3  and  C_4
REMARK    4  A    between atoms: C_6  and  C_11
REMARK    5  A    between atoms: C_9  and  O_10
REMARK    6  A    between atoms: N_12  and  N_13
REMARK    7  A    between atoms: C_16  and  C_25
REMARK    8  A    between atoms: C_17  and  C_19
REMARK                            x       y       z     vdW  Elec       q    Type
REMARK                         _______ _______ _______ _____ _____    ______ ____
ROOT
ATOM      1  N   UNL     1      -1.088  -7.141   1.177  0.00  0.00    -0.124 NA
ATOM      2  C   UNL     1      -0.754  -8.410   1.006  0.00  0.00    +0.193 A 
ATOM      3  N   UNL     1      -0.189  -9.017  -0.090  0.00  0.00    -0.332 N 
ATOM      4  C   UNL     1       0.072 -10.354  -0.042  0.00  0.00    +0.063 A 
ATOM      5  C   UNL     1      -0.234 -11.053   1.089  0.00  0.00    +0.047 A 
ATOM      6  S   UNL     1      -0.913  -9.780   2.141  0.00  0.00    -0.048 S 
ATOM      7  H   UNL     1       0.021  -8.503  -0.885  0.00  0.00    +0.168 HD
ENDROOT
BRANCH   4   8
ATOM      8  C   UNL     1       0.678 -11.039  -1.201  0.00  0.00    -0.000 A 
ATOM      9  C   UNL     1       0.131 -12.234  -1.675  0.00  0.00    +0.011 A 
ATOM     10  C   UNL     1       0.703 -12.868  -2.758  0.00  0.00    +0.020 A 
ATOM     11  C   UNL     1       1.816 -12.323  -3.375  0.00  0.00    +0.041 A 
ATOM     12  C   UNL     1       2.363 -11.138  -2.911  0.00  0.00    +0.020 A 
ATOM     13  C   UNL     1       1.798 -10.491  -1.832  0.00  0.00    +0.011 A 
ATOM     14 CL   UNL     1       2.529 -13.128  -4.738  0.00  0.00    -0.084 Cl
ENDBRANCH   4   8
BRANCH   5  15
ATOM     15  C   UNL     1      -0.048 -12.490   1.373  0.00  0.00    -0.009 A 
ATOM     16  C   UNL     1       1.172 -13.109   1.089  0.00  0.00    +0.009 A 
ATOM     17  C   UNL     1       1.340 -14.451   1.357  0.00  0.00    +0.001 A 
ATOM     18  C   UNL     1       0.302 -15.186   1.904  0.00  0.00    +0.000 A 
ATOM     19  C   UNL     1      -0.909 -14.580   2.187  0.00  0.00    +0.001 A 
ATOM     20  C   UNL     1      -1.088 -13.236   1.931  0.00  0.00    +0.009 A 
ENDBRANCH   5  15
BRANCH   1  22
ATOM     21  C   UNL     1      -1.224  -5.036   0.397  0.00  0.00    +0.143 C 
ATOM     22  N   UNL     1      -0.893  -6.289   0.228  0.00  0.00    -0.155 NA
BRANCH  21  25
ATOM     23  C   UNL     1      -1.142  -1.815  -1.526  0.00  0.00    +0.162 A 
ATOM     24  C   UNL     1      -1.354  -2.722  -0.506  0.00  0.00    +0.059 A 
ATOM     25  C   UNL     1      -1.001  -4.064  -0.685  0.00  0.00    -0.002 A 
ATOM     26  C   UNL     1      -0.437  -4.479  -1.895  0.00  0.00    +0.013 A 
ATOM     27  C   UNL     1      -0.229  -3.567  -2.908  0.00  0.00    +0.050 A 
ATOM     28  C   UNL     1      -0.584  -2.237  -2.731  0.00  0.00    +0.158 A 
BRANCH  28  29
ATOM     29  O   UNL     1      -0.382  -1.342  -3.735  0.00  0.00    -0.503 OA
ATOM     30  H   UNL     1       0.484  -0.913  -3.711  0.00  0.00    +0.292 HD
ENDBRANCH  28  29
BRANCH  23  31
ATOM     31  O   UNL     1      -1.484  -0.509  -1.356  0.00  0.00    -0.489 OA
BRANCH  31  33
ATOM     32  C   UNL     1      -2.369   1.351  -0.092  0.00  0.00    +0.048 C 
ATOM     33  C   UNL     1      -2.051  -0.146  -0.096  0.00  0.00    +0.226 C 
ENDBRANCH  31  33
ENDBRANCH  23  31
ENDBRANCH  21  25
ENDBRANCH   1  22
TORSDOF 7
