REMARK  Name = ZINC12138973
REMARK  10 active torsions:
REMARK  status: ('A' for Active; 'I' for Inactive)
REMARK    1  A    between atoms: C_1  and  C_2
REMARK    2  A    between atoms: C_2  and  C_4
REMARK    3  A    between atoms: C_7  and  O_10
REMARK    4  A    between atoms: O_10  and  C_11
REMARK    5  A    between atoms: C_11  and  C_12
REMARK    6  A    between atoms: C_12  and  C_14
REMARK    7  A    between atoms: C_12  and  O_36
REMARK    8  A    between atoms: C_14  and  N_66
REMARK    9  A    between atoms: C_17  and  C_20
REMARK   10  A    between atoms: C_20  and  N_21
REMARK                            x       y       z     vdW  Elec       q    Type
REMARK                         _______ _______ _______ _____ _____    ______ ____
ROOT
ATOM      1  C   UNL     1      -0.873   3.379  -0.867  0.00  0.00    -0.078 C 
ATOM      2  C   UNL     1      -0.971   1.854  -0.793  0.00  0.00    -0.014 C 
ATOM      3  C   UNL     1      -0.505   1.384   0.588  0.00  0.00    +0.003 C 
ATOM      4  C   UNL     1      -1.361   2.058   1.664  0.00  0.00    -0.014 C 
ATOM      5  C   UNL     1      -1.253   3.577   1.518  0.00  0.00    -0.078 C 
ATOM      6  N   UNL     1      -1.739   3.967   0.177  0.00  0.00    +0.381 N 
ATOM      7  H   UNL     1      -2.695   3.615   0.054  0.00  0.00    -0.082 HD
ENDROOT
BRANCH   6   8
ATOM      8  C   UNL     1      -1.750   5.439   0.052  0.00  0.00    -0.044 C 
BRANCH   8   9
ATOM      9  C   UNL     1      -2.672   5.825  -1.106  0.00  0.00    +0.135 C 
BRANCH   9  10
ATOM     10  O   UNL     1      -3.992   5.342  -0.845  0.00  0.00    -0.390 OA
ATOM     11  H   UNL     1      -4.387   5.695  -0.036  0.00  0.00    +0.210 HD
ENDBRANCH   9  10
BRANCH   9  12
ATOM     12  C   UNL     1      -2.705   7.348  -1.246  0.00  0.00    +0.258 C 
BRANCH  12  13
ATOM     13  O   UNL     1      -3.472   7.704  -2.398  0.00  0.00    -0.489 OA
BRANCH  13  17
ATOM     14  C   UNL     1      -3.863  11.726  -3.218  0.00  0.00    +0.017 A 
ATOM     15  C   UNL     1      -4.468  10.777  -4.051  0.00  0.00    +0.015 A 
ATOM     16  C   UNL     1      -4.335   9.441  -3.774  0.00  0.00    +0.046 A 
ATOM     17  C   UNL     1      -3.601   9.027  -2.668  0.00  0.00    +0.121 A 
ATOM     18  C   UNL     1      -3.003   9.966  -1.833  0.00  0.00    +0.046 A 
ATOM     19  C   UNL     1      -3.125  11.304  -2.105  0.00  0.00    +0.015 A 
BRANCH  14  21
ATOM     20  C   UNL     1      -3.231  14.171  -2.701  0.00  0.00    +0.091 C 
ATOM     21  C   UNL     1      -4.001  13.159  -3.510  0.00  0.00    +0.160 C 
ATOM     22  O   UNL     1      -4.736  13.527  -4.402  0.00  0.00    -0.292 OA
ENDBRANCH  14  21
ENDBRANCH  13  17
ENDBRANCH  12  13
ENDBRANCH   9  12
ENDBRANCH   8   9
ENDBRANCH   6   8
BRANCH   3  23
ATOM     23  C   UNL     1      -0.659  -0.135   0.690  0.00  0.00    +0.120 C 
BRANCH  23  24
ATOM     24  N   UNL     1      -0.106  -0.597   1.966  0.00  0.00    -0.234 N 
ATOM     25  C   UNL     1       1.193  -0.947   2.021  0.00  0.00    +0.254 C 
ATOM     26  O   UNL     1       1.882  -0.875   1.021  0.00  0.00    -0.270 OA
ATOM     27  C   UNL     1       1.785  -1.412   3.284  0.00  0.00    +0.046 A 
ATOM     28  C   UNL     1       3.119  -1.776   3.387  0.00  0.00    +0.014 A 
ATOM     29  C   UNL     1       3.631  -2.213   4.603  0.00  0.00    +0.001 A 
ATOM     30  C   UNL     1       2.850  -2.297   5.720  0.00  0.00    +0.008 A 
ATOM     31  C   UNL     1       1.493  -1.936   5.658  0.00  0.00    -0.016 A 
ATOM     32  C   UNL     1       0.961  -1.491   4.430  0.00  0.00    +0.006 A 
ATOM     33  C   UNL     1      -0.400  -1.120   4.336  0.00  0.00    +0.046 A 
ATOM     34  C   UNL     1      -1.199  -1.201   5.466  0.00  0.00    +0.014 A 
ATOM     35  C   UNL     1      -0.663  -1.641   6.671  0.00  0.00    +0.001 A 
ATOM     36  C   UNL     1       0.649  -2.003   6.780  0.00  0.00    +0.008 A 
ATOM     37  C   UNL     1      -0.917  -0.661   3.038  0.00  0.00    +0.254 C 
ATOM     38  O   UNL     1      -2.085  -0.338   2.934  0.00  0.00    -0.270 OA
ENDBRANCH  23  24
ENDBRANCH   3  23
TORSDOF 9
