REMARK  Name = ZINC01829142
REMARK  5 active torsions:
REMARK  status: ('A' for Active; 'I' for Inactive)
REMARK    1  A    between atoms: C_1  and  C_2
REMARK    2  A    between atoms: C_2  and  C_3
REMARK    3  A    between atoms: C_3  and  C_4
REMARK    4  A    between atoms: C_4  and  N_5
REMARK    5  A    between atoms: N_5  and  C_6
REMARK                            x       y       z     vdW  Elec       q    Type
REMARK                         _______ _______ _______ _____ _____    ______ ____
ROOT
ATOM      1  N   UNL     1      -0.049   0.104   0.080  0.00  0.00    -0.317 N 
ATOM      2  C   UNL     1      -0.122   1.570   0.116  0.00  0.00    +0.130 C 
ATOM      3  C   UNL     1      -1.312  -0.455  -0.033  0.00  0.00    +0.139 A 
ATOM      4  C   UNL     1      -2.155  -0.105  -1.078  0.00  0.00    +0.080 A 
ATOM      5  C   UNL     1      -3.432  -0.668  -1.192  0.00  0.00    +0.093 A 
ATOM      6  C   UNL     1      -4.234  -0.217  -2.344  0.00  0.00    +0.035 A 
ATOM      7  C   UNL     1      -5.550  -0.627  -2.688  0.00  0.00    -0.029 A 
ATOM      8  C   UNL     1      -6.142  -0.104  -3.792  0.00  0.00    -0.005 A 
ATOM      9  C   UNL     1      -5.449   0.826  -4.580  0.00  0.00    +0.103 A 
ATOM     10  C   UNL     1      -3.622   0.720  -3.191  0.00  0.00    +0.089 A 
ATOM     11  S   UNL     1      -2.024   0.991  -2.464  0.00  0.00    -0.066 S 
ATOM     12  N   UNL     1      -6.056   1.355  -5.710  0.00  0.00    -0.316 N 
ATOM     13  C   UNL     1      -5.302   1.009  -6.922  0.00  0.00    +0.106 C 
ATOM     14  C   UNL     1      -6.073   1.482  -8.157  0.00  0.00    +0.019 C 
ATOM     15  C   UNL     1      -6.278   2.997  -8.075  0.00  0.00    +0.003 C 
ATOM     16  C   UNL     1      -7.023   3.335  -6.781  0.00  0.00    +0.019 C 
ATOM     17  C   UNL     1      -6.224   2.808  -5.587  0.00  0.00    +0.106 C 
ATOM     18  C   UNL     1      -7.537  -0.481  -4.218  0.00  0.00    +0.039 C 
ATOM     19  C   UNL     1      -7.971  -1.781  -3.543  0.00  0.00    +0.005 C 
ATOM     20  C   UNL     1      -7.725  -1.651  -2.035  0.00  0.00    +0.005 C 
ATOM     21  C   UNL     1      -6.216  -1.637  -1.795  0.00  0.00    +0.036 C 
ATOM     22  N   UNL     1      -3.778  -1.557  -0.233  0.00  0.00    -0.234 NA
ATOM     23  C   UNL     1      -2.957  -1.863   0.740  0.00  0.00    +0.224 A 
ATOM     24  N   UNL     1      -1.747  -1.346   0.858  0.00  0.00    -0.220 NA
ATOM     25  N   UNL     1      -4.188   1.255  -4.300  0.00  0.00    -0.337 N 
ATOM     26  H   UNL     1      -3.698   1.938  -4.890  0.00  0.00    +0.168 HD
ENDROOT
BRANCH   1  27
ATOM     27  C   UNL     1       0.654  -0.417   1.260  0.00  0.00    +0.106 C 
BRANCH  27  28
ATOM     28  C   UNL     1       2.119   0.022   1.216  0.00  0.00    +0.019 C 
BRANCH  28  30
ATOM     29  C   UNL     1       4.316  -0.081   2.401  0.00  0.00    +0.004 C 
ATOM     30  C   UNL     1       2.852  -0.520   2.445  0.00  0.00    -0.002 C 
ENDBRANCH  28  30
ENDBRANCH  27  28
ENDBRANCH   1  27
TORSDOF 3
