REMARK  Name = ZINC08950021
REMARK  11 active torsions:
REMARK  status: ('A' for Active; 'I' for Inactive)
REMARK    1  A    between atoms: C_1  and  C_2
REMARK    2  A    between atoms: C_2  and  C_3
REMARK    3  A    between atoms: C_3  and  C_4
REMARK    4  A    between atoms: C_4  and  O_5
REMARK    5  A    between atoms: O_5  and  C_6
REMARK    6  A    between atoms: C_6  and  C_8
REMARK    7  A    between atoms: C_11  and  N_14
REMARK    8  A    between atoms: C_15  and  C_17
REMARK    9  A    between atoms: C_17  and  N_18
REMARK   10  A    between atoms: C_25  and  C_29
REMARK   11  A    between atoms: C_26  and  C_28
REMARK                            x       y       z     vdW  Elec       q    Type
REMARK                         _______ _______ _______ _____ _____    ______ ____
ROOT
ATOM      1  C   UNL     1      -6.271   6.034   0.282  0.00  0.00    +0.222 C 
ENDROOT
BRANCH   1   2
ATOM      2  N   UNL     1      -6.025   7.474   0.387  0.00  0.00    -0.290 N 
ATOM      3  C   UNL     1      -5.972   8.224  -0.744  0.00  0.00    +0.203 A 
ATOM      4  N   UNL     1      -5.755   9.511  -0.692  0.00  0.00    -0.230 NA
ATOM      5  C   UNL     1      -5.579  10.129   0.473  0.00  0.00    +0.116 A 
ATOM      6  C   UNL     1      -5.617   9.437   1.694  0.00  0.00    +0.080 A 
ATOM      7  C   UNL     1      -5.862   8.029   1.602  0.00  0.00    +0.263 A 
ATOM      8  O   UNL     1      -5.917   7.343   2.608  0.00  0.00    -0.267 OA
ATOM      9  C   UNL     1      -5.405  10.260   2.878  0.00  0.00    +0.007 A 
ATOM     10  C   UNL     1      -5.194  11.589   2.719  0.00  0.00    -0.003 A 
ATOM     11  S   UNL     1      -5.269  11.809   0.951  0.00  0.00    -0.073 S 
ATOM     12  C   UNL     1      -4.954  12.631   3.780  0.00  0.00    +0.052 C 
BRANCH   9  13
ATOM     13  C   UNL     1      -5.419   9.655   4.232  0.00  0.00    -0.016 A 
ATOM     14  C   UNL     1      -4.443   8.728   4.594  0.00  0.00    +0.011 A 
ATOM     15  C   UNL     1      -4.458   8.171   5.856  0.00  0.00    +0.039 A 
ATOM     16  C   UNL     1      -5.447   8.524   6.760  0.00  0.00    +0.123 A 
ATOM     17  C   UNL     1      -6.422   9.441   6.403  0.00  0.00    +0.039 A 
ATOM     18  C   UNL     1      -6.413  10.007   5.144  0.00  0.00    +0.011 A 
ATOM     19  F   UNL     1      -5.460   7.973   7.993  0.00  0.00    -0.205 F 
ENDBRANCH   9  13
ENDBRANCH   1   2
BRANCH   1  21
ATOM     20  N   UNL     1      -4.936   3.964   0.049  0.00  0.00    -0.284 N 
ATOM     21  C   UNL     1      -4.957   5.307   0.158  0.00  0.00    +0.237 C 
ATOM     22  O   UNL     1      -3.917   5.931   0.157  0.00  0.00    -0.274 OA
ATOM     23  H   UNL     1      -5.769   3.471  -0.028  0.00  0.00    +0.155 HD
BRANCH  20  27
ATOM     24  C   UNL     1      -1.302   1.929   0.036  0.00  0.00    +0.059 A 
ATOM     25  C   UNL     1      -2.374   1.454  -0.725  0.00  0.00    +0.017 A 
ATOM     26  C   UNL     1      -3.575   2.125  -0.714  0.00  0.00    +0.024 A 
ATOM     27  C   UNL     1      -3.720   3.283   0.044  0.00  0.00    +0.033 A 
ATOM     28  C   UNL     1      -2.654   3.763   0.799  0.00  0.00    +0.024 A 
ATOM     29  C   UNL     1      -1.451   3.093   0.797  0.00  0.00    +0.017 A 
BRANCH  24  30
ATOM     30  C   UNL     1      -0.015   1.209   0.031  0.00  0.00    +0.339 C 
ATOM     31  O   UNL     1       0.917   1.627   0.689  0.00  0.00    -0.245 OA
BRANCH  30  32
ATOM     32  O   UNL     1       0.125   0.085  -0.698  0.00  0.00    -0.461 OA
BRANCH  32  33
ATOM     33  C   UNL     1       1.418  -0.575  -0.651  0.00  0.00    +0.232 C 
BRANCH  33  34
ATOM     34  C   UNL     1       1.386  -1.823  -1.534  0.00  0.00    +0.041 C 
BRANCH  34  36
ATOM     35  C   UNL     1       2.716  -3.767  -2.368  0.00  0.00    +0.004 C 
ATOM     36  C   UNL     1       2.748  -2.518  -1.484  0.00  0.00    -0.000 C 
ENDBRANCH  34  36
ENDBRANCH  33  34
ENDBRANCH  32  33
ENDBRANCH  30  32
ENDBRANCH  24  30
ENDBRANCH  20  27
ENDBRANCH   1  21
TORSDOF 9
