REMARK  Name = ZINC03671777
REMARK  7 active torsions:
REMARK  status: ('A' for Active; 'I' for Inactive)
REMARK    1  A    between atoms: C_3  and  C_8
REMARK    2  A    between atoms: N_10  and  C_11
REMARK    3  A    between atoms: C_11  and  C_12
REMARK    4  A    between atoms: C_11  and  C_16
REMARK    5  A    between atoms: C_11  and  N_20
REMARK    6  A    between atoms: N_20  and  C_21
REMARK    7  A    between atoms: C_22  and  C_29
REMARK                            x       y       z     vdW  Elec       q    Type
REMARK                         _______ _______ _______ _____ _____    ______ ____
ROOT
ATOM      1  C   UNL     1       2.338   2.568  -3.483  0.00  0.00    +0.293 C 
ENDROOT
BRANCH   1   4
ATOM      2  C   UNL     1       0.525   2.575  -5.111  0.00  0.00    +0.246 C 
ATOM      3  O   UNL     1      -0.110   3.289  -4.360  0.00  0.00    -0.270 OA
ATOM      4  N   UNL     1       1.780   2.204  -4.788  0.00  0.00    -0.276 N 
ATOM      5  H   UNL     1       2.313   1.696  -5.419  0.00  0.00    +0.152 HD
BRANCH   2   8
ATOM      6  C   UNL     1       0.079   0.864  -8.425  0.00  0.00    +0.004 A 
ATOM      7  C   UNL     1       0.649   1.296  -7.245  0.00  0.00    +0.013 A 
ATOM      8  C   UNL     1      -0.079   2.112  -6.379  0.00  0.00    +0.039 A 
ATOM      9  C   UNL     1      -1.378   2.494  -6.716  0.00  0.00    +0.051 A 
ATOM     10  C   UNL     1      -1.937   2.058  -7.902  0.00  0.00    +0.124 A 
ATOM     11  C   UNL     1      -1.209   1.244  -8.755  0.00  0.00    +0.038 A 
ATOM     12  F   UNL     1      -3.194   2.427  -8.232  0.00  0.00    -0.205 F 
ENDBRANCH   2   8
ENDBRANCH   1   4
BRANCH   1  13
ATOM     13  C   UNL     1       2.703   4.054  -3.481  0.00  0.00    +0.436 C 
ATOM     14  F   UNL     1       3.347   4.375  -2.281  0.00  0.00    -0.166 F 
ATOM     15  F   UNL     1       3.556   4.327  -4.556  0.00  0.00    -0.166 F 
ATOM     16  F   UNL     1       1.538   4.820  -3.604  0.00  0.00    -0.166 F 
ENDBRANCH   1  13
BRANCH   1  17
ATOM     17  C   UNL     1       3.594   1.735  -3.215  0.00  0.00    +0.436 C 
ATOM     18  F   UNL     1       3.246   0.383  -3.126  0.00  0.00    -0.166 F 
ATOM     19  F   UNL     1       4.504   1.914  -4.262  0.00  0.00    -0.166 F 
ATOM     20  F   UNL     1       4.178   2.146  -2.013  0.00  0.00    -0.166 F 
ENDBRANCH   1  17
BRANCH   1  21
ATOM     21  N   UNL     1       1.347   2.307  -2.437  0.00  0.00    -0.303 N 
ATOM     22  H   UNL     1       1.187   2.966  -1.744  0.00  0.00    +0.149 HD
BRANCH  21  23
ATOM     23  C   UNL     1       0.638   1.120  -2.438  0.00  0.00    +0.080 A 
ATOM     24  C   UNL     1      -0.248   0.646  -1.484  0.00  0.00    +0.068 A 
ATOM     25  C   UNL     1      -0.867  -0.659  -1.725  0.00  0.00    -0.023 A 
ATOM     26  C   UNL     1      -0.509  -1.257  -2.874  0.00  0.00    -0.004 A 
ATOM     27  S   UNL     1       0.641  -0.134  -3.631  0.00  0.00    -0.078 S 
ATOM     28  C   UNL     1      -1.192  -2.585  -3.056  0.00  0.00    +0.043 C 
ATOM     29  C   UNL     1      -2.376  -2.553  -2.064  0.00  0.00    +0.010 C 
ATOM     30  C   UNL     1      -1.866  -1.561  -1.000  0.00  0.00    +0.037 C 
BRANCH  24  31
ATOM     31  C   UNL     1      -0.550   1.418  -0.277  0.00  0.00    +0.244 C 
ATOM     32  O   UNL     1      -1.472   2.214  -0.278  0.00  0.00    -0.270 OA
ATOM     33  N   UNL     1       0.196   1.252   0.833  0.00  0.00    -0.325 N 
ATOM     34  H   UNL     1      -0.002   1.766   1.631  0.00  0.00    +0.145 HD
ATOM     35  H   UNL     1       0.930   0.618   0.834  0.00  0.00    +0.145 HD
ENDBRANCH  24  31
ENDBRANCH  21  23
ENDBRANCH   1  21
TORSDOF 7
