REMARK  Name = ZINC13063858
REMARK  12 active torsions:
REMARK  status: ('A' for Active; 'I' for Inactive)
REMARK    1  A    between atoms: C_1  and  C_2
REMARK    2  A    between atoms: C_2  and  C_3
REMARK    3  A    between atoms: C_3  and  C_5
REMARK    4  A    between atoms: C_3  and  N_70
REMARK    5  A    between atoms: N_9  and  C_10
REMARK    6  A    between atoms: C_10  and  C_11
REMARK    7  A    between atoms: C_17  and  C_18
REMARK    8  A    between atoms: C_17  and  N_70
REMARK    9  A    between atoms: C_18  and  C_19
REMARK   10  A    between atoms: C_25  and  C_26
REMARK   11  A    between atoms: C_25  and  N_70
REMARK   12  A    between atoms: C_31  and  C_38
REMARK                            x       y       z     vdW  Elec       q    Type
REMARK                         _______ _______ _______ _____ _____    ______ ____
ROOT
ATOM      1  N   UNL     1      -0.958   1.914  -0.953  0.00  0.00    +0.389 N 
ATOM      2  H   UNL     1      -1.776   1.380  -0.636  0.00  0.00    -0.080 HD
ENDROOT
BRANCH   1   3
ATOM      3  C   UNL     1      -1.368   3.310  -1.210  0.00  0.00    +0.003 C 
BRANCH   3   4
ATOM      4  C   UNL     1      -2.764   3.305  -1.777  0.00  0.00    +0.138 A 
ATOM      5  N   UNL     1      -3.233   2.496  -2.696  0.00  0.00    -0.115 NA
ATOM      6  N   UNL     1      -4.465   2.808  -2.909  0.00  0.00    -0.023 NA
ATOM      7  N   UNL     1      -4.794   3.795  -2.151  0.00  0.00    -0.044 NA
ATOM      8  N   UNL     1      -3.774   4.127  -1.434  0.00  0.00    -0.228 N 
BRANCH   8   9
ATOM      9  C   UNL     1      -3.723   5.199  -0.437  0.00  0.00    +0.178 C 
BRANCH   9  10
ATOM     10  C   UNL     1      -3.294   6.503  -1.112  0.00  0.00    +0.140 C 
ATOM     11  C   UNL     1      -3.126   7.612  -0.050  0.00  0.00    +0.035 C 
ATOM     12  C   UNL     1      -3.705   8.855  -0.778  0.00  0.00    +0.031 C 
ATOM     13  C   UNL     1      -4.832   8.206  -1.620  0.00  0.00    +0.160 C 
ATOM     14  O   UNL     1      -4.308   6.932  -2.029  0.00  0.00    -0.375 OA
ENDBRANCH   9  10
ENDBRANCH   8   9
ENDBRANCH   3   4
BRANCH   3  16
ATOM     15  C   UNL     1       0.988   4.045  -1.602  0.00  0.00    +0.002 C 
ATOM     16  C   UNL     1      -0.415   3.971  -2.208  0.00  0.00    -0.011 C 
ENDBRANCH   3  16
ENDBRANCH   1   3
BRANCH   1  17
ATOM     17  C   UNL     1       0.077   1.878   0.102  0.00  0.00    -0.073 C 
BRANCH  17  18
ATOM     18  C   UNL     1      -0.553   2.309   1.427  0.00  0.00    +0.016 C 
BRANCH  18  19
ATOM     19  C   UNL     1       0.500   2.318   2.505  0.00  0.00    -0.049 A 
ATOM     20  C   UNL     1       0.729   1.181   3.257  0.00  0.00    +0.003 A 
ATOM     21  C   UNL     1       1.698   1.188   4.243  0.00  0.00    +0.000 A 
ATOM     22  C   UNL     1       2.432   2.335   4.483  0.00  0.00    +0.000 A 
ATOM     23  C   UNL     1       2.199   3.474   3.735  0.00  0.00    +0.000 A 
ATOM     24  C   UNL     1       1.233   3.466   2.746  0.00  0.00    +0.003 A 
ENDBRANCH  18  19
ENDBRANCH  17  18
ENDBRANCH   1  17
BRANCH   1  25
ATOM     25  C   UNL     1      -0.437   1.303  -2.193  0.00  0.00    -0.037 C 
BRANCH  25  26
ATOM     26  C   UNL     1      -0.464  -0.196  -2.042  0.00  0.00    +0.001 A 
ATOM     27  C   UNL     1      -1.531  -0.901  -2.493  0.00  0.00    +0.017 A 
ATOM     28  C   UNL     1      -1.524  -2.357  -2.335  0.00  0.00    -0.001 A 
ATOM     29  C   UNL     1      -2.593  -3.139  -2.785  0.00  0.00    +0.010 A 
ATOM     30  C   UNL     1      -2.558  -4.494  -2.619  0.00  0.00    +0.004 A 
ATOM     31  C   UNL     1      -1.470  -5.103  -2.007  0.00  0.00    -0.048 A 
ATOM     32  C   UNL     1      -0.407  -4.353  -1.555  0.00  0.00    +0.029 A 
ATOM     33  C   UNL     1      -0.420  -2.971  -1.714  0.00  0.00    +0.049 A 
ATOM     34  N   UNL     1       0.632  -2.196  -1.273  0.00  0.00    -0.322 N 
ATOM     35  H   UNL     1       1.392  -2.620  -0.845  0.00  0.00    +0.169 HD
ATOM     36  C   UNL     1       0.619  -0.860  -1.426  0.00  0.00    +0.251 A 
ATOM     37  O   UNL     1       1.565  -0.206  -1.023  0.00  0.00    -0.268 OA
ATOM     38  C   UNL     1      -1.454  -6.600  -1.834  0.00  0.00    +0.044 C 
ENDBRANCH  25  26
ENDBRANCH   1  25
TORSDOF 10
