REMARK  Name = ZINC59922309
REMARK  9 active torsions:
REMARK  status: ('A' for Active; 'I' for Inactive)
REMARK    1  A    between atoms: C_1  and  C_2
REMARK    2  A    between atoms: C_4  and  C_25
REMARK    3  A    between atoms: C_6  and  O_8
REMARK    4  A    between atoms: O_8  and  C_9
REMARK    5  A    between atoms: C_9  and  C_10
REMARK    6  A    between atoms: N_12  and  N_13
REMARK    7  A    between atoms: C_14  and  C_15
REMARK    8  A    between atoms: C_20  and  O_21
REMARK    9  A    between atoms: O_21  and  C_22
REMARK                            x       y       z     vdW  Elec       q    Type
REMARK                         _______ _______ _______ _____ _____    ______ ____
ROOT
ATOM      1  C   UNL     1       0.064  -2.932   4.751  0.00  0.00    +0.270 C 
ATOM      2  O   UNL     1       0.080  -4.133   4.584  0.00  0.00    -0.270 OA
ATOM      3  N   UNL     1       0.063  -2.425   6.000  0.00  0.00    -0.204 N 
ATOM      4  H   UNL     1       0.051  -1.464   6.134  0.00  0.00    +0.177 HD
ENDROOT
BRANCH   3   5
ATOM      5  N   UNL     1       0.080  -3.286   7.105  0.00  0.00    -0.188 NA
ATOM      6  C   UNL     1       0.079  -2.798   8.308  0.00  0.00    +0.142 C 
BRANCH   6   7
ATOM      7  C   UNL     1       0.097  -3.704   9.471  0.00  0.00    +0.039 A 
ATOM      8  C   UNL     1       0.090  -3.183  10.767  0.00  0.00    +0.033 A 
ATOM      9  C   UNL     1       0.107  -4.036  11.851  0.00  0.00    +0.043 A 
ATOM     10  C   UNL     1       0.131  -5.408  11.660  0.00  0.00    +0.043 A 
ATOM     11  C   UNL     1       0.138  -5.936  10.382  0.00  0.00    +0.085 A 
ATOM     12  C   UNL     1       0.115  -5.092   9.282  0.00  0.00    +0.147 A 
ATOM     13 CL   UNL     1       0.169  -7.656  10.154  0.00  0.00    -0.080 Cl
ATOM     14 CL   UNL     1       0.098  -3.388  13.462  0.00  0.00    -0.083 Cl
BRANCH  12  15
ATOM     15  O   UNL     1       0.116  -5.609   8.025  0.00  0.00    -0.493 OA
ATOM     16  C   UNL     1       1.389  -5.839   7.419  0.00  0.00    +0.277 C 
ENDBRANCH  12  15
ENDBRANCH   6   7
ENDBRANCH   3   5
BRANCH   1  17
ATOM     17  C   UNL     1       0.046  -2.005   3.563  0.00  0.00    +0.326 C 
BRANCH  17  18
ATOM     18  O   UNL     1       0.051  -2.775   2.359  0.00  0.00    -0.483 OA
BRANCH  18  24
ATOM     19  C   UNL     1      -0.018   1.503   0.010  0.00  0.00    +0.044 C 
ATOM     20  C   UNL     1       0.002  -0.004   0.002  0.00  0.00    -0.047 A 
ATOM     21  C   UNL     1       0.006  -0.688  -1.200  0.00  0.00    +0.007 A 
ATOM     22  C   UNL     1       0.025  -2.071  -1.210  0.00  0.00    -0.047 A 
ATOM     23  C   UNL     1       0.040  -2.772  -0.020  0.00  0.00    +0.049 A 
ATOM     24  C   UNL     1       0.036  -2.088   1.187  0.00  0.00    +0.122 A 
ATOM     25  C   UNL     1       0.023  -0.701   1.195  0.00  0.00    +0.049 A 
ATOM     26  C   UNL     1       0.029  -2.813  -2.522  0.00  0.00    +0.044 C 
ENDBRANCH  18  24
ENDBRANCH  17  18
ENDBRANCH   1  17
TORSDOF 6
