REMARK  Name = ZINC59258591
REMARK  7 active torsions:
REMARK  status: ('A' for Active; 'I' for Inactive)
REMARK    1  A    between atoms: C_1  and  C_2
REMARK    2  A    between atoms: C_2  and  C_4
REMARK    3  A    between atoms: C_2  and  N_17
REMARK    4  A    between atoms: N_6  and  C_7
REMARK    5  A    between atoms: C_20  and  C_23
REMARK    6  A    between atoms: N_25  and  C_26
REMARK    7  A    between atoms: C_31  and  O_32
REMARK                            x       y       z     vdW  Elec       q    Type
REMARK                         _______ _______ _______ _____ _____    ______ ____
ROOT
ATOM      1  N   UNL     1       0.063  -1.000   1.573  0.00  0.00    +0.387 N 
ATOM      2  C   UNL     1      -0.911  -0.528   2.564  0.00  0.00    -0.077 C 
ATOM      3  C   UNL     1      -0.716  -1.286   3.878  0.00  0.00    -0.006 C 
ATOM      4  C   UNL     1      -0.920  -2.784   3.633  0.00  0.00    +0.072 C 
ATOM      5  C   UNL     1       0.050  -3.250   2.544  0.00  0.00    -0.006 C 
ATOM      6  C   UNL     1      -0.173  -2.419   1.279  0.00  0.00    -0.077 C 
ATOM      7  H   UNL     1       0.996  -0.885   1.939  0.00  0.00    -0.081 HD
ENDROOT
BRANCH   4   8
ATOM      8  C   UNL     1      -0.653  -3.544   4.906  0.00  0.00    +0.220 C 
ATOM      9  O   UNL     1      -0.330  -2.948   5.912  0.00  0.00    -0.275 OA
ATOM     10  N   UNL     1      -0.772  -4.886   4.927  0.00  0.00    -0.282 N 
ATOM     11  H   UNL     1      -0.955  -5.370   4.106  0.00  0.00    +0.155 HD
BRANCH  10  12
ATOM     12  C   UNL     1      -0.634  -5.583   6.135  0.00  0.00    +0.077 A 
ATOM     13  C   UNL     1      -0.798  -4.921   7.343  0.00  0.00    +0.047 A 
ATOM     14  C   UNL     1      -0.661  -5.612   8.533  0.00  0.00    +0.043 A 
ATOM     15  C   UNL     1      -0.360  -6.962   8.523  0.00  0.00    +0.023 A 
ATOM     16  C   UNL     1      -0.194  -7.627   7.322  0.00  0.00    +0.049 A 
ATOM     17  C   UNL     1      -0.336  -6.944   6.125  0.00  0.00    +0.138 A 
ATOM     18 CL   UNL     1      -0.867  -4.782  10.044  0.00  0.00    -0.083 Cl
BRANCH  17  19
ATOM     19  O   UNL     1      -0.179  -7.599   4.944  0.00  0.00    -0.505 OA
ATOM     20  H   UNL     1       0.729  -7.600   4.612  0.00  0.00    +0.292 HD
ENDBRANCH  17  19
ENDBRANCH  10  12
ENDBRANCH   4   8
BRANCH   1  22
ATOM     21  C   UNL     1       0.244   1.252   0.627  0.00  0.00    -0.004 C 
ATOM     22  C   UNL     1      -0.077  -0.216   0.338  0.00  0.00    +0.016 C 
BRANCH  22  23
ATOM     23  C   UNL     1       0.877  -0.744  -0.703  0.00  0.00    +0.200 C 
ATOM     24  O   UNL     1       1.911  -1.279  -0.362  0.00  0.00    -0.278 OA
ATOM     25  N   UNL     1       0.581  -0.621  -2.012  0.00  0.00    -0.311 N 
ATOM     26  H   UNL     1      -0.245  -0.193  -2.284  0.00  0.00    +0.149 HD
BRANCH  25  27
ATOM     27  C   UNL     1       1.508  -1.133  -3.023  0.00  0.00    +0.035 C 
ATOM     28  C   UNL     1       1.696  -2.639  -2.827  0.00  0.00    +0.029 C 
ATOM     29  C   UNL     1       2.664  -3.174  -3.884  0.00  0.00    -0.008 C 
ATOM     30  C   UNL     1       2.095  -2.909  -5.279  0.00  0.00    +0.007 C 
ATOM     31  C   UNL     1       1.907  -1.403  -5.475  0.00  0.00    -0.008 C 
ATOM     32  C   UNL     1       0.939  -0.868  -4.418  0.00  0.00    +0.029 C 
ATOM     33  C   UNL     1       3.257  -0.699  -5.333  0.00  0.00    +0.007 C 
ATOM     34  C   UNL     1       3.827  -0.964  -3.938  0.00  0.00    -0.008 C 
ATOM     35  C   UNL     1       4.015  -2.469  -3.742  0.00  0.00    +0.007 C 
ATOM     36  C   UNL     1       2.859  -0.428  -2.882  0.00  0.00    +0.029 C 
ENDBRANCH  25  27
ENDBRANCH  22  23
ENDBRANCH   1  22
TORSDOF 6
