REMARK  Name = ZINC14884347
REMARK  9 active torsions:
REMARK  status: ('A' for Active; 'I' for Inactive)
REMARK    1  A    between atoms: C_4  and  C_7
REMARK    2  A    between atoms: C_7  and  C_8
REMARK    3  A    between atoms: C_8  and  C_9
REMARK    4  A    between atoms: N_11  and  C_12
REMARK    5  A    between atoms: C_15  and  N_18
REMARK    6  A    between atoms: C_21  and  N_64
REMARK    7  A    between atoms: C_24  and  C_25
REMARK    8  A    between atoms: C_24  and  N_64
REMARK    9  A    between atoms: C_25  and  N_26
REMARK                            x       y       z     vdW  Elec       q    Type
REMARK                         _______ _______ _______ _____ _____    ______ ____
ROOT
ATOM      1  C   UNL     1       0.311   0.979   4.818  0.00  0.00    +0.033 A 
ATOM      2  C   UNL     1       1.492   0.277   4.618  0.00  0.00    +0.025 A 
ATOM      3  C   UNL     1       2.247  -0.127   5.701  0.00  0.00    +0.025 A 
ATOM      4  C   UNL     1       1.820   0.162   6.991  0.00  0.00    +0.030 A 
ATOM      5  C   UNL     1       0.636   0.860   7.191  0.00  0.00    +0.025 A 
ATOM      6  C   UNL     1      -0.117   1.267   6.107  0.00  0.00    +0.025 A 
ENDROOT
BRANCH   4   7
ATOM      7  N   UNL     1       2.582  -0.251   8.089  0.00  0.00    -0.330 N 
ATOM      8  C   UNL     1       2.925   0.888   8.950  0.00  0.00    +0.103 C 
ATOM      9  C   UNL     1       3.631   0.383  10.210  0.00  0.00    +0.003 C 
ATOM     10  C   UNL     1       4.898  -0.377   9.810  0.00  0.00    -0.069 C 
ATOM     11  C   UNL     1       4.519  -1.529   8.875  0.00  0.00    +0.003 C 
ATOM     12  C   UNL     1       3.787  -0.968   7.653  0.00  0.00    +0.103 C 
BRANCH  10  13
ATOM     13  N   UNL     1       5.549  -0.924  11.015  0.00  0.00    +0.382 N 
ATOM     14  H   UNL     1       6.106  -1.746  10.755  0.00  0.00    -0.085 HD
ATOM     15  H   UNL     1       4.829  -1.199  11.693  0.00  0.00    -0.085 HD
BRANCH  13  16
ATOM     16  C   UNL     1       6.431   0.089  11.625  0.00  0.00    -0.063 C 
BRANCH  16  17
ATOM     17  C   UNL     1       7.090  -0.506  12.871  0.00  0.00    +0.090 C 
BRANCH  17  18
ATOM     18  N   UNL     1       7.968   0.494  13.483  0.00  0.00    -0.286 N 
ATOM     19  C   UNL     1       7.566   1.467  14.510  0.00  0.00    +0.128 C 
ATOM     20  C   UNL     1       8.856   2.261  14.793  0.00  0.00    +0.124 C 
ATOM     21  N   UNL     1       9.849   1.651  13.895  0.00  0.00    -0.298 N 
ATOM     22  C   UNL     1       9.267   0.664  13.201  0.00  0.00    +0.302 C 
ATOM     23  O   UNL     1       9.862  -0.014  12.386  0.00  0.00    -0.253 OA
ATOM     24  H   UNL     1      10.778   1.918  13.820  0.00  0.00    +0.150 HD
ENDBRANCH  17  18
ENDBRANCH  16  17
ENDBRANCH  13  16
ENDBRANCH  10  13
ENDBRANCH   4   7
BRANCH   1  27
ATOM     25  C   UNL     1      -1.122   2.562   3.763  0.00  0.00    +0.218 C 
ATOM     26  O   UNL     1      -1.131   3.216   4.785  0.00  0.00    -0.275 OA
ATOM     27  N   UNL     1      -0.453   1.393   3.718  0.00  0.00    -0.285 N 
ATOM     28  H   UNL     1      -0.500   0.837   2.924  0.00  0.00    +0.155 HD
BRANCH  25  29
ATOM     29  C   UNL     1      -1.858   3.057   2.545  0.00  0.00    +0.101 C 
BRANCH  29  30
ATOM     30  C   UNL     1      -2.526   4.396   2.862  0.00  0.00    +0.044 C 
BRANCH  30  34
ATOM     31  C   UNL     1      -4.613   5.799  -0.592  0.00  0.00    +0.000 A 
ATOM     32  C   UNL     1      -5.260   4.995   0.328  0.00  0.00    +0.000 A 
ATOM     33  C   UNL     1      -4.585   4.541   1.445  0.00  0.00    +0.003 A 
ATOM     34  C   UNL     1      -3.262   4.891   1.643  0.00  0.00    -0.047 A 
ATOM     35  C   UNL     1      -2.617   5.700   0.727  0.00  0.00    +0.003 A 
ATOM     36  C   UNL     1      -3.290   6.150  -0.393  0.00  0.00    +0.000 A 
ENDBRANCH  30  34
ENDBRANCH  29  30
ENDBRANCH  25  29
ENDBRANCH   1  27
TORSDOF 9
