REMARK  Name = ZINC10065807
REMARK  15 active torsions:
REMARK  status: ('A' for Active; 'I' for Inactive)
REMARK    1  A    between atoms: C_1  and  C_2
REMARK    2  A    between atoms: C_2  and  N_3
REMARK    3  A    between atoms: N_3  and  C_4
REMARK    4  A    between atoms: N_3  and  S_6
REMARK    5  A    between atoms: C_4  and  C_5
REMARK    6  A    between atoms: S_6  and  C_9
REMARK    7  A    between atoms: C_12  and  C_15
REMARK    8  A    between atoms: N_17  and  C_18
REMARK    9  A    between atoms: C_18  and  C_19
REMARK   10  A    between atoms: C_19  and  N_66
REMARK   11  A    between atoms: C_20  and  N_66
REMARK   12  A    between atoms: C_21  and  N_66
REMARK   13  A    between atoms: C_25  and  O_31
REMARK   14  A    between atoms: O_31  and  C_32
REMARK   15  A    between atoms: C_32  and  C_33
REMARK                            x       y       z     vdW  Elec       q    Type
REMARK                         _______ _______ _______ _____ _____    ______ ____
ROOT
ATOM      1  C   UNL     1       0.230   0.040  -0.471  0.00  0.00    +0.252 C 
ATOM      2  O   UNL     1       1.245  -0.478  -0.049  0.00  0.00    -0.270 OA
ATOM      3  N   UNL     1       0.209   1.361  -0.742  0.00  0.00    -0.248 N 
ATOM      4  C   UNL     1       1.325   2.139  -0.479  0.00  0.00    +0.168 A 
ATOM      5  N   UNL     1       2.479   1.778   0.029  0.00  0.00    -0.221 NA
ATOM      6  C   UNL     1       3.490   2.652   0.229  0.00  0.00    +0.122 A 
ATOM      7  C   UNL     1       4.779   2.394   0.762  0.00  0.00    +0.147 A 
ATOM      8  C   UNL     1       5.695   3.409   0.904  0.00  0.00    +0.048 A 
ATOM      9  C   UNL     1       5.394   4.712   0.533  0.00  0.00    +0.005 A 
ATOM     10  C   UNL     1       4.147   4.997   0.009  0.00  0.00    +0.017 A 
ATOM     11  C   UNL     1       3.224   3.990  -0.137  0.00  0.00    +0.044 A 
ATOM     12  S   UNL     1       1.556   3.892  -0.742  0.00  0.00    -0.052 S 
ENDROOT
BRANCH   1  16
ATOM     13  C   UNL     1      -3.253  -2.309  -1.094  0.00  0.00    +0.106 A 
ATOM     14  C   UNL     1      -2.002  -2.895  -1.183  0.00  0.00    +0.029 A 
ATOM     15  C   UNL     1      -0.867  -2.137  -0.982  0.00  0.00    +0.015 A 
ATOM     16  C   UNL     1      -0.982  -0.777  -0.688  0.00  0.00    +0.037 A 
ATOM     17  C   UNL     1      -2.247  -0.195  -0.594  0.00  0.00    +0.015 A 
ATOM     18  C   UNL     1      -3.374  -0.962  -0.804  0.00  0.00    +0.029 A 
BRANCH  13  19
ATOM     19  S   UNL     1      -4.697  -3.284  -1.353  0.00  0.00    +0.061 S 
ATOM     20  O   UNL     1      -5.725  -2.389  -1.753  0.00  0.00    -0.153 OA
ATOM     21  O   UNL     1      -4.302  -4.394  -2.148  0.00  0.00    -0.153 OA
BRANCH  19  22
ATOM     22  N   UNL     1      -5.147  -3.893   0.120  0.00  0.00    -0.177 NA
BRANCH  22  24
ATOM     23  C   UNL     1      -7.500  -3.639   0.739  0.00  0.00    +0.022 C 
ATOM     24  C   UNL     1      -6.072  -3.141   0.972  0.00  0.00    +0.106 C 
ENDBRANCH  22  24
BRANCH  22  25
ATOM     25  C   UNL     1      -4.621  -5.184   0.570  0.00  0.00    +0.106 C 
ATOM     26  C   UNL     1      -3.391  -4.954   1.450  0.00  0.00    +0.022 C 
ENDBRANCH  22  25
ENDBRANCH  19  22
ENDBRANCH  13  19
ENDBRANCH   1  16
BRANCH   3  27
ATOM     27  C   UNL     1      -0.991   1.972  -1.318  0.00  0.00    +0.097 C 
BRANCH  27  28
ATOM     28  C   UNL     1      -1.681   2.837  -0.262  0.00  0.00    -0.060 C 
BRANCH  28  31
ATOM     29  C   UNL     1      -3.922   2.607  -1.147  0.00  0.00    -0.097 C 
ATOM     30  C   UNL     1      -3.270   4.648  -0.020  0.00  0.00    -0.097 C 
ATOM     31  N   UNL     1      -2.811   3.548  -0.895  0.00  0.00    +0.377 N 
ATOM     32  H   UNL     1      -2.498   3.942  -1.790  0.00  0.00    -0.083 HD
ENDBRANCH  28  31
ENDBRANCH  27  28
ENDBRANCH   3  27
BRANCH   7  33
ATOM     33  O   UNL     1       5.111   1.130   1.137  0.00  0.00    -0.490 OA
BRANCH  33  34
ATOM     34  C   UNL     1       6.424   0.935   1.667  0.00  0.00    +0.226 C 
ATOM     35  C   UNL     1       6.613  -0.539   2.030  0.00  0.00    +0.048 C 
ENDBRANCH  33  34
ENDBRANCH   7  33
TORSDOF 10
