REMARK  Name = ZINC34831369
REMARK  12 active torsions:
REMARK  status: ('A' for Active; 'I' for Inactive)
REMARK    1  A    between atoms: C_1  and  C_2
REMARK    2  A    between atoms: C_2  and  N_3
REMARK    3  A    between atoms: N_6  and  C_9
REMARK    4  A    between atoms: C_10  and  C_22
REMARK    5  A    between atoms: C_11  and  C_21
REMARK    6  A    between atoms: N_13  and  C_14
REMARK    7  A    between atoms: C_22  and  N_23
REMARK    8  A    between atoms: N_23  and  C_24
REMARK    9  A    between atoms: C_24  and  C_25
REMARK   10  A    between atoms: C_24  and  C_26
REMARK   11  A    between atoms: N_29  and  C_30
REMARK   12  A    between atoms: C_33  and  N_36
REMARK                            x       y       z     vdW  Elec       q    Type
REMARK                         _______ _______ _______ _____ _____    ______ ____
ROOT
ATOM      1  C   UNL     1       2.776  -4.113  -0.701  0.00  0.00    +0.130 A 
ATOM      2  C   UNL     1       2.769  -5.144  -1.590  0.00  0.00    +0.032 A 
ATOM      3  C   UNL     1       4.090  -5.386  -1.977  0.00  0.00    +0.067 A 
ATOM      4  N   UNL     1       4.867  -4.540  -1.351  0.00  0.00    -0.170 NA
ATOM      5  N   UNL     1       4.069  -3.720  -0.543  0.00  0.00    -0.218 N 
ATOM      6  C   UNL     1       4.543  -6.443  -2.951  0.00  0.00    +0.068 C 
ENDROOT
BRANCH   1  10
ATOM      7  N   UNL     1       0.137  -1.953   1.629  0.00  0.00    +0.382 N 
ATOM      8  C   UNL     1       0.836  -1.338   0.493  0.00  0.00    -0.060 C 
ATOM      9  C   UNL     1       0.996  -2.372  -0.626  0.00  0.00    +0.088 C 
ATOM     10  N   UNL     1       1.664  -3.560  -0.072  0.00  0.00    -0.318 N 
ATOM     11  C   UNL     1       1.125  -4.146   1.164  0.00  0.00    +0.088 C 
ATOM     12  C   UNL     1       0.958  -3.028   2.199  0.00  0.00    -0.060 C 
ATOM     13  H   UNL     1      -0.742  -2.334   1.314  0.00  0.00    -0.082 HD
BRANCH   7  15
ATOM     14  C   UNL     1      -1.071   0.124   2.103  0.00  0.00    -0.017 C 
ATOM     15  C   UNL     1      -0.114  -0.933   2.657  0.00  0.00    -0.082 C 
ENDBRANCH   7  15
ENDBRANCH   1  10
BRANCH   5  16
ATOM     16  C   UNL     1       4.522  -2.682   0.283  0.00  0.00    +0.070 A 
ATOM     17  C   UNL     1       3.910  -1.436   0.234  0.00  0.00    +0.028 A 
ATOM     18  C   UNL     1       4.357  -0.415   1.048  0.00  0.00    +0.005 A 
ATOM     19  C   UNL     1       5.413  -0.630   1.913  0.00  0.00    +0.038 A 
ATOM     20  C   UNL     1       6.027  -1.870   1.965  0.00  0.00    +0.125 A 
ATOM     21  C   UNL     1       5.580  -2.899   1.155  0.00  0.00    +0.066 A 
ATOM     22  F   UNL     1       7.061  -2.077   2.811  0.00  0.00    -0.205 F 
ENDBRANCH   5  16
BRANCH   2  23
ATOM     23  C   UNL     1       1.552  -5.892  -2.072  0.00  0.00    +0.150 C 
BRANCH  23  24
ATOM     24  N   UNL     1       1.180  -5.412  -3.405  0.00  0.00    -0.278 N 
ATOM     25  C   UNL     1       0.228  -4.467  -3.539  0.00  0.00    +0.307 C 
ATOM     26  O   UNL     1      -0.253  -3.944  -2.552  0.00  0.00    -0.252 OA
ATOM     27  N   UNL     1      -0.192  -4.103  -4.767  0.00  0.00    -0.269 N 
ATOM     28  H   UNL     1       0.127  -4.579  -5.549  0.00  0.00    +0.156 HD
BRANCH  27  29
ATOM     29  C   UNL     1      -1.086  -3.037  -4.913  0.00  0.00    +0.035 A 
ATOM     30  C   UNL     1      -1.048  -1.969  -4.025  0.00  0.00    +0.025 A 
ATOM     31  C   UNL     1      -1.931  -0.918  -4.172  0.00  0.00    +0.034 A 
ATOM     32  C   UNL     1      -2.854  -0.928  -5.202  0.00  0.00    +0.126 A 
ATOM     33  C   UNL     1      -2.896  -1.990  -6.087  0.00  0.00    +0.034 A 
ATOM     34  C   UNL     1      -2.011  -3.041  -5.949  0.00  0.00    +0.025 A 
BRANCH  32  35
ATOM     35  N   UNL     1      -3.800   0.200  -5.357  0.00  0.00    +0.056 N 
ATOM     36  O   UNL     1      -3.765   1.129  -4.583  0.00  0.00    -0.126 OA
ATOM     37  O   UNL     1      -4.608   0.193  -6.257  0.00  0.00    -0.126 OA
ENDBRANCH  32  35
ENDBRANCH  27  29
BRANCH  24  38
ATOM     38  C   UNL     1       1.842  -5.958  -4.592  0.00  0.00    +0.072 C 
ATOM     39  C   UNL     1       0.825  -6.732  -5.433  0.00  0.00    +0.028 C 
ATOM     40  C   UNL     1       2.425  -4.813  -5.423  0.00  0.00    +0.028 C 
ENDBRANCH  24  38
ENDBRANCH  23  24
ENDBRANCH   2  23
TORSDOF 8
