REMARK  Name = ZINC59894567
REMARK  9 active torsions:
REMARK  status: ('A' for Active; 'I' for Inactive)
REMARK    1  A    between atoms: C_1  and  C_2
REMARK    2  A    between atoms: C_2  and  C_3
REMARK    3  A    between atoms: C_3  and  C_4
REMARK    4  A    between atoms: C_4  and  C_5
REMARK    5  A    between atoms: C_8  and  C_11
REMARK    6  A    between atoms: N_13  and  C_14
REMARK    7  A    between atoms: C_14  and  C_16
REMARK    8  A    between atoms: C_14  and  C_17
REMARK    9  A    between atoms: C_20  and  N_23
REMARK                            x       y       z     vdW  Elec       q    Type
REMARK                         _______ _______ _______ _____ _____    ______ ____
ROOT
ATOM      1  C   UNL     1      -1.320  -6.693  -4.783  0.00  0.00    +0.100 C 
ATOM      2  C   UNL     1      -1.576  -6.742  -3.275  0.00  0.00    +0.033 C 
ENDROOT
BRANCH   1   3
ATOM      3  C   UNL     1      -1.274  -8.097  -5.330  0.00  0.00    -0.027 A 
ATOM      4  C   UNL     1      -0.126  -8.855  -5.189  0.00  0.00    +0.007 A 
ATOM      5  C   UNL     1      -0.080 -10.141  -5.689  0.00  0.00    +0.023 A 
ATOM      6  C   UNL     1      -1.188 -10.673  -6.335  0.00  0.00    +0.035 A 
ATOM      7  C   UNL     1      -2.340  -9.909  -6.475  0.00  0.00    +0.023 A 
ATOM      8  C   UNL     1      -2.381  -8.626  -5.968  0.00  0.00    +0.007 A 
BRANCH   6   9
ATOM      9  N   UNL     1      -1.145 -11.976  -6.843  0.00  0.00    -0.270 N 
ATOM     10  C   UNL     1      -0.424 -12.923  -6.210  0.00  0.00    +0.301 C 
ATOM     11  O   UNL     1       0.109 -12.671  -5.147  0.00  0.00    -0.253 OA
ATOM     12  N   UNL     1      -0.295 -14.149  -6.756  0.00  0.00    -0.313 N 
ATOM     13  H   UNL     1      -1.634 -12.198  -7.651  0.00  0.00    +0.156 HD
ATOM     14  H   UNL     1      -0.720 -14.349  -7.604  0.00  0.00    +0.146 HD
ATOM     15  H   UNL     1       0.224 -14.830  -6.300  0.00  0.00    +0.146 HD
ENDBRANCH   6   9
ENDBRANCH   1   3
BRANCH   1  18
ATOM     16  C   UNL     1       0.014  -4.682  -5.118  0.00  0.00    +0.217 C 
ATOM     17  O   UNL     1      -0.995  -4.024  -4.975  0.00  0.00    -0.275 OA
ATOM     18  N   UNL     1      -0.042  -6.026  -5.040  0.00  0.00    -0.309 N 
ATOM     19  H   UNL     1       0.765  -6.552  -5.154  0.00  0.00    +0.149 HD
BRANCH  16  23
ATOM     20  C   UNL     1       1.544  -2.357  -2.964  0.00  0.00    -0.011 C 
ATOM     21  C   UNL     1       0.555  -2.010  -4.079  0.00  0.00    +0.004 C 
ATOM     22  C   UNL     1       1.116  -2.481  -5.422  0.00  0.00    +0.013 C 
ATOM     23  C   UNL     1       1.329  -3.996  -5.382  0.00  0.00    +0.075 C 
ATOM     24  C   UNL     1       2.318  -4.343  -4.267  0.00  0.00    +0.013 C 
ATOM     25  C   UNL     1       1.758  -3.871  -2.924  0.00  0.00    +0.004 C 
BRANCH  20  26
ATOM     26  C   UNL     1       0.984  -1.885  -1.620  0.00  0.00    +0.003 C 
BRANCH  26  27
ATOM     27  C   UNL     1       0.888  -0.358  -1.615  0.00  0.00    +0.000 C 
BRANCH  27  29
ATOM     28  C   UNL     1       0.231   1.640  -0.267  0.00  0.00    +0.004 C 
ATOM     29  C   UNL     1       0.328   0.113  -0.272  0.00  0.00    -0.003 C 
ENDBRANCH  27  29
ENDBRANCH  26  27
ENDBRANCH  20  26
ENDBRANCH  16  23
ENDBRANCH   1  18
TORSDOF 7
