REMARK  Name = ZINC39695752
REMARK  6 active torsions:
REMARK  status: ('A' for Active; 'I' for Inactive)
REMARK    1  A    between atoms: C_1  and  C_2
REMARK    2  A    between atoms: C_9  and  C_11
REMARK    3  A    between atoms: C_11  and  C_13
REMARK    4  A    between atoms: C_11  and  N_14
REMARK    5  A    between atoms: C_15  and  C_17
REMARK    6  A    between atoms: C_28  and  C_30
REMARK                            x       y       z     vdW  Elec       q    Type
REMARK                         _______ _______ _______ _____ _____    ______ ____
ROOT
ATOM      1  C   UNL     1       1.255  -8.856   1.283  0.00  0.00    +0.100 C 
ATOM      2  C   UNL     1       0.402  -9.569   0.211  0.00  0.00    +0.121 C 
ATOM      3  N   UNL     1       0.950 -10.945   0.150  0.00  0.00    -0.296 N 
ATOM      4  C   UNL     1       1.241 -11.289   1.562  0.00  0.00    +0.115 C 
ATOM      5  C   UNL     1       1.804  -9.987   2.169  0.00  0.00    -0.004 C 
ATOM      6  C   UNL     1       1.314  -9.820   3.604  0.00  0.00    -0.010 C 
ATOM      7  C   UNL     1       1.919 -10.923   4.477  0.00  0.00    -0.082 C 
ATOM      8  N   UNL     1       3.384 -10.841   4.426  0.00  0.00    +0.379 N 
ATOM      9  C   UNL     1       3.852 -11.096   3.058  0.00  0.00    -0.082 C 
ATOM     10  C   UNL     1       3.329 -10.000   2.125  0.00  0.00    -0.010 C 
ATOM     11  C   UNL     1       1.142 -11.710  -0.943  0.00  0.00    +0.247 C 
ATOM     12  O   UNL     1       0.974 -11.240  -2.051  0.00  0.00    -0.270 OA
ATOM     13  H   UNL     1       3.678  -9.920   4.715  0.00  0.00    -0.086 HD
ATOM     14  H   UNL     1       3.780 -11.529   5.049  0.00  0.00    -0.086 HD
ENDROOT
BRANCH  11  15
ATOM     15  C   UNL     1       1.556 -13.121  -0.794  0.00  0.00    +0.037 A 
ATOM     16  C   UNL     1       1.340 -13.791   0.412  0.00  0.00    +0.014 A 
ATOM     17  C   UNL     1       1.729 -15.107   0.545  0.00  0.00    +0.016 A 
ATOM     18  C   UNL     1       2.332 -15.765  -0.514  0.00  0.00    +0.018 A 
ATOM     19  C   UNL     1       2.549 -15.105  -1.713  0.00  0.00    +0.016 A 
ATOM     20  C   UNL     1       2.160 -13.790  -1.860  0.00  0.00    +0.014 A 
ATOM     21 BR   UNL     1       2.863 -17.570  -0.323  0.00  0.00    -0.050 Br
ENDBRANCH  11  15
BRANCH   1  23
ATOM     22  N   UNL     1       0.938  -6.806   2.630  0.00  0.00    -0.305 N 
ATOM     23  C   UNL     1       0.399  -7.920   2.098  0.00  0.00    +0.219 C 
ATOM     24  O   UNL     1      -0.774  -8.170   2.274  0.00  0.00    -0.275 OA
ATOM     25  H   UNL     1       1.877  -6.606   2.489  0.00  0.00    +0.149 HD
BRANCH  22  26
ATOM     26  C   UNL     1       0.106  -5.896   3.422  0.00  0.00    +0.136 C 
ATOM     27  C   UNL     1      -0.617  -4.924   2.488  0.00  0.00    +0.036 C 
BRANCH  26  36
ATOM     28  C   UNL     1       3.297  -1.960   8.872  0.00  0.00    +0.044 C 
ATOM     29  C   UNL     1       3.085  -2.735   7.598  0.00  0.00    -0.048 A 
ATOM     30  C   UNL     1       4.148  -2.938   6.729  0.00  0.00    +0.005 A 
ATOM     31  C   UNL     1       3.977  -3.638   5.569  0.00  0.00    +0.030 A 
ATOM     32  C   UNL     1       2.720  -4.159   5.249  0.00  0.00    +0.089 A 
ATOM     33  C   UNL     1       1.643  -3.954   6.128  0.00  0.00    +0.067 A 
ATOM     34  C   UNL     1       1.837  -3.244   7.305  0.00  0.00    +0.031 A 
ATOM     35  N   UNL     1       0.555  -4.575   5.549  0.00  0.00    -0.340 N 
ATOM     36  C   UNL     1       0.977  -5.122   4.377  0.00  0.00    +0.128 A 
ATOM     37  N   UNL     1       2.243  -4.878   4.201  0.00  0.00    -0.231 NA
ATOM     38  H   UNL     1      -0.344  -4.615   5.911  0.00  0.00    +0.167 HD
ENDBRANCH  26  36
ENDBRANCH  22  26
ENDBRANCH   1  23
TORSDOF 4
