REMARK  Name = ZINC22297344
REMARK  7 active torsions:
REMARK  status: ('A' for Active; 'I' for Inactive)
REMARK    1  A    between atoms: C_1  and  C_2
REMARK    2  A    between atoms: C_12  and  C_14
REMARK    3  A    between atoms: C_14  and  C_16
REMARK    4  A    between atoms: C_14  and  S_17
REMARK    5  A    between atoms: S_17  and  C_18
REMARK    6  A    between atoms: C_21  and  C_24
REMARK    7  A    between atoms: N_22  and  N_23
REMARK                            x       y       z     vdW  Elec       q    Type
REMARK                         _______ _______ _______ _____ _____    ______ ____
ROOT
ATOM      1  S   UNL     1       3.155   7.146  -0.548  0.00  0.00    -0.072 S 
ENDROOT
BRANCH   1   2
ATOM      2  C   UNL     1       4.745   6.408  -0.370  0.00  0.00    +0.209 A 
ATOM      3  N   UNL     1       5.000   5.208   0.102  0.00  0.00    -0.121 NA
ATOM      4  N   UNL     1       6.266   4.988   0.088  0.00  0.00    -0.127 NA
ATOM      5  C   UNL     1       6.898   6.037  -0.385  0.00  0.00    +0.183 A 
ATOM      6  N   UNL     1       5.944   6.979  -0.693  0.00  0.00    -0.224 N 
BRANCH   5   7
ATOM      7  C   UNL     1       8.360   6.179  -0.554  0.00  0.00    +0.035 A 
ATOM      8  C   UNL     1       9.007   7.337  -0.118  0.00  0.00    +0.013 A 
ATOM      9  C   UNL     1      10.371   7.462  -0.275  0.00  0.00    +0.001 A 
ATOM     10  C   UNL     1      11.098   6.447  -0.872  0.00  0.00    +0.001 A 
ATOM     11  C   UNL     1      10.464   5.298  -1.311  0.00  0.00    +0.016 A 
ATOM     12  C   UNL     1       9.099   5.159  -1.155  0.00  0.00    +0.029 A 
ATOM     13 BR   UNL     1       8.232   3.589  -1.757  0.00  0.00    -0.050 Br
ENDBRANCH   5   7
BRANCH   6  14
ATOM     14  N   UNL     1       6.151   8.224  -1.213  0.00  0.00    -0.295 N 
ATOM     15  H   UNL     1       7.174   8.566  -1.430  0.00  0.00    +0.163 HD
ATOM     16  H   UNL     1       5.296   8.886  -1.416  0.00  0.00    +0.163 HD
ENDBRANCH   6  14
ENDBRANCH   1   2
BRANCH   1  17
ATOM     17  C   UNL     1       2.114   5.803   0.075  0.00  0.00    +0.137 C 
ATOM     18  C   UNL     1       2.410   5.575   1.559  0.00  0.00    +0.029 C 
BRANCH  17  29
ATOM     19  C   UNL     1      -2.159   6.470   1.067  0.00  0.00    +0.029 C 
ATOM     20  C   UNL     1      -1.735   5.482  -0.021  0.00  0.00    +0.083 C 
ATOM     21  C   UNL     1      -2.393   4.113   0.214  0.00  0.00    +0.059 C 
ATOM     22  C   UNL     1      -1.235   3.162   0.411  0.00  0.00    -0.024 A 
ATOM     23  C   UNL     1      -1.210   1.802   0.653  0.00  0.00    +0.005 A 
ATOM     24  C   UNL     1      -0.004   1.145   0.803  0.00  0.00    +0.000 A 
ATOM     25  C   UNL     1       1.181   1.850   0.699  0.00  0.00    +0.002 A 
ATOM     26  C   UNL     1       1.162   3.206   0.452  0.00  0.00    +0.024 A 
ATOM     27  C   UNL     1      -0.053   3.878   0.305  0.00  0.00    +0.040 A 
ATOM     28  N   UNL     1      -0.293   5.232   0.054  0.00  0.00    -0.267 N 
ATOM     29  C   UNL     1       0.663   6.171  -0.097  0.00  0.00    +0.233 C 
ATOM     30  O   UNL     1       0.355   7.312  -0.371  0.00  0.00    -0.274 OA
ENDBRANCH  17  29
ENDBRANCH   1  17
TORSDOF 5
