REMARK  Name = ZINC30978177
REMARK  13 active torsions:
REMARK  status: ('A' for Active; 'I' for Inactive)
REMARK    1  A    between atoms: C_1  and  C_2
REMARK    2  A    between atoms: C_2  and  C_3
REMARK    3  A    between atoms: C_3  and  C_5
REMARK    4  A    between atoms: C_3  and  N_12
REMARK    5  A    between atoms: C_10  and  C_11
REMARK    6  A    between atoms: C_13  and  C_15
REMARK    7  A    between atoms: N_18  and  C_21
REMARK    8  A    between atoms: C_21  and  C_22
REMARK    9  A    between atoms: C_24  and  C_27
REMARK   10  A    between atoms: C_30  and  C_33
REMARK   11  A    between atoms: C_33  and  C_34
REMARK   12  A    between atoms: C_33  and  C_35
REMARK   13  A    between atoms: C_33  and  C_36
REMARK                            x       y       z     vdW  Elec       q    Type
REMARK                         _______ _______ _______ _____ _____    ______ ____
ROOT
ATOM      1  C   UNL     1       5.641   2.834   1.806  0.00  0.00    +0.071 C 
ATOM      2  C   UNL     1       5.047   1.880   2.846  0.00  0.00    -0.006 C 
ATOM      3  C   UNL     1       6.172   1.060   3.481  0.00  0.00    -0.077 C 
ATOM      4  N   UNL     1       7.139   1.964   4.116  0.00  0.00    +0.386 N 
ATOM      5  C   UNL     1       7.759   2.858   3.129  0.00  0.00    -0.077 C 
ATOM      6  C   UNL     1       6.681   3.731   2.484  0.00  0.00    -0.006 C 
ATOM      7  H   UNL     1       6.591   2.588   4.837  0.00  0.00    -0.081 HD
ENDROOT
BRANCH   1   9
ATOM      8  N   UNL     1       3.516   3.108   0.571  0.00  0.00    -0.308 N 
ATOM      9  C   UNL     1       4.546   3.687   1.220  0.00  0.00    +0.216 C 
ATOM     10  O   UNL     1       4.590   4.893   1.332  0.00  0.00    -0.276 OA
ATOM     11  H   UNL     1       3.475   2.014   0.469  0.00  0.00    +0.149 HD
BRANCH   8  12
ATOM     12  C   UNL     1       2.451   3.937   0.001  0.00  0.00    +0.103 C 
BRANCH  12  13
ATOM     13  C   UNL     1       1.406   4.206   1.053  0.00  0.00    -0.024 A 
ATOM     14  C   UNL     1       1.238   3.321   2.102  0.00  0.00    +0.006 A 
ATOM     15  C   UNL     1       0.281   3.568   3.068  0.00  0.00    +0.000 A 
ATOM     16  C   UNL     1      -0.513   4.697   2.982  0.00  0.00    +0.000 A 
ATOM     17  C   UNL     1      -0.342   5.583   1.935  0.00  0.00    +0.004 A 
ATOM     18  C   UNL     1       0.616   5.337   0.970  0.00  0.00    -0.046 A 
ATOM     19  C   UNL     1       0.800   6.301  -0.173  0.00  0.00    +0.044 C 
ENDBRANCH  12  13
BRANCH  12  21
ATOM     20  C   UNL     1       2.839   3.040  -2.299  0.00  0.00    +0.006 C 
ATOM     21  C   UNL     1       1.810   3.203  -1.179  0.00  0.00    +0.024 C 
ENDBRANCH  12  21
ENDBRANCH   8  12
ENDBRANCH   1   9
BRANCH   4  22
ATOM     22  C   UNL     1       8.160   1.208   4.855  0.00  0.00    +0.022 C 
BRANCH  22  23
ATOM     23  C   UNL     1       7.514   0.493   6.014  0.00  0.00    +0.211 A 
ATOM     24  N   UNL     1       7.005  -0.714   5.997  0.00  0.00    -0.193 NA
ATOM     25  C   UNL     1       6.545  -0.931   7.250  0.00  0.00    +0.202 A 
ATOM     26  N   UNL     1       6.799   0.146   7.947  0.00  0.00    -0.056 NA
ATOM     27  O   UNL     1       7.359   0.969   7.253  0.00  0.00    -0.340 OA
BRANCH  25  28
ATOM     28  C   UNL     1       5.876  -2.161   7.742  0.00  0.00    +0.022 A 
ATOM     29  C   UNL     1       5.665  -3.235   6.880  0.00  0.00    +0.012 A 
ATOM     30  C   UNL     1       5.048  -4.379   7.344  0.00  0.00    +0.005 A 
ATOM     31  C   UNL     1       4.629  -4.456   8.660  0.00  0.00    -0.042 A 
ATOM     32  C   UNL     1       4.831  -3.391   9.519  0.00  0.00    +0.005 A 
ATOM     33  C   UNL     1       5.452  -2.244   9.067  0.00  0.00    +0.012 A 
BRANCH  31  34
ATOM     34  C   UNL     1       3.949  -5.705   9.160  0.00  0.00    -0.013 C 
ATOM     35  C   UNL     1       2.544  -5.356   9.657  0.00  0.00    +0.015 C 
ATOM     36  C   UNL     1       3.849  -6.721   8.021  0.00  0.00    +0.015 C 
ATOM     37  C   UNL     1       4.763  -6.304  10.309  0.00  0.00    +0.015 C 
ENDBRANCH  31  34
ENDBRANCH  25  28
ENDBRANCH  22  23
ENDBRANCH   4  22
TORSDOF 8
