REMARK  Name = ZINC09557125
REMARK  12 active torsions:
REMARK  status: ('A' for Active; 'I' for Inactive)
REMARK    1  A    between atoms: C_1  and  C_2
REMARK    2  A    between atoms: C_2  and  C_3
REMARK    3  A    between atoms: C_3  and  C_4
REMARK    4  A    between atoms: C_4  and  N_5
REMARK    5  A    between atoms: C_15  and  C_28
REMARK    6  A    between atoms: C_16  and  O_27
REMARK    7  A    between atoms: N_19  and  C_20
REMARK    8  A    between atoms: C_20  and  C_21
REMARK    9  A    between atoms: C_28  and  C_30
REMARK   10  A    between atoms: C_33  and  O_36
REMARK   11  A    between atoms: O_36  and  C_37
REMARK   12  A    between atoms: C_37  and  C_38
REMARK                            x       y       z     vdW  Elec       q    Type
REMARK                         _______ _______ _______ _____ _____    ______ ____
ROOT
ATOM      1  N   UNL     1       1.083  -1.861  -0.062  0.00  0.00    -0.269 N 
ATOM      2  C   UNL     1       1.219  -0.471  -0.068  0.00  0.00    +0.042 A 
ATOM      3  C   UNL     1       2.357   0.333  -0.099  0.00  0.00    +0.024 A 
ATOM      4  C   UNL     1       2.235   1.707  -0.099  0.00  0.00    +0.002 A 
ATOM      5  C   UNL     1       0.985   2.298  -0.068  0.00  0.00    +0.000 A 
ATOM      6  C   UNL     1      -0.150   1.507  -0.037  0.00  0.00    +0.008 A 
ATOM      7  C   UNL     1      -0.032   0.135  -0.036  0.00  0.00    +0.011 A 
ATOM      8  C   UNL     1      -1.036  -0.987  -0.006  0.00  0.00    +0.174 C 
ATOM      9  C   UNL     1      -0.206  -2.245  -0.028  0.00  0.00    +0.253 C 
ATOM     10  O   UNL     1      -0.621  -3.385  -0.016  0.00  0.00    -0.272 OA
ATOM     11  C   UNL     1      -1.961  -0.925  -1.191  0.00  0.00    +0.083 C 
ATOM     12  C   UNL     1      -3.218  -0.833  -0.693  0.00  0.00    +0.189 C 
ATOM     13  C   UNL     1      -3.155  -0.832   0.785  0.00  0.00    +0.283 C 
ATOM     14  O   UNL     1      -4.117  -0.760   1.524  0.00  0.00    -0.267 OA
ATOM     15  N   UNL     1      -1.873  -0.923   1.190  0.00  0.00    -0.271 N 
ENDROOT
BRANCH  12  16
ATOM     16  O   UNL     1      -4.350  -0.754  -1.429  0.00  0.00    -0.502 OA
ATOM     17  H   UNL     1      -5.141  -0.695  -0.820  0.00  0.00    +0.292 HD
ENDBRANCH  12  16
BRANCH  11  18
ATOM     18  C   UNL     1      -1.578  -0.958  -2.607  0.00  0.00    +0.196 C 
ATOM     19  O   UNL     1      -1.104   0.032  -3.132  0.00  0.00    -0.287 OA
BRANCH  18  20
ATOM     20  C   UNL     1      -1.767  -2.192  -3.394  0.00  0.00    +0.022 A 
ATOM     21  C   UNL     1      -2.414  -3.294  -2.825  0.00  0.00    +0.015 A 
ATOM     22  C   UNL     1      -2.594  -4.441  -3.565  0.00  0.00    +0.046 A 
ATOM     23  C   UNL     1      -2.123  -4.509  -4.872  0.00  0.00    +0.121 A 
ATOM     24  C   UNL     1      -1.474  -3.418  -5.439  0.00  0.00    +0.046 A 
ATOM     25  C   UNL     1      -1.295  -2.265  -4.708  0.00  0.00    +0.015 A 
BRANCH  23  26
ATOM     26  O   UNL     1      -2.297  -5.644  -5.595  0.00  0.00    -0.488 OA
BRANCH  26  27
ATOM     27  C   UNL     1      -2.972  -6.726  -4.952  0.00  0.00    +0.256 C 
BRANCH  27  28
ATOM     28  C   UNL     1      -3.071  -7.892  -5.902  0.00  0.00    +0.006 C 
ATOM     29  C   UNL     1      -2.795  -9.103  -5.484  0.00  0.00    +0.007 C 
ENDBRANCH  27  28
ENDBRANCH  26  27
ENDBRANCH  23  26
ENDBRANCH  18  20
ENDBRANCH  11  18
BRANCH   1  30
ATOM     30  C   UNL     1       2.213  -2.792  -0.090  0.00  0.00    +0.114 C 
BRANCH  30  31
ATOM     31  C   UNL     1       2.647  -3.025  -1.539  0.00  0.00    +0.019 C 
BRANCH  31  33
ATOM     32  C   UNL     1       4.335  -4.133  -3.010  0.00  0.00    +0.004 C 
ATOM     33  C   UNL     1       3.902  -3.900  -1.561  0.00  0.00    -0.002 C 
ENDBRANCH  31  33
ENDBRANCH  30  31
ENDBRANCH   1  30
BRANCH  15  34
ATOM     34  C   UNL     1      -1.403  -0.953   2.577  0.00  0.00    +0.141 C 
BRANCH  34  35
ATOM     35  C   UNL     1      -1.135   0.476   3.056  0.00  0.00    +0.136 C 
ATOM     36  C   UNL     1      -0.633   0.455   4.512  0.00  0.00    +0.035 C 
ATOM     37  C   UNL     1       0.751   1.145   4.447  0.00  0.00    +0.031 C 
ATOM     38  C   UNL     1       0.652   1.947   3.124  0.00  0.00    +0.160 C 
ATOM     39  O   UNL     1      -0.104   1.075   2.253  0.00  0.00    -0.375 OA
ENDBRANCH  34  35
ENDBRANCH  15  34
TORSDOF 11
