REMARK  Name = ZINC16846806
REMARK  12 active torsions:
REMARK  status: ('A' for Active; 'I' for Inactive)
REMARK    1  A    between atoms: C_1  and  C_2
REMARK    2  A    between atoms: C_2  and  C_3
REMARK    3  A    between atoms: C_3  and  C_4
REMARK    4  A    between atoms: C_4  and  C_5
REMARK    5  A    between atoms: C_5  and  O_6
REMARK    6  A    between atoms: O_6  and  C_7
REMARK    7  A    between atoms: C_7  and  C_9
REMARK    8  A    between atoms: C_9  and  S_10
REMARK    9  A    between atoms: S_10  and  C_11
REMARK   10  A    between atoms: C_25  and  C_27
REMARK   11  A    between atoms: C_25  and  C_28
REMARK   12  A    between atoms: C_28  and  C_29
REMARK                            x       y       z     vdW  Elec       q    Type
REMARK                         _______ _______ _______ _____ _____    ______ ____
ROOT
ATOM      1  C   UNL     1       2.822   5.264   0.005  0.00  0.00    +0.199 A 
ATOM      2  N   UNL     1       1.554   5.606   0.018  0.00  0.00    -0.122 NA
ATOM      3  N   UNL     1       0.808   4.556   0.019  0.00  0.00    -0.128 NA
ATOM      4  C   UNL     1       1.557   3.482   0.006  0.00  0.00    +0.174 A 
ATOM      5  N   UNL     1       2.871   3.896  -0.003  0.00  0.00    -0.241 N 
ATOM      6  C   UNL     1       3.888   2.980  -0.018  0.00  0.00    +0.202 A 
ATOM      7  N   UNL     1       3.643   1.691  -0.023  0.00  0.00    -0.208 NA
ATOM      8  C   UNL     1       2.404   1.202  -0.015  0.00  0.00    +0.116 A 
ATOM      9  C   UNL     1       1.272   2.031   0.001  0.00  0.00    +0.056 A 
ATOM     10  C   UNL     1      -0.016   1.349   0.009  0.00  0.00    -0.019 A 
ATOM     11  C   UNL     1       0.002  -0.004   0.002  0.00  0.00    +0.021 A 
ATOM     12  S   UNL     1       1.718  -0.436  -0.018  0.00  0.00    -0.071 S 
ATOM     13  C   UNL     1      -1.193  -0.906   0.011  0.00  0.00    +0.203 C 
ATOM     14  O   UNL     1      -2.342  -0.113   0.348  0.00  0.00    -0.368 OA
ATOM     15  C   UNL     1      -2.442   1.096  -0.409  0.00  0.00    +0.071 C 
ATOM     16  C   UNL     1      -1.355   2.084   0.020  0.00  0.00    +0.071 C 
ATOM     17  C   UNL     1      -2.270   0.779  -1.896  0.00  0.00    +0.042 C 
ATOM     18  N   UNL     1       5.191   3.418  -0.026  0.00  0.00    -0.328 N 
ATOM     19  H   UNL     1       5.919   2.777  -0.036  0.00  0.00    +0.145 HD
ATOM     20  H   UNL     1       5.383   4.369  -0.022  0.00  0.00    +0.145 HD
ENDROOT
BRANCH  15  21
ATOM     21  C   UNL     1      -3.818   1.725  -0.181  0.00  0.00    +0.032 C 
ATOM     22  C   UNL     1      -4.906   0.748  -0.631  0.00  0.00    +0.007 C 
ENDBRANCH  15  21
BRANCH   1  23
ATOM     23  S   UNL     1       4.201   6.360  -0.000  0.00  0.00    -0.074 S 
BRANCH  23  24
ATOM     24  C   UNL     1       3.449   8.011   0.015  0.00  0.00    +0.197 C 
BRANCH  24  25
ATOM     25  C   UNL     1       4.534   9.057   0.012  0.00  0.00    +0.317 C 
ATOM     26  O   UNL     1       5.695   8.723   0.000  0.00  0.00    -0.250 OA
BRANCH  25  27
ATOM     27  O   UNL     1       4.210  10.360   0.022  0.00  0.00    -0.464 OA
BRANCH  27  28
ATOM     28  C   UNL     1       5.307  11.311   0.018  0.00  0.00    +0.232 C 
BRANCH  28  29
ATOM     29  C   UNL     1       4.747  12.735   0.031  0.00  0.00    +0.041 C 
BRANCH  29  30
ATOM     30  C   UNL     1       5.902  13.738   0.027  0.00  0.00    +0.003 C 
BRANCH  30  32
ATOM     31  C   UNL     1       6.497  16.164   0.035  0.00  0.00    +0.004 C 
ATOM     32  C   UNL     1       5.342  15.162   0.040  0.00  0.00    -0.003 C 
ENDBRANCH  30  32
ENDBRANCH  29  30
ENDBRANCH  28  29
ENDBRANCH  27  28
ENDBRANCH  25  27
ENDBRANCH  24  25
ENDBRANCH  23  24
ENDBRANCH   1  23
TORSDOF 9
