REMARK  Name = ZINC15612242
REMARK  2 active torsions:
REMARK  status: ('A' for Active; 'I' for Inactive)
REMARK    1  A    between atoms: C_1  and  C_2
REMARK    2  A    between atoms: C_12  and  C_14
REMARK                            x       y       z     vdW  Elec       q    Type
REMARK                         _______ _______ _______ _____ _____    ______ ____
ROOT
ATOM      1  C   UNL     1       0.352   5.637  -0.045  0.00  0.00    +0.008 C 
ATOM      2  C   UNL     1       0.186   4.147  -0.347  0.00  0.00    -0.009 C 
ATOM      3  C   UNL     1      -0.955   3.572   0.496  0.00  0.00    +0.010 C 
ATOM      4  C   UNL     1      -1.294   2.156   0.032  0.00  0.00    +0.056 C 
ATOM      5  C   UNL     1      -0.016   1.327   0.009  0.00  0.00    +0.054 A 
ATOM      6  C   UNL     1       1.197   1.938   0.001  0.00  0.00    +0.015 A 
ATOM      7  S   UNL     1       2.323   0.570  -0.016  0.00  0.00    -0.057 S 
ATOM      8  C   UNL     1       1.126  -0.691  -0.011  0.00  0.00    +0.165 A 
ATOM      9  N   UNL     1       0.002  -0.004   0.002  0.00  0.00    -0.229 NA
ATOM     10  N   UNL     1       1.308  -2.069  -0.021  0.00  0.00    -0.262 N 
ATOM     11  C   UNL     1       0.238  -2.890  -0.015  0.00  0.00    +0.260 C 
ATOM     12  O   UNL     1      -0.882  -2.426  -0.002  0.00  0.00    -0.271 OA
ATOM     13  C   UNL     1       1.484   3.401   0.004  0.00  0.00    +0.047 C 
ATOM     14  H   UNL     1       2.204  -2.440  -0.031  0.00  0.00    +0.157 HD
ENDROOT
BRANCH  11  15
ATOM     15  C   UNL     1       0.436  -4.384  -0.025  0.00  0.00    +0.263 C 
ATOM     16  C   UNL     1       1.044  -4.847  -1.370  0.00  0.00    +0.093 C 
ATOM     17  C   UNL     1      -0.196  -5.192  -2.172  0.00  0.00    -0.000 A 
ATOM     18  C   UNL     1      -0.398  -5.402  -3.519  0.00  0.00    +0.027 A 
ATOM     19  C   UNL     1      -1.665  -5.700  -3.990  0.00  0.00    +0.041 A 
ATOM     20  C   UNL     1      -2.724  -5.788  -3.104  0.00  0.00    +0.023 A 
ATOM     21  C   UNL     1      -2.523  -5.583  -1.755  0.00  0.00    +0.047 A 
ATOM     22  C   UNL     1      -1.250  -5.284  -1.273  0.00  0.00    +0.125 A 
ATOM     23  O   UNL     1      -0.830  -5.065   0.008  0.00  0.00    -0.479 OA
ATOM     24 CL   UNL     1      -1.924  -5.964  -5.686  0.00  0.00    -0.084 Cl
ENDBRANCH  11  15
TORSDOF 1
