REMARK  Name = ZINC02570260
REMARK  7 active torsions:
REMARK  status: ('A' for Active; 'I' for Inactive)
REMARK    1  A    between atoms: C_10  and  C_11
REMARK    2  A    between atoms: C_11  and  O_13
REMARK    3  A    between atoms: O_13  and  C_14
REMARK    4  A    between atoms: C_17  and  C_20
REMARK    5  A    between atoms: N_21  and  N_22
REMARK    6  A    between atoms: C_23  and  C_25
REMARK    7  A    between atoms: C_34  and  O_35
REMARK                            x       y       z     vdW  Elec       q    Type
REMARK                         _______ _______ _______ _____ _____    ______ ____
ROOT
ATOM      1  C   UNL     1      -8.754   7.403   0.125  0.00  0.00    +0.132 A 
ATOM      2  C   UNL     1      -7.574   8.134   0.192  0.00  0.00    +0.047 A 
ATOM      3  C   UNL     1      -6.358   7.486   0.183  0.00  0.00    +0.013 A 
ATOM      4  C   UNL     1      -6.312   6.091   0.107  0.00  0.00    -0.005 A 
ATOM      5  C   UNL     1      -7.501   5.360   0.034  0.00  0.00    +0.013 A 
ATOM      6  C   UNL     1      -8.713   6.016   0.048  0.00  0.00    +0.047 A 
ENDROOT
BRANCH   4   7
ATOM      7  C   UNL     1      -5.014   5.394   0.097  0.00  0.00    +0.138 C 
ATOM      8  N   UNL     1      -4.974   4.098   0.026  0.00  0.00    -0.187 NA
BRANCH   8   9
ATOM      9  N   UNL     1      -3.740   3.435   0.016  0.00  0.00    -0.203 N 
ATOM     10  C   UNL     1      -3.698   2.090  -0.058  0.00  0.00    +0.267 C 
ATOM     11  O   UNL     1      -4.731   1.452  -0.116  0.00  0.00    -0.268 OA
ATOM     12  H   UNL     1      -2.915   3.944   0.063  0.00  0.00    +0.178 HD
BRANCH  10  13
ATOM     13  C   UNL     1      -2.398   1.392  -0.068  0.00  0.00    +0.080 A 
ATOM     14  C   UNL     1      -1.223   2.123   0.005  0.00  0.00    +0.025 A 
ATOM     15  C   UNL     1       0.009   1.454  -0.011  0.00  0.00    -0.017 A 
ATOM     16  C   UNL     1       1.221   2.165   0.057  0.00  0.00    +0.008 A 
ATOM     17  C   UNL     1       2.401   1.487   0.045  0.00  0.00    +0.001 A 
ATOM     18  C   UNL     1       2.428   0.096  -0.031  0.00  0.00    +0.001 A 
ATOM     19  C   UNL     1       1.276  -0.626  -0.097  0.00  0.00    +0.008 A 
ATOM     20  C   UNL     1       0.037   0.037  -0.089  0.00  0.00    -0.014 A 
ATOM     21  C   UNL     1      -1.168  -0.681  -0.155  0.00  0.00    +0.054 A 
ATOM     22  C   UNL     1      -2.360  -0.017  -0.145  0.00  0.00    +0.130 A 
BRANCH  22  23
ATOM     23  O   UNL     1      -3.520  -0.718  -0.210  0.00  0.00    -0.506 OA
ATOM     24  H   UNL     1      -3.876  -0.970   0.653  0.00  0.00    +0.292 HD
ENDBRANCH  22  23
ENDBRANCH  10  13
ENDBRANCH   8   9
ENDBRANCH   4   7
BRANCH   1  25
ATOM     25  O   UNL     1      -9.950   8.046   0.134  0.00  0.00    -0.422 OA
BRANCH  25  26
ATOM     26  C   UNL     1     -10.243   8.809  -0.938  0.00  0.00    +0.345 C 
ATOM     27  O   UNL     1      -9.497   8.821  -1.897  0.00  0.00    -0.245 OA
BRANCH  26  37
ATOM     28  C   UNL     1     -12.700  11.742  -4.399  0.00  0.00    +0.001 A 
ATOM     29  C   UNL     1     -11.536  10.978  -4.429  0.00  0.00    +0.001 A 
ATOM     30  C   UNL     1     -11.120  10.290  -3.329  0.00  0.00    +0.009 A 
ATOM     31  C   UNL     1     -11.873  10.350  -2.150  0.00  0.00    -0.004 A 
ATOM     32  C   UNL     1     -13.058  11.127  -2.115  0.00  0.00    -0.017 A 
ATOM     33  C   UNL     1     -13.456  11.824  -3.269  0.00  0.00    +0.008 A 
ATOM     34  C   UNL     1     -13.811  11.184  -0.931  0.00  0.00    +0.008 A 
ATOM     35  C   UNL     1     -13.413  10.504   0.179  0.00  0.00    +0.001 A 
ATOM     36  C   UNL     1     -12.263   9.726   0.189  0.00  0.00    +0.015 A 
ATOM     37  C   UNL     1     -11.467   9.628  -0.946  0.00  0.00    +0.067 A 
ENDBRANCH  26  37
ENDBRANCH  25  26
ENDBRANCH   1  25
TORSDOF 7
