REMARK  Name = ZINC02403488
REMARK  12 active torsions:
REMARK  status: ('A' for Active; 'I' for Inactive)
REMARK    1  A    between atoms: C_1  and  C_2
REMARK    2  A    between atoms: C_2  and  C_3
REMARK    3  A    between atoms: C_3  and  C_36
REMARK    4  A    between atoms: C_13  and  S_19
REMARK    5  A    between atoms: C_15  and  S_17
REMARK    6  A    between atoms: S_17  and  C_18
REMARK    7  A    between atoms: S_19  and  C_20
REMARK    8  A    between atoms: C_20  and  C_21
REMARK    9  A    between atoms: N_23  and  C_24
REMARK   10  A    between atoms: C_24  and  C_26
REMARK   11  A    between atoms: C_24  and  C_27
REMARK   12  A    between atoms: C_27  and  C_28
REMARK                            x       y       z     vdW  Elec       q    Type
REMARK                         _______ _______ _______ _____ _____    ______ ____
ROOT
ATOM      1  C   UNL     1     -11.826  -4.633  -2.006  0.00  0.00    +0.071 C 
ATOM      2  C   UNL     1     -10.605  -3.709  -2.010  0.00  0.00    +0.071 C 
ATOM      3  C   UNL     1     -10.239  -3.416  -3.463  0.00  0.00    -0.019 A 
ATOM      4  C   UNL     1     -11.149  -3.646  -4.439  0.00  0.00    +0.021 A 
ATOM      5  S   UNL     1     -10.333  -3.183  -5.939  0.00  0.00    -0.071 S 
ATOM      6  C   UNL     1      -8.774  -2.683  -5.251  0.00  0.00    +0.115 A 
ATOM      7  C   UNL     1      -8.939  -2.901  -3.875  0.00  0.00    +0.056 A 
ATOM      8  C   UNL     1      -7.769  -2.554  -3.040  0.00  0.00    +0.174 A 
ATOM      9  N   UNL     1      -7.524  -2.595  -1.754  0.00  0.00    -0.128 NA
ATOM     10  N   UNL     1      -6.327  -2.178  -1.526  0.00  0.00    -0.122 NA
ATOM     11  C   UNL     1      -5.739  -1.846  -2.652  0.00  0.00    +0.198 A 
ATOM     12  N   UNL     1      -6.638  -2.069  -3.660  0.00  0.00    -0.248 N 
ATOM     13  C   UNL     1      -6.604  -1.909  -5.019  0.00  0.00    +0.177 A 
ATOM     14  N   UNL     1      -7.642  -2.210  -5.766  0.00  0.00    -0.216 NA
ATOM     15  C   UNL     1     -12.536  -4.177  -4.250  0.00  0.00    +0.203 C 
ATOM     16  O   UNL     1     -12.850  -4.101  -2.850  0.00  0.00    -0.368 OA
ATOM     17  C   UNL     1     -11.418  -6.016  -2.518  0.00  0.00    +0.042 C 
ENDROOT
BRANCH   1  19
ATOM     18  C   UNL     1     -13.503  -5.779  -0.549  0.00  0.00    +0.007 C 
ATOM     19  C   UNL     1     -12.361  -4.760  -0.578  0.00  0.00    +0.032 C 
ENDBRANCH   1  19
BRANCH  13  20
ATOM     20  S   UNL     1      -5.142  -1.289  -5.781  0.00  0.00    -0.091 S 
ATOM     21  C   UNL     1      -5.664  -1.294  -7.514  0.00  0.00    +0.093 C 
ENDBRANCH  13  20
BRANCH  11  22
ATOM     22  S   UNL     1      -4.100  -1.225  -2.832  0.00  0.00    -0.076 S 
BRANCH  22  23
ATOM     23  C   UNL     1      -3.465  -1.164  -1.134  0.00  0.00    +0.173 C 
BRANCH  23  24
ATOM     24  C   UNL     1      -2.051  -0.643  -1.145  0.00  0.00    +0.224 C 
ATOM     25  O   UNL     1      -1.524  -0.341  -2.194  0.00  0.00    -0.275 OA
ATOM     26  N   UNL     1      -1.372  -0.511   0.012  0.00  0.00    -0.312 N 
ATOM     27  H   UNL     1      -1.794  -0.752   0.852  0.00  0.00    +0.149 HD
BRANCH  26  28
ATOM     28  C   UNL     1       0.002  -0.004   0.002  0.00  0.00    +0.074 C 
ATOM     29  C   UNL     1      -0.019   1.526   0.010  0.00  0.00    +0.028 C 
BRANCH  28  30
ATOM     30  C   UNL     1       0.742  -0.511   1.242  0.00  0.00    +0.057 C 
BRANCH  30  31
ATOM     31  C   UNL     1       0.870  -2.011   1.172  0.00  0.00    -0.046 A 
ATOM     32  C   UNL     1      -0.112  -2.814   1.720  0.00  0.00    +0.004 A 
ATOM     33  C   UNL     1       0.003  -4.190   1.652  0.00  0.00    +0.000 A 
ATOM     34  C   UNL     1       1.105  -4.763   1.045  0.00  0.00    +0.000 A 
ATOM     35  C   UNL     1       2.090  -3.959   0.501  0.00  0.00    +0.000 A 
ATOM     36  C   UNL     1       1.972  -2.583   0.564  0.00  0.00    +0.004 A 
ENDBRANCH  30  31
ENDBRANCH  28  30
ENDBRANCH  26  28
ENDBRANCH  23  24
ENDBRANCH  22  23
ENDBRANCH  11  22
TORSDOF 8
