REMARK  Name = ZINC33812600
REMARK  16 active torsions:
REMARK  status: ('A' for Active; 'I' for Inactive)
REMARK    1  A    between atoms: C_1  and  C_2
REMARK    2  A    between atoms: C_2  and  C_3
REMARK    3  A    between atoms: C_3  and  C_4
REMARK    4  A    between atoms: C_4  and  C_5
REMARK    5  A    between atoms: C_5  and  C_7
REMARK    6  A    between atoms: C_5  and  C_9
REMARK    7  A    between atoms: C_7  and  C_8
REMARK    8  A    between atoms: C_9  and  N_10
REMARK    9  A    between atoms: C_14  and  C_15
REMARK   10  A    between atoms: C_16  and  C_34
REMARK   11  A    between atoms: C_17  and  C_32
REMARK   12  A    between atoms: N_20  and  C_29
REMARK   13  A    between atoms: C_21  and  N_22
REMARK   14  A    between atoms: N_25  and  C_28
REMARK   15  A    between atoms: C_29  and  C_30
REMARK   16  A    between atoms: C_30  and  C_31
REMARK                            x       y       z     vdW  Elec       q    Type
REMARK                         _______ _______ _______ _____ _____    ______ ____
ROOT
ATOM      1  C   UNL     1      -8.408  -5.588   2.514  0.00  0.00    +0.019 A 
ATOM      2  C   UNL     1      -8.872  -6.125   1.302  0.00  0.00    -0.017 A 
ATOM      3  C   UNL     1     -10.167  -6.632   1.242  0.00  0.00    +0.120 A 
ATOM      4  C   UNL     1     -10.984  -6.595   2.401  0.00  0.00    +0.270 A 
ATOM      5  O   UNL     1     -12.118  -7.037   2.356  0.00  0.00    -0.266 OA
ATOM      6  N   UNL     1     -10.516  -6.075   3.550  0.00  0.00    -0.295 N 
ATOM      7  C   UNL     1      -9.255  -5.579   3.635  0.00  0.00    +0.112 A 
ATOM      8  C   UNL     1      -7.983  -6.151   0.085  0.00  0.00    +0.046 C 
ENDROOT
BRANCH   1  13
ATOM      9  N   UNL     1      -3.725  -6.568   2.423  0.00  0.00    -0.255 N 
ATOM     10  C   UNL     1      -4.584  -5.573   2.560  0.00  0.00    +0.258 C 
ATOM     11  O   UNL     1      -4.198  -4.430   2.732  0.00  0.00    -0.269 OA
ATOM     12  C   UNL     1      -5.978  -5.877   2.500  0.00  0.00    +0.077 C 
ATOM     13  C   UNL     1      -7.051  -5.047   2.610  0.00  0.00    +0.032 C 
ATOM     14  S   UNL     1      -5.930  -7.645   2.241  0.00  0.00    -0.061 S 
ATOM     15  C   UNL     1      -4.154  -7.835   2.227  0.00  0.00    +0.121 C 
ATOM     16  S   UNL     1      -3.229  -9.260   2.019  0.00  0.00    -0.027 S 
BRANCH   9  17
ATOM     17  C   UNL     1      -2.287  -6.293   2.479  0.00  0.00    +0.118 C 
BRANCH  17  18
ATOM     18  C   UNL     1      -1.745  -6.123   1.058  0.00  0.00    +0.007 C 
BRANCH  18  19
ATOM     19  C   UNL     1      -0.239  -5.860   1.116  0.00  0.00    +0.002 C 
ATOM     20  C   UNL     1       0.475  -7.103   1.652  0.00  0.00    +0.004 C 
ENDBRANCH  18  19
BRANCH  18  21
ATOM     21  C   UNL     1      -2.444  -4.940   0.385  0.00  0.00    +0.005 C 
BRANCH  21  22
ATOM     22  C   UNL     1      -1.994  -4.845  -1.075  0.00  0.00    +0.000 C 
BRANCH  22  24
ATOM     23  C   UNL     1      -2.242  -3.568  -3.208  0.00  0.00    +0.004 C 
ATOM     24  C   UNL     1      -2.692  -3.663  -1.748  0.00  0.00    -0.003 C 
ENDBRANCH  22  24
ENDBRANCH  21  22
ENDBRANCH  18  21
ENDBRANCH  17  18
ENDBRANCH   9  17
ENDBRANCH   1  13
BRANCH   7  25
ATOM     25  N   UNL     1      -8.808  -5.064   4.816  0.00  0.00    -0.320 N 
ATOM     26  C   UNL     1      -8.024  -5.886   5.752  0.00  0.00    +0.088 C 
ATOM     27  C   UNL     1      -6.762  -5.109   6.141  0.00  0.00    -0.060 C 
ATOM     28  N   UNL     1      -7.142  -3.791   6.664  0.00  0.00    +0.380 N 
ATOM     29  C   UNL     1      -7.782  -2.999   5.607  0.00  0.00    -0.060 C 
ATOM     30  C   UNL     1      -9.091  -3.669   5.189  0.00  0.00    +0.088 C 
ATOM     31  C   UNL     1      -5.941  -3.090   7.139  0.00  0.00    -0.096 C 
ATOM     32  H   UNL     1      -7.785  -3.908   7.432  0.00  0.00    -0.082 HD
ENDBRANCH   7  25
BRANCH   3  33
ATOM     33  C   UNL     1     -10.671  -7.186   0.022  0.00  0.00    +0.105 C 
ATOM     34  N   UNL     1     -11.070  -7.625  -0.947  0.00  0.00    -0.191 NA
ENDBRANCH   3  33
BRANCH   6  35
ATOM     35  C   UNL     1     -11.380  -6.048   4.733  0.00  0.00    +0.126 C 
BRANCH  35  36
ATOM     36  C   UNL     1     -11.139  -7.306   5.570  0.00  0.00    +0.018 C 
ATOM     37  C   UNL     1     -12.042  -7.278   6.804  0.00  0.00    +0.005 C 
ENDBRANCH  35  36
ENDBRANCH   6  35
TORSDOF 11
