REMARK  Name = ZINC01142254
REMARK  7 active torsions:
REMARK  status: ('A' for Active; 'I' for Inactive)
REMARK    1  A    between atoms: C_4  and  N_7
REMARK    2  A    between atoms: C_8  and  C_24
REMARK    3  A    between atoms: C_11  and  S_12
REMARK    4  A    between atoms: S_12  and  C_13
REMARK    5  A    between atoms: C_13  and  C_14
REMARK    6  A    between atoms: N_16  and  C_17
REMARK    7  A    between atoms: C_27  and  N_30
REMARK                            x       y       z     vdW  Elec       q    Type
REMARK                         _______ _______ _______ _____ _____    ______ ____
ROOT
ATOM      1  N   UNL     1      -3.558   1.650   0.341  0.00  0.00    -0.270 N 
ATOM      2  C   UNL     1      -2.393   0.917   0.281  0.00  0.00    +0.169 A 
ATOM      3  N   UNL     1      -2.735  -0.351   0.295  0.00  0.00    -0.128 NA
ATOM      4  N   UNL     1      -4.013  -0.461   0.354  0.00  0.00    -0.122 NA
ATOM      5  C   UNL     1      -4.570   0.730   0.381  0.00  0.00    +0.197 A 
ENDROOT
BRANCH   1   9
ATOM      6  C   UNL     1      -3.925   5.802   0.382  0.00  0.00    +0.000 A 
ATOM      7  C   UNL     1      -4.373   5.081  -0.710  0.00  0.00    +0.002 A 
ATOM      8  C   UNL     1      -4.252   3.705  -0.726  0.00  0.00    +0.026 A 
ATOM      9  C   UNL     1      -3.682   3.046   0.355  0.00  0.00    +0.051 A 
ATOM     10  C   UNL     1      -3.239   3.773   1.452  0.00  0.00    +0.026 A 
ATOM     11  C   UNL     1      -3.357   5.149   1.460  0.00  0.00    +0.002 A 
ENDBRANCH   1   9
BRANCH   2  12
ATOM     12  C   UNL     1      -1.018   1.456   0.218  0.00  0.00    +0.020 A 
ATOM     13  C   UNL     1      -0.802   2.783  -0.159  0.00  0.00    +0.014 A 
ATOM     14  C   UNL     1       0.483   3.281  -0.210  0.00  0.00    +0.033 A 
ATOM     15  C   UNL     1       1.557   2.467   0.105  0.00  0.00    +0.126 A 
ATOM     16  C   UNL     1       1.350   1.150   0.474  0.00  0.00    +0.033 A 
ATOM     17  C   UNL     1       0.070   0.639   0.529  0.00  0.00    +0.014 A 
BRANCH  15  18
ATOM     18  N   UNL     1       2.934   3.009   0.049  0.00  0.00    +0.056 N 
ATOM     19  O   UNL     1       3.119   4.169  -0.275  0.00  0.00    -0.126 OA
ATOM     20  O   UNL     1       3.881   2.295   0.325  0.00  0.00    -0.126 OA
ENDBRANCH  15  18
ENDBRANCH   2  12
BRANCH   5  21
ATOM     21  S   UNL     1      -6.296   1.076   0.461  0.00  0.00    -0.076 S 
BRANCH  21  22
ATOM     22  C   UNL     1      -6.953  -0.611   0.489  0.00  0.00    +0.173 C 
BRANCH  22  23
ATOM     23  C   UNL     1      -8.458  -0.562   0.558  0.00  0.00    +0.227 C 
ATOM     24  O   UNL     1      -9.030   0.508   0.586  0.00  0.00    -0.275 OA
ATOM     25  N   UNL     1      -9.169  -1.706   0.590  0.00  0.00    -0.285 N 
ATOM     26  H   UNL     1      -8.711  -2.560   0.639  0.00  0.00    +0.155 HD
BRANCH  25  27
ATOM     27  C   UNL     1     -10.567  -1.663   0.553  0.00  0.00    +0.033 A 
ATOM     28  C   UNL     1     -11.311  -2.622   1.229  0.00  0.00    +0.025 A 
ATOM     29  C   UNL     1     -12.691  -2.574   1.194  0.00  0.00    +0.022 A 
ATOM     30  C   UNL     1     -13.332  -1.579   0.478  0.00  0.00    +0.041 A 
ATOM     31  C   UNL     1     -12.593  -0.626  -0.201  0.00  0.00    +0.022 A 
ATOM     32  C   UNL     1     -11.213  -0.666  -0.165  0.00  0.00    +0.025 A 
ATOM     33 CL   UNL     1     -15.067  -1.525   0.432  0.00  0.00    -0.084 Cl
ENDBRANCH  25  27
ENDBRANCH  22  23
ENDBRANCH  21  22
ENDBRANCH   5  21
TORSDOF 7
