REMARK  Name = ZINC40192878
REMARK  11 active torsions:
REMARK  status: ('A' for Active; 'I' for Inactive)
REMARK    1  A    between atoms: C_1  and  C_2
REMARK    2  A    between atoms: C_2  and  C_3
REMARK    3  A    between atoms: C_2  and  N_4
REMARK    4  A    between atoms: N_4  and  C_5
REMARK    5  A    between atoms: C_11  and  C_13
REMARK    6  A    between atoms: C_13  and  N_14
REMARK    7  A    between atoms: C_22  and  C_23
REMARK    8  A    between atoms: C_23  and  N_24
REMARK    9  A    between atoms: C_25  and  C_27
REMARK   10  A    between atoms: C_27  and  C_28
REMARK   11  A    between atoms: C_31  and  C_34
REMARK                            x       y       z     vdW  Elec       q    Type
REMARK                         _______ _______ _______ _____ _____    ______ ____
ROOT
ATOM      1  N   UNL     1      -3.025   0.646   2.919  0.00  0.00    -0.317 N 
ATOM      2  C   UNL     1      -4.101   1.511   2.885  0.00  0.00    +0.069 A 
ATOM      3  C   UNL     1      -4.469   2.564   2.058  0.00  0.00    +0.028 A 
ATOM      4  C   UNL     1      -5.641   3.246   2.303  0.00  0.00    +0.002 A 
ATOM      5  C   UNL     1      -6.454   2.888   3.369  0.00  0.00    +0.002 A 
ATOM      6  C   UNL     1      -6.108   1.855   4.193  0.00  0.00    +0.030 A 
ATOM      7  C   UNL     1      -4.924   1.149   3.964  0.00  0.00    +0.089 A 
ATOM      8  N   UNL     1      -4.322   0.104   4.588  0.00  0.00    -0.231 NA
ATOM      9  C   UNL     1      -3.215  -0.194   3.973  0.00  0.00    +0.128 A 
ENDROOT
BRANCH   1  10
ATOM     10  C   UNL     1      -1.893   0.631   1.990  0.00  0.00    +0.219 C 
BRANCH  10  12
ATOM     11  N   UNL     1      -1.273  -0.521  -0.110  0.00  0.00    -0.267 N 
ATOM     12  C   UNL     1      -2.210  -0.275   0.827  0.00  0.00    +0.240 C 
ATOM     13  O   UNL     1      -3.308  -0.781   0.735  0.00  0.00    -0.273 OA
BRANCH  11  14
ATOM     14  C   UNL     1      -1.598  -1.276  -1.242  0.00  0.00    +0.037 A 
ATOM     15  C   UNL     1      -0.681  -1.407  -2.277  0.00  0.00    +0.023 A 
ATOM     16  C   UNL     1      -1.005  -2.153  -3.394  0.00  0.00    +0.002 A 
ATOM     17  C   UNL     1      -2.239  -2.769  -3.481  0.00  0.00    +0.000 A 
ATOM     18  C   UNL     1      -3.154  -2.641  -2.452  0.00  0.00    +0.002 A 
ATOM     19  C   UNL     1      -2.835  -1.901  -1.331  0.00  0.00    +0.023 A 
ENDBRANCH  11  14
BRANCH  11  21
ATOM     20  C   UNL     1       1.090  -1.149  -0.045  0.00  0.00    +0.028 C 
ATOM     21  C   UNL     1       0.086   0.001   0.058  0.00  0.00    +0.075 C 
ATOM     22  C   UNL     1       0.375   1.030  -1.036  0.00  0.00    +0.028 C 
ENDBRANCH  11  21
ENDBRANCH  10  12
ENDBRANCH   1  10
BRANCH   9  23
ATOM     23  C   UNL     1      -2.277  -1.304   4.372  0.00  0.00    +0.178 C 
BRANCH  23  24
ATOM     24  N   UNL     1      -1.287  -0.789   5.321  0.00  0.00    -0.308 N 
ATOM     25  C   UNL     1      -0.340  -1.610   5.818  0.00  0.00    +0.218 C 
ATOM     26  O   UNL     1      -0.308  -2.774   5.479  0.00  0.00    -0.275 OA
ATOM     27  H   UNL     1      -1.313   0.141   5.592  0.00  0.00    +0.149 HD
BRANCH  25  28
ATOM     28  C   UNL     1       0.678  -1.081   6.794  0.00  0.00    +0.130 C 
BRANCH  28  29
ATOM     29  C   UNL     1       1.616  -2.191   7.193  0.00  0.00    -0.039 A 
ATOM     30  C   UNL     1       1.317  -2.988   8.283  0.00  0.00    +0.005 A 
ATOM     31  C   UNL     1       2.172  -4.006   8.653  0.00  0.00    +0.009 A 
ATOM     32  C   UNL     1       3.339  -4.231   7.925  0.00  0.00    -0.018 A 
ATOM     33  C   UNL     1       3.636  -3.425   6.828  0.00  0.00    +0.009 A 
ATOM     34  C   UNL     1       2.771  -2.413   6.464  0.00  0.00    +0.005 A 
BRANCH  32  35
ATOM     35  C   UNL     1       4.263  -5.323   8.318  0.00  0.00    -0.018 A 
ATOM     36  C   UNL     1       3.963  -6.133   9.412  0.00  0.00    +0.008 A 
ATOM     37  C   UNL     1       4.826  -7.148   9.773  0.00  0.00    +0.001 A 
ATOM     38  C   UNL     1       5.986  -7.363   9.051  0.00  0.00    +0.000 A 
ATOM     39  C   UNL     1       6.288  -6.562   7.964  0.00  0.00    +0.001 A 
ATOM     40  C   UNL     1       5.430  -5.548   7.591  0.00  0.00    +0.008 A 
ENDBRANCH  32  35
ENDBRANCH  28  29
ENDBRANCH  25  28
ENDBRANCH  23  24
ENDBRANCH   9  23
TORSDOF 9
