REMARK  Name = ZINC41068035
REMARK  4 active torsions:
REMARK  status: ('A' for Active; 'I' for Inactive)
REMARK    1  A    between atoms: C_9  and  N_11
REMARK    2  A    between atoms: N_11  and  S_12
REMARK    3  A    between atoms: S_12  and  C_15
REMARK    4  A    between atoms: C_17  and  N_20
REMARK                            x       y       z     vdW  Elec       q    Type
REMARK                         _______ _______ _______ _____ _____    ______ ____
ROOT
ATOM      1  N   UNL     1       1.216  -2.082  -0.021  0.00  0.00    -0.097 NA
ENDROOT
BRANCH   1  10
ATOM      2  C   UNL     1      -0.017   1.384   0.010  0.00  0.00    +0.004 A 
ATOM      3  C   UNL     1       1.157   2.102   0.002  0.00  0.00    +0.028 A 
ATOM      4  C   UNL     1       2.381   1.437  -0.013  0.00  0.00    +0.068 A 
ATOM      5  C   UNL     1       2.411   0.031  -0.021  0.00  0.00    +0.044 A 
ATOM      6  C   UNL     1       3.773  -0.352  -0.036  0.00  0.00    +0.144 A 
ATOM      7  N   UNL     1       4.508   0.723  -0.037  0.00  0.00    -0.181 NA
ATOM      8  N   UNL     1       3.687   1.857  -0.023  0.00  0.00    -0.277 N 
ATOM      9  H   UNL     1       3.989   2.779  -0.022  0.00  0.00    +0.189 HD
ATOM     10  C   UNL     1       1.203  -0.688  -0.013  0.00  0.00    +0.085 A 
ATOM     11  C   UNL     1       0.002  -0.004   0.002  0.00  0.00    +0.027 A 
ENDBRANCH   1  10
BRANCH   1  12
ATOM     12  S   UNL     1      -0.211  -2.923  -0.012  0.00  0.00    +0.098 S 
ATOM     13  O   UNL     1      -0.828  -2.662   1.241  0.00  0.00    -0.148 OA
ATOM     14  O   UNL     1      -0.852  -2.648  -1.250  0.00  0.00    -0.148 OA
BRANCH  12  15
ATOM     15  C   UNL     1       0.196  -4.638  -0.026  0.00  0.00    +0.149 A 
ATOM     16  C   UNL     1       0.398  -5.475   1.021  0.00  0.00    +0.059 A 
ATOM     17  C   UNL     1       0.711  -6.801   0.770  0.00  0.00    +0.034 A 
ATOM     18  C   UNL     1       0.806  -7.219  -0.520  0.00  0.00    +0.069 A 
ATOM     19  S   UNL     1       0.441  -5.723  -1.422  0.00  0.00    -0.075 S 
BRANCH  17  20
ATOM     20  N   UNL     1       0.928  -7.699   1.832  0.00  0.00    -0.358 N 
ATOM     21  H   UNL     1       0.858  -7.392   2.749  0.00  0.00    +0.142 HD
ATOM     22  H   UNL     1       1.147  -8.626   1.646  0.00  0.00    +0.142 HD
ENDBRANCH  17  20
ENDBRANCH  12  15
ENDBRANCH   1  12
TORSDOF 4
