REMARK  Name = ZINC10068028
REMARK  14 active torsions:
REMARK  status: ('A' for Active; 'I' for Inactive)
REMARK    1  A    between atoms: C_1  and  C_2
REMARK    2  A    between atoms: C_2  and  C_3
REMARK    3  A    between atoms: C_3  and  C_4
REMARK    4  A    between atoms: C_4  and  N_5
REMARK    5  A    between atoms: N_5  and  C_6
REMARK    6  A    between atoms: N_5  and  S_7
REMARK    7  A    between atoms: S_7  and  C_10
REMARK    8  A    between atoms: C_13  and  C_16
REMARK    9  A    between atoms: N_18  and  C_19
REMARK   10  A    between atoms: C_19  and  C_20
REMARK   11  A    between atoms: C_20  and  C_21
REMARK   12  A    between atoms: C_21  and  N_65
REMARK   13  A    between atoms: C_22  and  N_65
REMARK   14  A    between atoms: C_23  and  N_65
REMARK                            x       y       z     vdW  Elec       q    Type
REMARK                         _______ _______ _______ _____ _____    ______ ____
ROOT
ATOM      1  C   UNL     1       3.969  -1.590  -0.238  0.00  0.00    +0.252 C 
ATOM      2  O   UNL     1       3.213  -2.447   0.175  0.00  0.00    -0.270 OA
ATOM      3  N   UNL     1       3.603  -0.293  -0.199  0.00  0.00    -0.246 N 
ATOM      4  C   UNL     1       2.319   0.052   0.190  0.00  0.00    +0.168 A 
ATOM      5  N   UNL     1       1.330  -0.730   0.553  0.00  0.00    -0.221 NA
ATOM      6  C   UNL     1       0.119  -0.251   0.910  0.00  0.00    +0.115 A 
ATOM      7  C   UNL     1      -1.024  -0.980   1.320  0.00  0.00    +0.150 A 
ATOM      8  C   UNL     1      -2.187  -0.331   1.651  0.00  0.00    +0.040 A 
ATOM      9  C   UNL     1      -2.286   1.052   1.597  0.00  0.00    +0.004 A 
ATOM     10  C   UNL     1      -1.187   1.795   1.206  0.00  0.00    +0.017 A 
ATOM     11  C   UNL     1      -0.020   1.155   0.868  0.00  0.00    +0.044 A 
ATOM     12  S   UNL     1       1.588   1.678   0.323  0.00  0.00    -0.052 S 
ATOM     13  F   UNL     1      -0.969  -2.328   1.385  0.00  0.00    -0.203 F 
ENDROOT
BRANCH   1  17
ATOM     14  C   UNL     1       7.766  -2.678  -1.800  0.00  0.00    +0.106 A 
ATOM     15  C   UNL     1       6.632  -3.357  -2.210  0.00  0.00    +0.029 A 
ATOM     16  C   UNL     1       5.396  -3.008  -1.707  0.00  0.00    +0.015 A 
ATOM     17  C   UNL     1       5.290  -1.969  -0.781  0.00  0.00    +0.037 A 
ATOM     18  C   UNL     1       6.437  -1.284  -0.376  0.00  0.00    +0.015 A 
ATOM     19  C   UNL     1       7.668  -1.647  -0.883  0.00  0.00    +0.029 A 
BRANCH  14  20
ATOM     20  S   UNL     1       9.341  -3.130  -2.447  0.00  0.00    +0.061 S 
ATOM     21  O   UNL     1      10.307  -2.707  -1.496  0.00  0.00    -0.153 OA
ATOM     22  O   UNL     1       9.232  -4.481  -2.873  0.00  0.00    -0.153 OA
BRANCH  20  23
ATOM     23  N   UNL     1       9.588  -2.223  -3.810  0.00  0.00    -0.180 NA
ATOM     24  C   UNL     1      10.246  -0.917  -3.711  0.00  0.00    +0.131 C 
BRANCH  23  25
ATOM     25  C   UNL     1       9.150  -2.725  -5.115  0.00  0.00    +0.109 C 
BRANCH  25  26
ATOM     26  C   UNL     1       7.763  -2.166  -5.437  0.00  0.00    +0.017 C 
BRANCH  26  28
ATOM     27  C   UNL     1       5.918  -2.132  -7.121  0.00  0.00    +0.004 C 
ATOM     28  C   UNL     1       7.305  -2.691  -6.799  0.00  0.00    -0.002 C 
ENDBRANCH  26  28
ENDBRANCH  25  26
ENDBRANCH  23  25
ENDBRANCH  20  23
ENDBRANCH  14  20
ENDBRANCH   1  17
BRANCH   3  29
ATOM     29  C   UNL     1       4.562   0.750  -0.569  0.00  0.00    +0.114 C 
BRANCH  29  30
ATOM     30  C   UNL     1       5.180   1.347   0.697  0.00  0.00    +0.001 C 
BRANCH  30  31
ATOM     31  C   UNL     1       6.282   2.335   0.310  0.00  0.00    -0.078 C 
BRANCH  31  34
ATOM     32  C   UNL     1       8.087   3.675   1.208  0.00  0.00    -0.097 C 
ATOM     33  C   UNL     1       5.901   3.737   2.247  0.00  0.00    -0.097 C 
ATOM     34  N   UNL     1       6.883   2.886   1.543  0.00  0.00    +0.376 N 
ATOM     35  H   UNL     1       7.153   2.110   2.158  0.00  0.00    -0.083 HD
ENDBRANCH  31  34
ENDBRANCH  30  31
ENDBRANCH  29  30
ENDBRANCH   3  29
TORSDOF 10
