REMARK  Name = ZINC34756055
REMARK  6 active torsions:
REMARK  status: ('A' for Active; 'I' for Inactive)
REMARK    1  A    between atoms: C_2  and  C_3
REMARK    2  A    between atoms: C_3  and  S_4
REMARK    3  A    between atoms: S_4  and  C_5
REMARK    4  A    between atoms: N_21  and  C_24
REMARK    5  A    between atoms: C_24  and  C_25
REMARK    6  A    between atoms: N_27  and  C_28
REMARK                            x       y       z     vdW  Elec       q    Type
REMARK                         _______ _______ _______ _____ _____    ______ ____
ROOT
ATOM      1  C   UNL     1      -4.565  -1.989  -1.227  0.00  0.00    +0.191 A 
ATOM      2  N   UNL     1      -4.932  -2.781  -2.228  0.00  0.00    -0.206 NA
ATOM      3  C   UNL     1      -4.603  -4.061  -2.268  0.00  0.00    +0.134 A 
ATOM      4  C   UNL     1      -3.830  -4.615  -1.208  0.00  0.00    +0.051 A 
ATOM      5  C   UNL     1      -3.357  -5.991  -1.043  0.00  0.00    -0.025 A 
ATOM      6  C   UNL     1      -2.635  -6.261   0.062  0.00  0.00    -0.004 A 
ATOM      7  S   UNL     1      -2.541  -4.723   0.940  0.00  0.00    -0.073 S 
ATOM      8  C   UNL     1      -3.476  -3.717  -0.182  0.00  0.00    +0.115 A 
ATOM      9  N   UNL     1      -3.840  -2.450  -0.216  0.00  0.00    -0.215 NA
ATOM     10  C   UNL     1      -2.042  -7.578   0.461  0.00  0.00    +0.043 C 
ATOM     11  C   UNL     1      -2.689  -8.678  -0.392  0.00  0.00    +0.005 C 
ATOM     12  C   UNL     1      -2.672  -8.236  -1.858  0.00  0.00    +0.005 C 
ATOM     13  C   UNL     1      -3.657  -7.085  -2.065  0.00  0.00    +0.037 C 
ATOM     14  N   UNL     1      -5.005  -4.854  -3.328  0.00  0.00    -0.318 N 
ATOM     15  C   UNL     1      -6.230  -5.664  -3.244  0.00  0.00    +0.088 C 
ATOM     16  C   UNL     1      -7.081  -5.390  -4.488  0.00  0.00    -0.059 C 
ATOM     17  N   UNL     1      -6.276  -5.630  -5.693  0.00  0.00    +0.387 N 
ATOM     18  C   UNL     1      -5.166  -4.670  -5.753  0.00  0.00    -0.059 C 
ATOM     19  C   UNL     1      -4.224  -4.905  -4.573  0.00  0.00    +0.088 C 
ATOM     20  H   UNL     1      -5.906  -6.568  -5.667  0.00  0.00    -0.081 HD
ENDROOT
BRANCH   1  21
ATOM     21  S   UNL     1      -5.044  -0.294  -1.246  0.00  0.00    -0.082 S 
BRANCH  21  22
ATOM     22  C   UNL     1      -4.328   0.382   0.278  0.00  0.00    +0.104 C 
BRANCH  22  24
ATOM     23  C   UNL     1      -5.437   2.269   1.358  0.00  0.00    +0.005 C 
ATOM     24  C   UNL     1      -4.667   1.846   0.386  0.00  0.00    -0.023 C 
ENDBRANCH  22  24
ENDBRANCH  21  22
ENDBRANCH   1  21
BRANCH  17  25
ATOM     25  C   UNL     1      -7.122  -5.473  -6.884  0.00  0.00    +0.019 C 
BRANCH  25  26
ATOM     26  C   UNL     1      -6.330  -5.839  -8.113  0.00  0.00    +0.201 C 
ATOM     27  O   UNL     1      -5.176  -6.195  -8.008  0.00  0.00    -0.278 OA
ATOM     28  N   UNL     1      -6.906  -5.770  -9.330  0.00  0.00    -0.287 N 
ATOM     29  H   UNL     1      -7.801  -5.409  -9.423  0.00  0.00    +0.155 HD
BRANCH  28  30
ATOM     30  C   UNL     1      -6.214  -6.220 -10.456  0.00  0.00    +0.041 A 
ATOM     31  C   UNL     1      -5.357  -7.295 -10.362  0.00  0.00    +0.024 A 
ATOM     32  C   UNL     1      -4.662  -7.751 -11.479  0.00  0.00    +0.002 A 
ATOM     33  C   UNL     1      -4.809  -7.150 -12.691  0.00  0.00    +0.008 A 
ATOM     34  C   UNL     1      -5.673  -6.050 -12.830  0.00  0.00    -0.016 A 
ATOM     35  C   UNL     1      -6.389  -5.580 -11.702  0.00  0.00    +0.003 A 
ATOM     36  C   UNL     1      -7.255  -4.484 -11.842  0.00  0.00    +0.010 A 
ATOM     37  C   UNL     1      -7.400  -3.892 -13.060  0.00  0.00    +0.001 A 
ATOM     38  C   UNL     1      -6.700  -4.357 -14.171  0.00  0.00    +0.001 A 
ATOM     39  C   UNL     1      -5.843  -5.410 -14.069  0.00  0.00    +0.008 A 
ENDBRANCH  28  30
ENDBRANCH  25  26
ENDBRANCH  17  25
TORSDOF 6
