REMARK  Name = ZINC09969675
REMARK  21 active torsions:
REMARK  status: ('A' for Active; 'I' for Inactive)
REMARK    1  A    between atoms: C_1  and  C_2
REMARK    2  A    between atoms: C_2  and  C_38
REMARK    3  A    between atoms: C_6  and  C_7
REMARK    4  A    between atoms: C_6  and  C_8
REMARK    5  A    between atoms: C_9  and  C_36
REMARK    6  A    between atoms: C_9  and  O_37
REMARK    7  A    between atoms: N_10  and  C_14
REMARK    8  A    between atoms: C_14  and  C_15
REMARK    9  A    between atoms: C_15  and  N_16
REMARK   10  A    between atoms: C_17  and  C_19
REMARK   11  A    between atoms: C_19  and  C_20
REMARK   12  A    between atoms: C_20  and  C_21
REMARK   13  A    between atoms: C_23  and  C_32
REMARK   14  A    between atoms: C_24  and  O_31
REMARK   15  A    between atoms: C_25  and  C_27
REMARK   16  A    between atoms: C_27  and  C_28
REMARK   17  A    between atoms: C_27  and  C_29
REMARK   18  A    between atoms: C_27  and  C_30
REMARK   19  A    between atoms: C_32  and  C_33
REMARK   20  A    between atoms: C_32  and  C_34
REMARK   21  A    between atoms: C_32  and  C_35
REMARK                            x       y       z     vdW  Elec       q    Type
REMARK                         _______ _______ _______ _____ _____    ______ ____
ROOT
ATOM      1  C   UNL     1       4.966  -5.497   2.881  0.00  0.00    +0.123 C 
ENDROOT
BRANCH   1   2
ATOM      2  N   UNL     1       3.765  -4.672   3.033  0.00  0.00    -0.314 N 
ATOM      3  C   UNL     1       3.874  -3.330   3.102  0.00  0.00    +0.213 C 
ATOM      4  O   UNL     1       4.965  -2.806   3.037  0.00  0.00    -0.276 OA
ATOM      5  H   UNL     1       2.892  -5.091   3.085  0.00  0.00    +0.149 HD
BRANCH   3   6
ATOM      6  C   UNL     1       2.638  -2.482   3.259  0.00  0.00    +0.100 C 
BRANCH   6   7
ATOM      7  C   UNL     1       3.037  -1.006   3.310  0.00  0.00    +0.044 C 
BRANCH   7   8
ATOM      8  C   UNL     1       1.802  -0.157   3.466  0.00  0.00    -0.046 A 
ATOM      9  C   UNL     1       1.340   0.163   4.730  0.00  0.00    +0.011 A 
ATOM     10  C   UNL     1       0.207   0.941   4.876  0.00  0.00    -0.000 A 
ATOM     11  C   UNL     1      -0.466   1.402   3.754  0.00  0.00    +0.124 A 
ATOM     12  C   UNL     1       0.000   1.080   2.488  0.00  0.00    -0.000 A 
ATOM     13  C   UNL     1       1.129   0.297   2.347  0.00  0.00    +0.011 A 
BRANCH  12  14
ATOM     14  C   UNL     1      -0.729   1.579   1.267  0.00  0.00    -0.009 C 
ATOM     15  C   UNL     1      -0.013   1.086   0.008  0.00  0.00    +0.015 C 
ATOM     16  C   UNL     1      -0.750   3.109   1.275  0.00  0.00    +0.015 C 
ATOM     17  C   UNL     1      -2.164   1.050   1.278  0.00  0.00    +0.015 C 
ENDBRANCH  12  14
BRANCH  10  18
ATOM     18  C   UNL     1      -0.296   1.288   6.253  0.00  0.00    -0.009 C 
ATOM     19  C   UNL     1       0.621   0.659   7.305  0.00  0.00    +0.015 C 
ATOM     20  C   UNL     1      -0.303   2.808   6.426  0.00  0.00    +0.015 C 
ATOM     21  C   UNL     1      -1.717   0.748   6.428  0.00  0.00    +0.015 C 
ENDBRANCH  10  18
BRANCH  11  22
ATOM     22  O   UNL     1      -1.580   2.167   3.896  0.00  0.00    -0.506 OA
ATOM     23  H   UNL     1      -2.402   1.661   3.937  0.00  0.00    +0.292 HD
ENDBRANCH  11  22
ENDBRANCH   7   8
ENDBRANCH   6   7
ENDBRANCH   3   6
ENDBRANCH   1   2
BRANCH   1  24
ATOM     24  C   UNL     1       4.568  -6.973   2.830  0.00  0.00    +0.132 C 
BRANCH  24  34
ATOM     25  C   UNL     1      10.334  -8.759   1.305  0.00  0.00    -0.010 C 
ATOM     26  C   UNL     1      10.215  -9.181   2.774  0.00  0.00    -0.070 C 
ATOM     27  C   UNL     1       9.043  -8.461   3.432  0.00  0.00    +0.040 C 
ATOM     28  C   UNL     1       7.708  -9.106   3.071  0.00  0.00    +0.158 C 
ATOM     29  C   UNL     1       7.723 -10.579   3.438  0.00  0.00    +0.040 C 
ATOM     30  C   UNL     1       8.885 -11.312   2.763  0.00  0.00    -0.070 C 
ATOM     31  C   UNL     1       8.551 -11.581   1.292  0.00  0.00    -0.010 C 
ATOM     32  C   UNL     1       9.017 -12.689   3.455  0.00  0.00    -0.010 C 
ATOM     33  C   UNL     1       6.574  -8.350   3.782  0.00  0.00    +0.175 C 
ATOM     34  N   UNL     1       5.769  -7.798   2.677  0.00  0.00    -0.234 N 
ATOM     35  C   UNL     1       6.315  -8.177   1.515  0.00  0.00    +0.406 C 
ATOM     36  O   UNL     1       5.854  -7.873   0.432  0.00  0.00    -0.226 OA
ATOM     37  O   UNL     1       7.416  -8.922   1.659  0.00  0.00    -0.439 OA
ATOM     38  C   UNL     1       5.713  -9.263   4.653  0.00  0.00    +0.068 C 
ATOM     39  C   UNL     1      11.505  -8.703   3.483  0.00  0.00    -0.010 C 
ATOM     40  N   UNL     1      10.213 -10.662   2.916  0.00  0.00    +0.386 N 
ATOM     41  H   UNL     1      10.573 -10.892   3.850  0.00  0.00    -0.084 HD
ATOM     42  H   UNL     1      10.840 -11.050   2.202  0.00  0.00    -0.084 HD
BRANCH  33  43
ATOM     43  O   UNL     1       7.107  -7.280   4.573  0.00  0.00    -0.368 OA
ATOM     44  H   UNL     1       6.434  -6.724   4.988  0.00  0.00    +0.212 HD
ENDBRANCH  33  43
ENDBRANCH  24  34
ENDBRANCH   1  24
TORSDOF 10
