REMARK  Name = ZINC53968815
REMARK  8 active torsions:
REMARK  status: ('A' for Active; 'I' for Inactive)
REMARK    1  A    between atoms: C_1  and  C_2
REMARK    2  A    between atoms: C_2  and  C_3
REMARK    3  A    between atoms: C_3  and  C_5
REMARK    4  A    between atoms: C_3  and  C_6
REMARK    5  A    between atoms: C_6  and  C_8
REMARK    6  A    between atoms: C_6  and  N_18
REMARK    7  A    between atoms: N_10  and  C_11
REMARK    8  A    between atoms: C_11  and  C_12
REMARK                            x       y       z     vdW  Elec       q    Type
REMARK                         _______ _______ _______ _____ _____    ______ ____
ROOT
ATOM      1  C   UNL     1       0.714  -2.042  -1.518  0.00  0.00    +0.163 C 
ENDROOT
BRANCH   1   2
ATOM      2  N   UNL     1      -0.556  -2.496  -2.089  0.00  0.00    -0.288 N 
ATOM      3  C   UNL     1      -1.001  -3.743  -1.839  0.00  0.00    +0.298 C 
ATOM      4  O   UNL     1      -0.305  -4.523  -1.217  0.00  0.00    -0.253 OA
ATOM      5  N   UNL     1      -2.216  -4.127  -2.278  0.00  0.00    -0.313 N 
ATOM      6  H   UNL     1      -1.078  -1.898  -2.647  0.00  0.00    +0.151 HD
ATOM      7  H   UNL     1      -2.771  -3.505  -2.774  0.00  0.00    +0.146 HD
ATOM      8  H   UNL     1      -2.536  -5.024  -2.098  0.00  0.00    +0.146 HD
ENDBRANCH   1   2
BRANCH   1   9
ATOM      9  C   UNL     1       1.848  -2.467  -2.415  0.00  0.00    +0.234 C 
ATOM     10  O   UNL     1       1.631  -2.752  -3.574  0.00  0.00    -0.274 OA
ATOM     11  N   UNL     1       3.104  -2.531  -1.930  0.00  0.00    -0.309 N 
ATOM     12  H   UNL     1       3.278  -2.303  -1.004  0.00  0.00    +0.149 HD
BRANCH  11  13
ATOM     13  C   UNL     1       4.206  -2.944  -2.802  0.00  0.00    +0.146 C 
BRANCH  13  14
ATOM     14  C   UNL     1       5.495  -2.931  -2.022  0.00  0.00    +0.008 A 
ATOM     15  C   UNL     1       6.071  -3.930  -1.309  0.00  0.00    +0.028 A 
ATOM     16  C   UNL     1       7.271  -3.689  -0.666  0.00  0.00    +0.025 A 
ATOM     17  C   UNL     1       7.837  -2.461  -0.769  0.00  0.00    +0.060 A 
ATOM     18  S   UNL     1       6.665  -1.600  -1.805  0.00  0.00    -0.099 S 
ATOM     19 BR   UNL     1       8.111  -5.051   0.341  0.00  0.00    -0.050 Br
ENDBRANCH  13  14
ENDBRANCH  11  13
ENDBRANCH   1   9
BRANCH   1  20
ATOM     20  C   UNL     1       0.704  -0.517  -1.397  0.00  0.00    +0.015 C 
ATOM     21  C   UNL     1       0.495   0.103  -2.780  0.00  0.00    +0.010 C 
BRANCH  20  23
ATOM     22  C   UNL     1      -0.368   1.426  -0.248  0.00  0.00    +0.004 C 
ATOM     23  C   UNL     1      -0.434  -0.087  -0.469  0.00  0.00    +0.002 C 
ENDBRANCH  20  23
ENDBRANCH   1  20
TORSDOF 6
