REMARK  Name = ZINC59791675
REMARK  9 active torsions:
REMARK  status: ('A' for Active; 'I' for Inactive)
REMARK    1  A    between atoms: C_4  and  N_7
REMARK    2  A    between atoms: C_8  and  C_28
REMARK    3  A    between atoms: C_11  and  S_12
REMARK    4  A    between atoms: S_12  and  C_13
REMARK    5  A    between atoms: C_13  and  C_14
REMARK    6  A    between atoms: C_14  and  C_15
REMARK    7  A    between atoms: N_17  and  C_18
REMARK    8  A    between atoms: C_21  and  C_24
REMARK    9  A    between atoms: C_31  and  N_34
REMARK                            x       y       z     vdW  Elec       q    Type
REMARK                         _______ _______ _______ _____ _____    ______ ____
ROOT
ATOM      1  N   UNL     1       3.223  -1.008   0.390  0.00  0.00    -0.270 N 
ATOM      2  C   UNL     1       3.550  -2.049  -0.453  0.00  0.00    +0.169 A 
ATOM      3  N   UNL     1       4.708  -2.519  -0.052  0.00  0.00    -0.128 NA
ATOM      4  N   UNL     1       5.123  -1.857   0.967  0.00  0.00    -0.122 NA
ATOM      5  C   UNL     1       4.259  -0.916   1.278  0.00  0.00    +0.196 A 
ENDROOT
BRANCH   1   9
ATOM      6  C   UNL     1      -0.197   1.371   0.249  0.00  0.00    +0.000 A 
ATOM      7  C   UNL     1       1.038   1.920  -0.044  0.00  0.00    +0.002 A 
ATOM      8  C   UNL     1       2.173   1.134   0.002  0.00  0.00    +0.026 A 
ATOM      9  C   UNL     1       2.073  -0.208   0.343  0.00  0.00    +0.051 A 
ATOM     10  C   UNL     1       0.832  -0.756   0.636  0.00  0.00    +0.026 A 
ATOM     11  C   UNL     1      -0.299   0.035   0.589  0.00  0.00    +0.002 A 
ENDBRANCH   1   9
BRANCH   2  12
ATOM     12  C   UNL     1       2.747  -2.542  -1.592  0.00  0.00    +0.020 A 
ATOM     13  C   UNL     1       1.742  -1.742  -2.140  0.00  0.00    +0.014 A 
ATOM     14  C   UNL     1       0.997  -2.208  -3.203  0.00  0.00    +0.033 A 
ATOM     15  C   UNL     1       1.243  -3.465  -3.726  0.00  0.00    +0.126 A 
ATOM     16  C   UNL     1       2.237  -4.263  -3.188  0.00  0.00    +0.033 A 
ATOM     17  C   UNL     1       2.995  -3.806  -2.129  0.00  0.00    +0.014 A 
BRANCH  15  18
ATOM     18  N   UNL     1       0.439  -3.959  -4.867  0.00  0.00    +0.056 N 
ATOM     19  O   UNL     1      -0.431  -3.265  -5.339  0.00  0.00    -0.126 OA
ATOM     20  O   UNL     1       0.652  -5.058  -5.326  0.00  0.00    -0.126 OA
ENDBRANCH  15  18
ENDBRANCH   2  12
BRANCH   5  21
ATOM     21  S   UNL     1       4.406   0.243   2.597  0.00  0.00    -0.085 S 
BRANCH  21  22
ATOM     22  C   UNL     1       5.990  -0.175   3.375  0.00  0.00    +0.086 C 
BRANCH  22  23
ATOM     23  C   UNL     1       6.245   0.768   4.552  0.00  0.00    +0.107 C 
BRANCH  23  24
ATOM     24  C   UNL     1       7.561   0.421   5.199  0.00  0.00    +0.218 C 
ATOM     25  O   UNL     1       8.230  -0.491   4.761  0.00  0.00    -0.275 OA
ATOM     26  N   UNL     1       7.996   1.125   6.263  0.00  0.00    -0.285 N 
ATOM     27  H   UNL     1       7.431   1.808   6.657  0.00  0.00    +0.155 HD
BRANCH  26  28
ATOM     28  C   UNL     1       9.262   0.869   6.801  0.00  0.00    +0.033 A 
ATOM     29  C   UNL     1       9.477   1.000   8.167  0.00  0.00    +0.024 A 
ATOM     30  C   UNL     1      10.728   0.748   8.694  0.00  0.00    +0.014 A 
ATOM     31  C   UNL     1      11.766   0.364   7.865  0.00  0.00    +0.055 A 
ATOM     32  C   UNL     1      11.555   0.233   6.504  0.00  0.00    +0.014 A 
ATOM     33  C   UNL     1      10.305   0.478   5.971  0.00  0.00    +0.024 A 
BRANCH  31  34
ATOM     34  C   UNL     1      13.130   0.089   8.444  0.00  0.00    +0.417 C 
ATOM     35  F   UNL     1      13.223  -1.261   8.797  0.00  0.00    -0.166 F 
ATOM     36  F   UNL     1      14.110   0.391   7.492  0.00  0.00    -0.166 F 
ATOM     37  F   UNL     1      13.322   0.882   9.580  0.00  0.00    -0.166 F 
ENDBRANCH  31  34
ENDBRANCH  26  28
ENDBRANCH  23  24
ENDBRANCH  22  23
ENDBRANCH  21  22
ENDBRANCH   5  21
TORSDOF 9
