REMARK  Name = ZINC34771125
REMARK  10 active torsions:
REMARK  status: ('A' for Active; 'I' for Inactive)
REMARK    1  A    between atoms: C_1  and  C_2
REMARK    2  A    between atoms: N_8  and  C_9
REMARK    3  A    between atoms: C_9  and  C_10
REMARK    4  A    between atoms: C_10  and  C_11
REMARK    5  A    between atoms: C_11  and  N_12
REMARK    6  A    between atoms: C_13  and  C_15
REMARK    7  A    between atoms: C_15  and  S_16
REMARK    8  A    between atoms: S_16  and  C_17
REMARK    9  A    between atoms: C_28  and  C_31
REMARK   10  A    between atoms: C_32  and  C_34
REMARK                            x       y       z     vdW  Elec       q    Type
REMARK                         _______ _______ _______ _____ _____    ______ ____
ROOT
ATOM      1  C   UNL     1       9.197  -0.118   6.811  0.00  0.00    +0.192 A 
ATOM      2  N   UNL     1      10.427   0.241   7.148  0.00  0.00    -0.207 NA
ATOM      3  C   UNL     1      10.884   0.023   8.377  0.00  0.00    +0.127 A 
ATOM      4  C   UNL     1      10.048  -0.590   9.312  0.00  0.00    +0.083 A 
ATOM      5  C   UNL     1       8.771  -0.949   8.920  0.00  0.00    +0.135 A 
ATOM      6  N   UNL     1       8.379  -0.697   7.678  0.00  0.00    -0.210 NA
ATOM      7 CL   UNL     1       7.691  -1.715  10.043  0.00  0.00    -0.062 Cl
ATOM      8  N   UNL     1      12.171   0.400   8.726  0.00  0.00    -0.312 N 
ATOM      9  C   UNL     1      12.970   1.249   7.831  0.00  0.00    +0.125 C 
ATOM     10  C   UNL     1      14.296   0.537   7.534  0.00  0.00    +0.127 C 
ATOM     11  N   UNL     1      14.886   0.094   8.805  0.00  0.00    -0.295 N 
ATOM     12  C   UNL     1      14.087  -0.755   9.699  0.00  0.00    +0.090 C 
ATOM     13  C   UNL     1      12.759  -0.038   9.999  0.00  0.00    +0.128 C 
ATOM     14  C   UNL     1      13.811  -2.099   9.021  0.00  0.00    +0.029 C 
ATOM     15  C   UNL     1      16.138   0.460   9.144  0.00  0.00    +0.219 C 
ATOM     16  O   UNL     1      16.615   0.089  10.195  0.00  0.00    -0.275 OA
ENDROOT
BRANCH  15  17
ATOM     17  C   UNL     1      16.946   1.331   8.216  0.00  0.00    +0.075 C 
ATOM     18  C   UNL     1      17.189   0.598   6.881  0.00  0.00    +0.013 C 
ATOM     19  C   UNL     1      18.628   1.008   6.479  0.00  0.00    +0.001 C 
ATOM     20  C   UNL     1      19.369   1.031   7.839  0.00  0.00    +0.001 C 
ATOM     21  C   UNL     1      18.332   1.607   8.825  0.00  0.00    +0.013 C 
ENDBRANCH  15  17
BRANCH   1  22
ATOM     22  S   UNL     1       8.631   0.190   5.171  0.00  0.00    -0.077 S 
BRANCH  22  23
ATOM     23  C   UNL     1       6.931  -0.444   5.167  0.00  0.00    +0.173 C 
BRANCH  23  25
ATOM     24  N   UNL     1       5.057  -0.637   3.564  0.00  0.00    -0.315 N 
ATOM     25  C   UNL     1       6.323  -0.240   3.803  0.00  0.00    +0.223 C 
ATOM     26  O   UNL     1       6.971   0.281   2.921  0.00  0.00    -0.275 OA
ATOM     27  H   UNL     1       4.538  -1.054   4.270  0.00  0.00    +0.149 HD
BRANCH  24  28
ATOM     28  C   UNL     1       4.465  -0.439   2.239  0.00  0.00    +0.102 C 
BRANCH  28  29
ATOM     29  C   UNL     1       3.031  -0.973   2.236  0.00  0.00    +0.000 C 
BRANCH  29  30
ATOM     30  C   UNL     1       2.413  -0.766   0.851  0.00  0.00    -0.077 C 
BRANCH  30  37
ATOM     31  C   UNL     1       0.460   0.536  -0.690  0.00  0.00    -0.013 C 
ATOM     32  C   UNL     1       0.405  -0.973  -0.441  0.00  0.00    -0.072 C 
ATOM     33  C   UNL     1      -1.054  -1.433  -0.420  0.00  0.00    -0.016 C 
ATOM     34  C   UNL     1      -1.104  -2.943  -0.171  0.00  0.00    -0.003 C 
ATOM     35  C   UNL     1      -0.377  -3.259   1.139  0.00  0.00    -0.019 C 
ATOM     36  C   UNL     1       1.057  -2.731   1.060  0.00  0.00    -0.078 C 
ATOM     37  N   UNL     1       1.037  -1.279   0.848  0.00  0.00    +0.381 N 
ATOM     38  H   UNL     1       0.514  -0.839   1.590  0.00  0.00    -0.081 HD
ENDBRANCH  30  37
ENDBRANCH  29  30
ENDBRANCH  28  29
ENDBRANCH  24  28
ENDBRANCH  23  25
ENDBRANCH  22  23
ENDBRANCH   1  22
TORSDOF 8
