REMARK  Name = ZINC36494094
REMARK  14 active torsions:
REMARK  status: ('A' for Active; 'I' for Inactive)
REMARK    1  A    between atoms: C_1  and  C_2
REMARK    2  A    between atoms: C_2  and  C_3
REMARK    3  A    between atoms: C_3  and  C_4
REMARK    4  A    between atoms: C_4  and  N_5
REMARK    5  A    between atoms: C_6  and  C_8
REMARK    6  A    between atoms: C_8  and  C_10
REMARK    7  A    between atoms: C_8  and  N_17
REMARK    8  A    between atoms: C_13  and  C_16
REMARK    9  A    between atoms: N_17  and  C_18
REMARK   10  A    between atoms: C_18  and  C_19
REMARK   11  A    between atoms: C_24  and  C_26
REMARK   12  A    between atoms: C_32  and  O_34
REMARK   13  A    between atoms: O_34  and  C_35
REMARK   14  A    between atoms: C_35  and  C_36
REMARK                            x       y       z     vdW  Elec       q    Type
REMARK                         _______ _______ _______ _____ _____    ______ ____
ROOT
ATOM      1  N   UNL     1       2.294  -5.798   3.758  0.00  0.00    -0.277 N 
ATOM      2  C   UNL     1       1.886  -6.458   4.860  0.00  0.00    +0.237 C 
ATOM      3  O   UNL     1       1.364  -5.852   5.772  0.00  0.00    -0.274 OA
ENDROOT
BRANCH   2   4
ATOM      4  C   UNL     1       2.080  -7.949   4.960  0.00  0.00    +0.165 C 
ATOM      5  C   UNL     1       0.968  -8.677   4.176  0.00  0.00    +0.033 C 
ATOM      6  C   UNL     1       0.655  -9.903   5.073  0.00  0.00    +0.021 C 
ATOM      7  C   UNL     1       0.839  -9.306   6.490  0.00  0.00    +0.112 C 
ATOM      8  N   UNL     1       1.978  -8.374   6.364  0.00  0.00    -0.256 N 
ATOM      9  C   UNL     1       2.788  -7.978   7.365  0.00  0.00    +0.404 C 
ATOM     10  O   UNL     1       3.697  -7.204   7.141  0.00  0.00    -0.226 OA
BRANCH   9  11
ATOM     11  O   UNL     1       2.590  -8.441   8.614  0.00  0.00    -0.445 OA
BRANCH  11  12
ATOM     12  C   UNL     1       3.487  -7.979   9.627  0.00  0.00    +0.269 C 
BRANCH  12  13
ATOM     13  C   UNL     1       3.113  -8.598  10.949  0.00  0.00    -0.010 A 
ATOM     14  C   UNL     1       2.208  -7.963  11.778  0.00  0.00    +0.007 A 
ATOM     15  C   UNL     1       1.866  -8.531  12.991  0.00  0.00    +0.000 A 
ATOM     16  C   UNL     1       2.428  -9.735  13.374  0.00  0.00    +0.000 A 
ATOM     17  C   UNL     1       3.332 -10.370  12.544  0.00  0.00    +0.000 A 
ATOM     18  C   UNL     1       3.671  -9.804  11.329  0.00  0.00    +0.007 A 
ENDBRANCH  12  13
ENDBRANCH  11  12
ENDBRANCH   9  11
ENDBRANCH   2   4
BRANCH   1  19
ATOM     19  C   UNL     1       2.106  -4.348   3.661  0.00  0.00    +0.193 C 
BRANCH  19  20
ATOM     20  C   UNL     1       2.702  -3.682   4.874  0.00  0.00    -0.018 A 
ATOM     21  C   UNL     1       3.944  -4.075   5.338  0.00  0.00    +0.006 A 
ATOM     22  C   UNL     1       4.491  -3.464   6.451  0.00  0.00    +0.004 A 
ATOM     23  C   UNL     1       3.798  -2.459   7.099  0.00  0.00    -0.050 A 
ATOM     24  C   UNL     1       2.557  -2.065   6.634  0.00  0.00    +0.004 A 
ATOM     25  C   UNL     1       2.011  -2.674   5.519  0.00  0.00    +0.006 A 
ATOM     26  C   UNL     1       4.394  -1.794   8.312  0.00  0.00    +0.044 C 
ENDBRANCH  19  20
BRANCH  19  28
ATOM     27  N   UNL     1       2.139  -2.989   1.595  0.00  0.00    -0.313 N 
ATOM     28  C   UNL     1       2.788  -3.835   2.419  0.00  0.00    +0.238 C 
ATOM     29  O   UNL     1       3.921  -4.183   2.162  0.00  0.00    -0.273 OA
ATOM     30  H   UNL     1       1.233  -2.711   1.800  0.00  0.00    +0.149 HD
BRANCH  27  31
ATOM     31  C   UNL     1       2.802  -2.490   0.387  0.00  0.00    +0.104 C 
BRANCH  31  32
ATOM     32  C   UNL     1       1.854  -1.555  -0.366  0.00  0.00    +0.018 C 
BRANCH  32  34
ATOM     33  C   UNL     1       1.598  -0.099  -2.380  0.00  0.00    +0.004 C 
ATOM     34  C   UNL     1       2.546  -1.034  -1.627  0.00  0.00    -0.002 C 
ENDBRANCH  32  34
ENDBRANCH  31  32
ENDBRANCH  27  31
ENDBRANCH  19  28
ENDBRANCH   1  19
BRANCH   1  35
ATOM     35  C   UNL     1       2.925  -6.530   2.657  0.00  0.00    +0.183 C 
BRANCH  35  36
ATOM     36  C   UNL     1       4.378  -6.764   2.978  0.00  0.00    +0.122 A 
ATOM     37  C   UNL     1       4.895  -7.883   3.517  0.00  0.00    +0.046 A 
ATOM     38  C   UNL     1       6.287  -7.672   3.645  0.00  0.00    +0.041 A 
ATOM     39  C   UNL     1       6.538  -6.436   3.176  0.00  0.00    +0.195 A 
ATOM     40  O   UNL     1       5.379  -5.893   2.768  0.00  0.00    -0.466 OA
ENDBRANCH  35  36
ENDBRANCH   1  35
TORSDOF 12
