REMARK  Name = ZINC10775609
REMARK  6 active torsions:
REMARK  status: ('A' for Active; 'I' for Inactive)
REMARK    1  A    between atoms: C_1  and  N_54
REMARK    2  A    between atoms: C_7  and  N_12
REMARK    3  A    between atoms: C_8  and  C_9
REMARK    4  A    between atoms: C_13  and  C_15
REMARK    5  A    between atoms: N_21  and  S_22
REMARK    6  A    between atoms: S_22  and  C_25
REMARK                            x       y       z     vdW  Elec       q    Type
REMARK                         _______ _______ _______ _____ _____    ______ ____
ROOT
ATOM      1  N   UNL     1      -2.296   1.171   3.806  0.00  0.00    -0.278 N 
ATOM      2  C   UNL     1      -2.809   1.422   2.585  0.00  0.00    +0.236 C 
ATOM      3  O   UNL     1      -3.838   2.054   2.478  0.00  0.00    -0.274 OA
ATOM      4  H   UNL     1      -1.472   0.665   3.891  0.00  0.00    +0.155 HD
ENDROOT
BRANCH   1  11
ATOM      5  C   UNL     1      -6.324   3.744   9.893  0.00  0.00    -0.096 C 
ATOM      6  C   UNL     1      -4.037   3.082   9.453  0.00  0.00    -0.074 C 
ATOM      7  C   UNL     1      -3.188   2.001   8.778  0.00  0.00    +0.018 C 
ATOM      8  C   UNL     1      -3.437   2.071   7.276  0.00  0.00    -0.027 A 
ATOM      9  C   UNL     1      -4.525   2.718   6.798  0.00  0.00    -0.021 A 
ATOM     10  S   UNL     1      -4.413   2.551   5.041  0.00  0.00    -0.079 S 
ATOM     11  C   UNL     1      -2.945   1.635   4.940  0.00  0.00    +0.084 A 
ATOM     12  C   UNL     1      -2.579   1.475   6.270  0.00  0.00    +0.068 A 
ATOM     13  C   UNL     1      -5.574   3.411   7.609  0.00  0.00    -0.036 C 
ATOM     14  N   UNL     1      -5.441   2.949   9.013  0.00  0.00    +0.381 N 
ATOM     15  H   UNL     1      -5.716   1.962   9.068  0.00  0.00    -0.082 HD
BRANCH  12  16
ATOM     16  C   UNL     1      -1.368   0.736   6.643  0.00  0.00    +0.244 C 
ATOM     17  O   UNL     1      -0.307   1.322   6.752  0.00  0.00    -0.270 OA
ATOM     18  N   UNL     1      -1.431  -0.592   6.865  0.00  0.00    -0.325 N 
ATOM     19  H   UNL     1      -2.277  -1.058   6.778  0.00  0.00    +0.145 HD
ATOM     20  H   UNL     1      -0.630  -1.081   7.111  0.00  0.00    +0.145 HD
ENDBRANCH  12  16
ENDBRANCH   1  11
BRANCH   2  21
ATOM     21  C   UNL     1      -2.104   0.916   1.353  0.00  0.00    +0.166 C 
ATOM     22  C   UNL     1      -1.652   2.103   0.497  0.00  0.00    +0.030 C 
ATOM     23  C   UNL     1      -1.062   1.585  -0.817  0.00  0.00    +0.003 C 
ATOM     24  C   UNL     1      -2.134   0.812  -1.589  0.00  0.00    +0.017 C 
ATOM     25  C   UNL     1      -2.591  -0.390  -0.756  0.00  0.00    +0.110 C 
ATOM     26  N   UNL     1      -3.025   0.087   0.564  0.00  0.00    -0.164 NA
BRANCH  26  27
ATOM     27  S   UNL     1      -4.523  -0.302   1.151  0.00  0.00    +0.068 S 
ATOM     28  O   UNL     1      -4.913  -1.506   0.503  0.00  0.00    -0.152 OA
ATOM     29  O   UNL     1      -4.448  -0.188   2.565  0.00  0.00    -0.152 OA
BRANCH  27  30
ATOM     30  C   UNL     1      -5.638   0.948   0.603  0.00  0.00    +0.144 A 
ATOM     31  C   UNL     1      -6.374   0.996  -0.534  0.00  0.00    +0.038 A 
ATOM     32  C   UNL     1      -7.191   2.089  -0.758  0.00  0.00    +0.030 A 
ATOM     33  C   UNL     1      -7.231   3.080   0.167  0.00  0.00    +0.080 A 
ATOM     34  S   UNL     1      -6.096   2.475   1.405  0.00  0.00    -0.057 S 
ATOM     35 CL   UNL     1      -8.152   4.551   0.153  0.00  0.00    -0.076 Cl
ENDBRANCH  27  30
ENDBRANCH  26  27
ENDBRANCH   2  21
TORSDOF 5
