REMARK  Name = ZINC58343070
REMARK  4 active torsions:
REMARK  status: ('A' for Active; 'I' for Inactive)
REMARK    1  A    between atoms: C_6  and  C_7
REMARK    2  A    between atoms: C_9  and  C_12
REMARK    3  A    between atoms: N_17  and  C_19
REMARK    4  A    between atoms: C_19  and  C_20
REMARK                            x       y       z     vdW  Elec       q    Type
REMARK                         _______ _______ _______ _____ _____    ______ ____
ROOT
ATOM      1  C   UNL     1      -3.170  -3.859   0.020  0.00  0.00    +0.061 C 
ATOM      2  C   UNL     1      -4.018  -4.086   1.275  0.00  0.00    +0.009 C 
ATOM      3  C   UNL     1      -4.614  -5.496   1.229  0.00  0.00    -0.018 C 
ATOM      4  C   UNL     1      -5.427  -5.657  -0.058  0.00  0.00    -0.078 C 
ATOM      5  N   UNL     1      -4.555  -5.454  -1.221  0.00  0.00    +0.386 N 
ATOM      6  C   UNL     1      -4.036  -4.081  -1.222  0.00  0.00    -0.065 C 
ATOM      7  H   UNL     1      -3.784  -6.104  -1.179  0.00  0.00    -0.081 HD
ENDROOT
BRANCH   1  10
ATOM      8  C   UNL     1      -1.272  -0.765   0.011  0.00  0.00    +0.202 A 
ATOM      9  N   UNL     1      -1.384  -2.106   0.010  0.00  0.00    -0.191 NA
ATOM     10  C   UNL     1      -2.641  -2.448   0.019  0.00  0.00    +0.229 A 
ATOM     11  O   UNL     1      -3.384  -1.333   0.026  0.00  0.00    -0.337 OA
ATOM     12  N   UNL     1      -2.474  -0.244   0.026  0.00  0.00    -0.056 NA
BRANCH   8  18
ATOM     13  C   UNL     1      -0.017   1.389   0.010  0.00  0.00    +0.014 A 
ATOM     14  C   UNL     1       1.170   2.093   0.002  0.00  0.00    +0.039 A 
ATOM     15  C   UNL     1       2.379   1.417  -0.013  0.00  0.00    +0.123 A 
ATOM     16  C   UNL     1       2.402   0.031  -0.021  0.00  0.00    +0.039 A 
ATOM     17  C   UNL     1       1.220  -0.680  -0.013  0.00  0.00    +0.014 A 
ATOM     18  C   UNL     1       0.002  -0.004   0.002  0.00  0.00    +0.023 A 
ATOM     19  F   UNL     1       3.538   2.110  -0.022  0.00  0.00    -0.205 F 
ENDBRANCH   8  18
ENDBRANCH   1  10
BRANCH   5  20
ATOM     20  C   UNL     1      -5.322  -5.687  -2.452  0.00  0.00    +0.019 C 
BRANCH  20  21
ATOM     21  C   UNL     1      -5.743  -7.132  -2.516  0.00  0.00    +0.204 C 
ATOM     22  O   UNL     1      -5.435  -7.894  -1.624  0.00  0.00    -0.277 OA
ATOM     23  N   UNL     1      -6.462  -7.579  -3.565  0.00  0.00    -0.242 N 
ATOM     24  C   UNL     1      -6.839  -8.872  -3.622  0.00  0.00    +0.303 C 
ATOM     25  O   UNL     1      -6.530  -9.635  -2.728  0.00  0.00    -0.253 OA
ATOM     26  N   UNL     1      -7.558  -9.318  -4.671  0.00  0.00    -0.313 N 
ATOM     27  H   UNL     1      -6.709  -6.970  -4.278  0.00  0.00    +0.159 HD
ATOM     28  H   UNL     1      -7.804  -8.709  -5.384  0.00  0.00    +0.146 HD
ATOM     29  H   UNL     1      -7.829 -10.249  -4.712  0.00  0.00    +0.146 HD
ENDBRANCH  20  21
ENDBRANCH   5  20
TORSDOF 4
