REMARK  Name = ZINC12979590
REMARK  11 active torsions:
REMARK  status: ('A' for Active; 'I' for Inactive)
REMARK    1  A    between atoms: C_1  and  C_2
REMARK    2  A    between atoms: C_2  and  C_3
REMARK    3  A    between atoms: C_3  and  N_4
REMARK    4  A    between atoms: C_8  and  C_10
REMARK    5  A    between atoms: C_10  and  O_11
REMARK    6  A    between atoms: O_11  and  C_12
REMARK    7  A    between atoms: C_12  and  C_14
REMARK    8  A    between atoms: C_14  and  C_16
REMARK    9  A    between atoms: C_14  and  N_27
REMARK   10  A    between atoms: C_16  and  C_17
REMARK   11  A    between atoms: C_28  and  C_30
REMARK                            x       y       z     vdW  Elec       q    Type
REMARK                         _______ _______ _______ _____ _____    ______ ____
ROOT
ATOM      1  C   UNL     1      -4.990   1.630   0.034  0.00  0.00    +0.186 C 
ENDROOT
BRANCH   1   2
ATOM      2  N   UNL     1      -3.616   2.137   0.030  0.00  0.00    -0.298 N 
ATOM      3  C   UNL     1      -2.580   1.276   0.021  0.00  0.00    +0.251 C 
ATOM      4  O   UNL     1      -2.786   0.076   0.015  0.00  0.00    -0.270 OA
ATOM      5  H   UNL     1      -3.452   3.093   0.035  0.00  0.00    +0.150 HD
BRANCH   3   6
ATOM      6  C   UNL     1      -1.205   1.783   0.017  0.00  0.00    +0.074 A 
ATOM      7  C   UNL     1      -0.013   1.076   0.008  0.00  0.00    +0.021 A 
ATOM      8  C   UNL     1       1.149   1.808   0.001  0.00  0.00    +0.008 A 
ATOM      9  C   UNL     1       1.077   3.165   0.008  0.00  0.00    +0.046 A 
ATOM     10  S   UNL     1      -0.629   3.471   0.026  0.00  0.00    -0.092 S 
ENDBRANCH   3   6
ENDBRANCH   1   2
BRANCH   1  11
ATOM     11  C   UNL     1      -5.210   0.783   1.261  0.00  0.00    +0.328 C 
ATOM     12  O   UNL     1      -4.264   0.320   1.852  0.00  0.00    -0.249 OA
BRANCH  11  13
ATOM     13  O   UNL     1      -6.457   0.544   1.697  0.00  0.00    -0.454 OA
BRANCH  13  14
ATOM     14  C   UNL     1      -6.593  -0.280   2.884  0.00  0.00    +0.328 C 
BRANCH  14  19
ATOM     15  N   UNL     1     -10.099  -2.040   5.664  0.00  0.00    -0.299 N 
ATOM     16  C   UNL     1      -9.729  -1.310   4.593  0.00  0.00    +0.306 C 
ATOM     17  O   UNL     1     -10.574  -0.780   3.899  0.00  0.00    -0.252 OA
ATOM     18  N   UNL     1      -8.423  -1.168   4.292  0.00  0.00    -0.237 N 
ATOM     19  C   UNL     1      -8.054  -0.438   3.221  0.00  0.00    +0.258 C 
ATOM     20  O   UNL     1      -8.896   0.091   2.528  0.00  0.00    -0.272 OA
ATOM     21  H   UNL     1      -9.424  -2.463   6.218  0.00  0.00    +0.150 HD
ATOM     22  H   UNL     1      -7.749  -1.592   4.846  0.00  0.00    +0.159 HD
BRANCH  15  23
ATOM     23  C   UNL     1     -11.518  -2.194   5.991  0.00  0.00    +0.105 C 
BRANCH  23  25
ATOM     24  C   UNL     1     -13.145  -3.223   7.585  0.00  0.00    +0.005 C 
ATOM     25  C   UNL     1     -11.662  -3.062   7.243  0.00  0.00    +0.015 C 
ENDBRANCH  23  25
ENDBRANCH  15  23
ENDBRANCH  14  19
ENDBRANCH  13  14
ENDBRANCH  11  13
ENDBRANCH   1  11
BRANCH   1  26
ATOM     26  C   UNL     1      -5.225   0.784  -1.219  0.00  0.00    +0.071 C 
BRANCH  26  27
ATOM     27  C   UNL     1      -5.126   1.659  -2.442  0.00  0.00    -0.020 A 
ATOM     28  C   UNL     1      -6.145   2.251  -3.084  0.00  0.00    +0.087 A 
ATOM     29  N   UNL     1      -5.671   2.966  -4.151  0.00  0.00    -0.360 N 
ATOM     30  H   UNL     1      -6.219   3.479  -4.765  0.00  0.00    +0.165 HD
ATOM     31  C   UNL     1      -4.301   2.848  -4.222  0.00  0.00    +0.047 A 
ATOM     32  C   UNL     1      -3.899   2.029  -3.152  0.00  0.00    +0.003 A 
ATOM     33  C   UNL     1      -2.546   1.736  -2.968  0.00  0.00    +0.010 A 
ATOM     34  C   UNL     1      -1.619   2.252  -3.829  0.00  0.00    +0.001 A 
ATOM     35  C   UNL     1      -2.010   3.063  -4.885  0.00  0.00    +0.002 A 
ATOM     36  C   UNL     1      -3.340   3.358  -5.088  0.00  0.00    +0.026 A 
ENDBRANCH  26  27
ENDBRANCH   1  26
TORSDOF 10
