REMARK  Name = ZINC36306537
REMARK  16 active torsions:
REMARK  status: ('A' for Active; 'I' for Inactive)
REMARK    1  A    between atoms: C_1  and  C_2
REMARK    2  A    between atoms: C_2  and  O_3
REMARK    3  A    between atoms: O_3  and  C_4
REMARK    4  A    between atoms: C_4  and  C_5
REMARK    5  A    between atoms: C_5  and  C_7
REMARK    6  A    between atoms: C_5  and  O_37
REMARK    7  A    between atoms: C_7  and  N_8
REMARK    8  A    between atoms: N_8  and  C_9
REMARK    9  A    between atoms: N_8  and  C_30
REMARK   10  A    between atoms: C_9  and  C_10
REMARK   11  A    between atoms: C_11  and  C_24
REMARK   12  A    between atoms: N_13  and  C_23
REMARK   13  A    between atoms: C_14  and  O_15
REMARK   14  A    between atoms: O_15  and  C_16
REMARK   15  A    between atoms: C_20  and  C_22
REMARK   16  A    between atoms: C_30  and  C_31
REMARK                            x       y       z     vdW  Elec       q    Type
REMARK                         _______ _______ _______ _____ _____    ______ ____
ROOT
ATOM      1  C   UNL     1       3.689  -5.572  -5.429  0.00  0.00    +0.025 A 
ATOM      2  C   UNL     1       3.098  -5.621  -6.705  0.00  0.00    +0.098 A 
ATOM      3  N   UNL     1       4.059  -5.601  -7.603  0.00  0.00    -0.168 NA
ATOM      4  N   UNL     1       5.287  -5.538  -6.931  0.00  0.00    -0.235 N 
ATOM      5  C   UNL     1       5.035  -5.515  -5.597  0.00  0.00    +0.221 A 
ATOM      6  C   UNL     1       6.610  -5.497  -7.559  0.00  0.00    +0.176 C 
ENDROOT
BRANCH   2   7
ATOM      7  C   UNL     1       1.642  -5.685  -6.989  0.00  0.00    +0.002 A 
ATOM      8  C   UNL     1       0.819  -6.519  -6.234  0.00  0.00    +0.010 A 
ATOM      9  C   UNL     1      -0.534  -6.575  -6.502  0.00  0.00    +0.001 A 
ATOM     10  C   UNL     1      -1.073  -5.805  -7.517  0.00  0.00    +0.000 A 
ATOM     11  C   UNL     1      -0.260  -4.976  -8.269  0.00  0.00    +0.001 A 
ATOM     12  C   UNL     1       1.093  -4.908  -8.006  0.00  0.00    +0.010 A 
ENDBRANCH   2   7
BRANCH   1  13
ATOM     13  C   UNL     1       2.959  -5.574  -4.111  0.00  0.00    -0.035 C 
BRANCH  13  14
ATOM     14  N   UNL     1       2.796  -4.193  -3.638  0.00  0.00    +0.386 N 
ATOM     15  H   UNL     1       3.696  -3.740  -3.606  0.00  0.00    -0.081 HD
BRANCH  14  16
ATOM     16  C   UNL     1       1.913  -3.462  -4.557  0.00  0.00    -0.044 C 
BRANCH  16  17
ATOM     17  C   UNL     1       1.842  -1.993  -4.137  0.00  0.00    +0.124 C 
BRANCH  17  18
ATOM     18  O   UNL     1       3.129  -1.391  -4.290  0.00  0.00    -0.391 OA
ATOM     19  H   UNL     1       3.467  -1.413  -5.196  0.00  0.00    +0.210 HD
ENDBRANCH  17  18
BRANCH  17  20
ATOM     20  C   UNL     1       0.827  -1.259  -5.016  0.00  0.00    +0.189 C 
BRANCH  20  21
ATOM     21  O   UNL     1       0.675   0.083  -4.549  0.00  0.00    -0.378 OA
BRANCH  21  23
ATOM     22  C   UNL     1      -0.338   2.271  -4.719  0.00  0.00    +0.034 C 
ATOM     23  C   UNL     1      -0.256   0.860  -5.305  0.00  0.00    +0.156 C 
ENDBRANCH  21  23
ENDBRANCH  20  21
ENDBRANCH  17  20
ENDBRANCH  16  17
ENDBRANCH  14  16
BRANCH  14  24
ATOM     24  C   UNL     1       2.204  -4.202  -2.294  0.00  0.00    -0.046 C 
BRANCH  24  25
ATOM     25  C   UNL     1       3.193  -4.822  -1.305  0.00  0.00    +0.102 C 
ATOM     26  C   UNL     1       2.589  -4.812   0.116  0.00  0.00    +0.032 C 
ATOM     27  C   UNL     1       3.820  -4.457   0.994  0.00  0.00    +0.030 C 
ATOM     28  C   UNL     1       4.593  -3.505   0.047  0.00  0.00    +0.160 C 
ATOM     29  O   UNL     1       4.397  -4.046  -1.271  0.00  0.00    -0.378 OA
ENDBRANCH  24  25
ENDBRANCH  14  24
ENDBRANCH  13  14
ENDBRANCH   1  13
BRANCH   5  30
ATOM     30  O   UNL     1       5.963  -5.450  -4.609  0.00  0.00    -0.438 OA
BRANCH  30  31
ATOM     31  C   UNL     1       6.509  -6.615  -4.169  0.00  0.00    +0.131 A 
ATOM     32  C   UNL     1       6.198  -7.811  -4.801  0.00  0.00    +0.046 A 
ATOM     33  C   UNL     1       6.754  -8.992  -4.352  0.00  0.00    +0.004 A 
ATOM     34  C   UNL     1       7.620  -8.985  -3.274  0.00  0.00    +0.003 A 
ATOM     35  C   UNL     1       7.932  -7.795  -2.643  0.00  0.00    -0.047 A 
ATOM     36  C   UNL     1       7.383  -6.609  -3.091  0.00  0.00    +0.049 A 
ATOM     37  C   UNL     1       8.876  -7.791  -1.468  0.00  0.00    +0.044 C 
ENDBRANCH  30  31
ENDBRANCH   5  30
TORSDOF 13
