REMARK  Name = ZINC10814978
REMARK  10 active torsions:
REMARK  status: ('A' for Active; 'I' for Inactive)
REMARK    1  A    between atoms: C_1  and  C_2
REMARK    2  A    between atoms: C_2  and  N_54
REMARK    3  A    between atoms: C_3  and  C_4
REMARK    4  A    between atoms: C_3  and  N_54
REMARK    5  A    between atoms: C_5  and  C_6
REMARK    6  A    between atoms: C_5  and  N_54
REMARK    7  A    between atoms: C_6  and  N_7
REMARK    8  A    between atoms: C_16  and  S_17
REMARK    9  A    between atoms: S_17  and  C_20
REMARK   10  A    between atoms: C_21  and  C_23
REMARK                            x       y       z     vdW  Elec       q    Type
REMARK                         _______ _______ _______ _____ _____    ______ ____
ROOT
ATOM      1  N   UNL     1       2.243  -2.170  -0.178  0.00  0.00    -0.248 N 
ATOM      2  C   UNL     1       1.985  -3.517  -0.366  0.00  0.00    +0.168 A 
ATOM      3  N   UNL     1       0.828  -4.137  -0.403  0.00  0.00    -0.222 NA
ATOM      4  C   UNL     1       0.724  -5.469  -0.599  0.00  0.00    +0.105 A 
ATOM      5  C   UNL     1       1.946  -6.162  -0.754  0.00  0.00    +0.043 A 
ATOM      6  S   UNL     1       3.142  -4.856  -0.613  0.00  0.00    -0.052 S 
ATOM      7  C   UNL     1       2.008  -7.518  -0.956  0.00  0.00    +0.017 A 
ATOM      8  C   UNL     1       0.838  -8.254  -1.015  0.00  0.00    +0.003 A 
ATOM      9  C   UNL     1      -0.380  -7.606  -0.867  0.00  0.00    +0.029 A 
ATOM     10  C   UNL     1      -0.451  -6.253  -0.664  0.00  0.00    +0.114 A 
ATOM     11  C   UNL     1       1.222  -1.306  -0.006  0.00  0.00    +0.252 C 
ATOM     12  O   UNL     1       0.085  -1.722   0.099  0.00  0.00    -0.270 OA
ENDROOT
BRANCH  11  13
ATOM     13  C   UNL     1       1.486   0.146   0.053  0.00  0.00    +0.037 A 
ATOM     14  C   UNL     1       0.519   1.053  -0.385  0.00  0.00    +0.014 A 
ATOM     15  C   UNL     1       0.772   2.408  -0.327  0.00  0.00    +0.016 A 
ATOM     16  C   UNL     1       1.982   2.869   0.164  0.00  0.00    +0.018 A 
ATOM     17  C   UNL     1       2.945   1.974   0.600  0.00  0.00    +0.016 A 
ATOM     18  C   UNL     1       2.704   0.618   0.547  0.00  0.00    +0.014 A 
ATOM     19 BR   UNL     1       2.320   4.728   0.240  0.00  0.00    -0.050 Br
ENDBRANCH  11  13
BRANCH  10  20
ATOM     20  S   UNL     1      -2.025  -5.481  -0.483  0.00  0.00    -0.004 S 
ATOM     21  O   UNL     1      -2.006  -4.399  -1.405  0.00  0.00    -0.170 OA
ATOM     22  O   UNL     1      -2.965  -6.537  -0.624  0.00  0.00    -0.170 OA
ATOM     23  C   UNL     1      -2.042  -4.851   1.218  0.00  0.00    +0.200 C 
ENDBRANCH  10  20
BRANCH   1  24
ATOM     24  C   UNL     1       3.624  -1.684  -0.165  0.00  0.00    +0.097 C 
BRANCH  24  25
ATOM     25  C   UNL     1       4.243  -1.942   1.210  0.00  0.00    -0.059 C 
BRANCH  25  26
ATOM     26  N   UNL     1       5.593  -1.340   1.245  0.00  0.00    +0.380 N 
ATOM     27  H   UNL     1       5.539  -0.379   0.887  0.00  0.00    -0.082 HD
BRANCH  26  29
ATOM     28  C   UNL     1       7.386  -0.486   2.673  0.00  0.00    -0.017 C 
ATOM     29  C   UNL     1       6.096  -1.308   2.634  0.00  0.00    -0.082 C 
ENDBRANCH  26  29
BRANCH  26  30
ATOM     30  C   UNL     1       6.515  -2.119   0.391  0.00  0.00    -0.082 C 
ATOM     31  C   UNL     1       6.583  -3.573   0.863  0.00  0.00    -0.017 C 
ENDBRANCH  26  30
ENDBRANCH  25  26
ENDBRANCH  24  25
ENDBRANCH   1  24
TORSDOF 7
