REMARK  Name = ZINC10045938
REMARK  5 active torsions:
REMARK  status: ('A' for Active; 'I' for Inactive)
REMARK    1  A    between atoms: C_1  and  C_2
REMARK    2  A    between atoms: C_5  and  S_8
REMARK    3  A    between atoms: S_8  and  C_11
REMARK    4  A    between atoms: C_11  and  C_12
REMARK    5  A    between atoms: N_14  and  N_15
REMARK                            x       y       z     vdW  Elec       q    Type
REMARK                         _______ _______ _______ _____ _____    ______ ____
ROOT
ATOM      1  C   UNL     1       1.240  -4.400  -1.905  0.00  0.00    +0.251 C 
ATOM      2  O   UNL     1       1.260  -5.093  -0.909  0.00  0.00    -0.272 OA
ATOM      3  N   UNL     1       1.236  -4.973  -3.124  0.00  0.00    -0.234 N 
ATOM      4  H   UNL     1       1.221  -4.419  -3.920  0.00  0.00    +0.173 HD
ENDROOT
BRANCH   3   5
ATOM      5  N   UNL     1       1.254  -6.369  -3.243  0.00  0.00    -0.243 N 
ATOM      6  C   UNL     1       1.250  -6.955  -4.492  0.00  0.00    +0.176 A 
ATOM      7  N   UNL     1       1.264  -8.231  -4.803  0.00  0.00    -0.223 NA
ATOM      8  C   UNL     1       1.256  -8.666  -6.083  0.00  0.00    +0.094 A 
ATOM      9  C   UNL     1       1.232  -7.657  -7.072  0.00  0.00    +0.042 A 
ATOM     10  S   UNL     1       1.215  -6.172  -6.098  0.00  0.00    -0.051 S 
ATOM     11  C   UNL     1       1.222  -7.938  -8.416  0.00  0.00    +0.017 A 
ATOM     12  C   UNL     1       1.236  -9.254  -8.839  0.00  0.00    +0.002 A 
ATOM     13  C   UNL     1       1.259 -10.271  -7.896  0.00  0.00    +0.017 A 
ATOM     14  C   UNL     1       1.269 -10.001  -6.551  0.00  0.00    +0.044 A 
ATOM     15 BR   UNL     1       1.303 -11.427  -5.311  0.00  0.00    -0.048 Br
ATOM     16  H   UNL     1       1.269  -6.923  -2.447  0.00  0.00    +0.172 HD
ENDBRANCH   3   5
BRANCH   1  17
ATOM     17  C   UNL     1       1.221  -2.899  -1.777  0.00  0.00    +0.268 C 
BRANCH  17  18
ATOM     18  S   UNL     1       1.232  -2.441  -0.022  0.00  0.00    +0.005 S 
ATOM     19  O   UNL     1       2.478  -2.789   0.567  0.00  0.00    -0.169 OA
ATOM     20  O   UNL     1       0.009  -2.823   0.592  0.00  0.00    -0.169 OA
BRANCH  18  25
ATOM     21  C   UNL     1       1.151   3.592   0.010  0.00  0.00    +0.044 C 
ATOM     22  C   UNL     1       1.171   2.086   0.002  0.00  0.00    -0.050 A 
ATOM     23  C   UNL     1      -0.017   1.378   0.010  0.00  0.00    +0.005 A 
ATOM     24  C   UNL     1       0.002  -0.004   0.002  0.00  0.00    +0.027 A 
ATOM     25  C   UNL     1       1.208  -0.679  -0.013  0.00  0.00    +0.089 A 
ATOM     26  C   UNL     1       2.396   0.029  -0.021  0.00  0.00    +0.027 A 
ATOM     27  C   UNL     1       2.377   1.411  -0.015  0.00  0.00    +0.005 A 
ENDBRANCH  18  25
ENDBRANCH  17  18
ENDBRANCH   1  17
TORSDOF 4
