REMARK  Name = ZINC33684791
REMARK  10 active torsions:
REMARK  status: ('A' for Active; 'I' for Inactive)
REMARK    1  A    between atoms: C_4  and  C_7
REMARK    2  A    between atoms: C_7  and  N_8
REMARK    3  A    between atoms: N_8  and  C_9
REMARK    4  A    between atoms: N_8  and  C_17
REMARK    5  A    between atoms: C_9  and  C_10
REMARK    6  A    between atoms: C_17  and  C_18
REMARK    7  A    between atoms: C_21  and  C_23
REMARK    8  A    between atoms: N_28  and  C_31
REMARK    9  A    between atoms: C_31  and  C_32
REMARK   10  A    between atoms: C_33  and  C_34
REMARK                            x       y       z     vdW  Elec       q    Type
REMARK                         _______ _______ _______ _____ _____    ______ ____
ROOT
ATOM      1  C   UNL     1       1.316   2.407  -0.572  0.00  0.00    +0.090 A 
ATOM      2  C   UNL     1       2.143   1.339  -0.545  0.00  0.00    +0.043 A 
ATOM      3  C   UNL     1       1.348   0.197  -0.732  0.00  0.00    +0.055 A 
ATOM      4  C   UNL     1       0.060   0.632  -0.864  0.00  0.00    +0.190 A 
ATOM      5  O   UNL     1       0.062   1.978  -0.764  0.00  0.00    -0.457 OA
ENDROOT
BRANCH   4   6
ATOM      6  C   UNL     1      -1.118  -0.214  -1.077  0.00  0.00    +0.282 C 
ATOM      7  O   UNL     1      -0.983  -1.407  -1.273  0.00  0.00    -0.267 OA
ATOM      8  N   UNL     1      -2.351   0.330  -1.055  0.00  0.00    -0.293 N 
ATOM      9  C   UNL     1      -3.550  -0.511  -1.199  0.00  0.00    +0.123 C 
ATOM     10  C   UNL     1      -4.511  -0.180  -0.046  0.00  0.00    +0.103 C 
ATOM     11  N   UNL     1      -4.766   1.266  -0.028  0.00  0.00    -0.296 NA
ATOM     12  C   UNL     1      -3.535   2.021   0.241  0.00  0.00    +0.103 C 
ATOM     13  C   UNL     1      -2.534   1.780  -0.894  0.00  0.00    +0.123 C 
BRANCH  11  14
ATOM     14  C   UNL     1      -5.814   1.604   0.945  0.00  0.00    +0.111 C 
BRANCH  14  15
ATOM     15  C   UNL     1      -6.966   0.644   0.795  0.00  0.00    -0.011 C 
ATOM     16  C   UNL     1      -7.396  -0.045   1.843  0.00  0.00    +0.005 C 
BRANCH  16  17
ATOM     17  C   UNL     1      -8.526  -0.986   1.696  0.00  0.00    -0.025 A 
ATOM     18  C   UNL     1      -9.147  -1.147   0.457  0.00  0.00    +0.008 A 
ATOM     19  C   UNL     1     -10.198  -2.031   0.326  0.00  0.00    +0.001 A 
ATOM     20  C   UNL     1     -10.644  -2.749   1.421  0.00  0.00    +0.000 A 
ATOM     21  C   UNL     1     -10.036  -2.590   2.654  0.00  0.00    +0.001 A 
ATOM     22  C   UNL     1      -8.980  -1.713   2.797  0.00  0.00    +0.008 A 
ENDBRANCH  16  17
ENDBRANCH  14  15
ENDBRANCH  11  14
ENDBRANCH   4   6
BRANCH   1  23
ATOM     23  C   UNL     1       1.736   3.846  -0.412  0.00  0.00    -0.002 C 
BRANCH  23  24
ATOM     24  N   UNL     1       2.048   4.415  -1.730  0.00  0.00    +0.390 N 
ATOM     25  H   UNL     1       2.762   3.743  -2.228  0.00  0.00    -0.080 HD
BRANCH  24  26
ATOM     26  C   UNL     1       0.843   4.493  -2.567  0.00  0.00    -0.042 C 
BRANCH  26  30
ATOM     27  C   UNL     1       1.979   5.066  -6.645  0.00  0.00    +0.000 A 
ATOM     28  C   UNL     1       1.946   3.792  -6.109  0.00  0.00    +0.000 A 
ATOM     29  C   UNL     1       1.579   3.607  -4.790  0.00  0.00    +0.002 A 
ATOM     30  C   UNL     1       1.244   4.695  -4.006  0.00  0.00    -0.064 A 
ATOM     31  C   UNL     1       1.271   5.969  -4.543  0.00  0.00    +0.002 A 
ATOM     32  C   UNL     1       1.644   6.155  -5.862  0.00  0.00    +0.000 A 
ENDBRANCH  26  30
ENDBRANCH  24  26
BRANCH  24  33
ATOM     33  C   UNL     1       2.684   5.732  -1.598  0.00  0.00    -0.042 C 
BRANCH  33  34
ATOM     34  C   UNL     1       4.122   5.556  -1.182  0.00  0.00    -0.064 A 
ATOM     35  C   UNL     1       4.447   5.461   0.158  0.00  0.00    +0.004 A 
ATOM     36  C   UNL     1       5.765   5.294   0.540  0.00  0.00    +0.038 A 
ATOM     37  C   UNL     1       6.761   5.233  -0.420  0.00  0.00    +0.123 A 
ATOM     38  C   UNL     1       6.435   5.334  -1.762  0.00  0.00    +0.038 A 
ATOM     39  C   UNL     1       5.116   5.495  -2.142  0.00  0.00    +0.004 A 
ATOM     40  F   UNL     1       8.050   5.075  -0.047  0.00  0.00    -0.205 F 
ENDBRANCH  33  34
ENDBRANCH  24  33
ENDBRANCH  23  24
ENDBRANCH   1  23
TORSDOF 10
