REMARK  Name = ZINC12218271
REMARK  10 active torsions:
REMARK  status: ('A' for Active; 'I' for Inactive)
REMARK    1  A    between atoms: C_1  and  O_2
REMARK    2  A    between atoms: O_2  and  C_3
REMARK    3  A    between atoms: C_3  and  C_5
REMARK    4  A    between atoms: N_7  and  C_10
REMARK    5  A    between atoms: C_13  and  C_26
REMARK    6  A    between atoms: C_16  and  C_17
REMARK    7  A    between atoms: C_16  and  N_60
REMARK    8  A    between atoms: N_28  and  C_29
REMARK    9  A    between atoms: C_33  and  S_35
REMARK   10  A    between atoms: S_35  and  C_36
REMARK                            x       y       z     vdW  Elec       q    Type
REMARK                         _______ _______ _______ _____ _____    ______ ____
ROOT
ATOM      1  C   UNL     1       5.239   2.867  -3.266  0.00  0.00    +0.091 C 
ATOM      2  C   UNL     1       5.047   1.348  -3.483  0.00  0.00    +0.019 C 
ATOM      3  C   UNL     1       4.537   0.863  -2.102  0.00  0.00    +0.022 C 
ATOM      4  C   UNL     1       5.388   3.040  -1.743  0.00  0.00    -0.050 C 
ATOM      5  N   UNL     1       5.313   1.690  -1.171  0.00  0.00    +0.392 N 
ATOM      6  H   UNL     1       6.259   1.303  -1.070  0.00  0.00    -0.080 HD
ENDROOT
BRANCH   1   9
ATOM      7  C   UNL     1       8.520   3.794  -4.448  0.00  0.00    +0.189 A 
ATOM      8  C   UNL     1       7.714   3.245  -3.490  0.00  0.00    +0.145 A 
ATOM      9  N   UNL     1       6.450   3.328  -3.950  0.00  0.00    -0.250 N 
ATOM     10  N   UNL     1       6.516   3.936  -5.212  0.00  0.00    -0.065 NA
ATOM     11  N   UNL     1       7.749   4.202  -5.471  0.00  0.00    -0.123 NA
BRANCH   7  12
ATOM     12  C   UNL     1       9.987   3.918  -4.372  0.00  0.00    +0.361 C 
ATOM     13  O   UNL     1      10.581   3.511  -3.393  0.00  0.00    -0.243 OA
BRANCH  12  15
ATOM     14  C   UNL     1      12.111   4.570  -5.245  0.00  0.00    +0.280 C 
ATOM     15  O   UNL     1      10.669   4.481  -5.388  0.00  0.00    -0.463 OA
ENDBRANCH  12  15
ENDBRANCH   7  12
ENDBRANCH   1   9
BRANCH   3  16
ATOM     16  C   UNL     1       4.838  -0.601  -1.908  0.00  0.00    +0.204 C 
ATOM     17  O   UNL     1       5.626  -0.950  -1.054  0.00  0.00    -0.277 OA
ATOM     18  N   UNL     1       4.233  -1.522  -2.683  0.00  0.00    -0.287 N 
ATOM     19  H   UNL     1       3.547  -1.251  -3.313  0.00  0.00    +0.155 HD
BRANCH  18  20
ATOM     20  C   UNL     1       4.593  -2.870  -2.579  0.00  0.00    +0.034 A 
ATOM     21  C   UNL     1       5.906  -3.218  -2.285  0.00  0.00    +0.023 A 
ATOM     22  C   UNL     1       6.263  -4.548  -2.178  0.00  0.00    +0.003 A 
ATOM     23  C   UNL     1       5.318  -5.538  -2.372  0.00  0.00    +0.015 A 
ATOM     24  C   UNL     1       4.004  -5.197  -2.672  0.00  0.00    +0.009 A 
ATOM     25  C   UNL     1       3.642  -3.860  -2.776  0.00  0.00    +0.038 A 
BRANCH  24  26
ATOM     26  S   UNL     1       2.800  -6.459  -2.919  0.00  0.00    -0.129 S 
ATOM     27  C   UNL     1       3.726  -8.001  -2.686  0.00  0.00    +0.090 C 
ENDBRANCH  24  26
ENDBRANCH  18  20
ENDBRANCH   3  16
BRANCH   5  28
ATOM     28  C   UNL     1       4.655   1.732   0.169  0.00  0.00    -0.034 C 
BRANCH  28  29
ATOM     29  C   UNL     1       3.190   2.034  -0.013  0.00  0.00    -0.026 A 
ATOM     30  C   UNL     1       2.179   1.170  -0.183  0.00  0.00    +0.017 A 
ATOM     31  C   UNL     1       0.825   1.679  -0.343  0.00  0.00    -0.011 A 
ATOM     32  C   UNL     1      -0.377   0.956  -0.532  0.00  0.00    +0.009 A 
ATOM     33  C   UNL     1      -1.564   1.604  -0.669  0.00  0.00    +0.001 A 
ATOM     34  C   UNL     1      -1.644   2.990  -0.618  0.00  0.00    +0.001 A 
ATOM     35  C   UNL     1      -0.494   3.731  -0.435  0.00  0.00    +0.015 A 
ATOM     36  C   UNL     1       0.716   3.086  -0.300  0.00  0.00    +0.020 A 
ATOM     37  S   UNL     1       2.389   3.626  -0.056  0.00  0.00    -0.095 S 
ENDBRANCH  28  29
ENDBRANCH   5  28
TORSDOF 8
