REMARK  Name = ZINC04518440
REMARK  9 active torsions:
REMARK  status: ('A' for Active; 'I' for Inactive)
REMARK    1  A    between atoms: C_1  and  C_2
REMARK    2  A    between atoms: C_2  and  C_3
REMARK    3  A    between atoms: C_6  and  S_13
REMARK    4  A    between atoms: N_7  and  N_8
REMARK    5  A    between atoms: S_13  and  C_14
REMARK    6  A    between atoms: C_14  and  C_15
REMARK    7  A    between atoms: N_17  and  C_18
REMARK    8  A    between atoms: C_19  and  C_25
REMARK    9  A    between atoms: C_23  and  C_24
REMARK                            x       y       z     vdW  Elec       q    Type
REMARK                         _______ _______ _______ _____ _____    ______ ____
ROOT
ATOM      1  S   UNL     1      -1.839   1.207   5.478  0.00  0.00    -0.075 S 
ENDROOT
BRANCH   1   5
ATOM      2  C   UNL     1       0.647   1.274   2.473  0.00  0.00    +0.154 A 
ATOM      3  N   UNL     1       0.203   2.499   2.498  0.00  0.00    -0.132 NA
ATOM      4  N   UNL     1      -0.649   2.639   3.450  0.00  0.00    -0.121 NA
ATOM      5  C   UNL     1      -0.789   1.504   4.095  0.00  0.00    +0.211 A 
ATOM      6  N   UNL     1       0.035   0.597   3.491  0.00  0.00    -0.208 N 
BRANCH   6   7
ATOM      7  N   UNL     1       0.215  -0.747   3.843  0.00  0.00    -0.259 N 
ATOM      8  C   UNL     1      -0.124  -1.821   3.074  0.00  0.00    +0.111 A 
ATOM      9  C   UNL     1       0.205  -2.942   3.748  0.00  0.00    +0.021 A 
ATOM     10  C   UNL     1       0.758  -2.545   4.982  0.00  0.00    +0.021 A 
ATOM     11  C   UNL     1       0.752  -1.197   5.012  0.00  0.00    +0.111 A 
ENDBRANCH   6   7
BRANCH   2  13
ATOM     12  C   UNL     1       0.927   0.142   0.285  0.00  0.00    +0.012 C 
ATOM     13  C   UNL     1       1.655   0.710   1.505  0.00  0.00    +0.075 C 
ENDBRANCH   2  13
ENDBRANCH   1   5
BRANCH   1  14
ATOM     14  C   UNL     1      -2.578   2.848   5.670  0.00  0.00    +0.173 C 
BRANCH  14  15
ATOM     15  C   UNL     1      -3.541   2.834   6.829  0.00  0.00    +0.228 C 
ATOM     16  O   UNL     1      -3.711   1.814   7.463  0.00  0.00    -0.275 OA
ATOM     17  N   UNL     1      -4.213   3.954   7.161  0.00  0.00    -0.284 N 
ATOM     18  H   UNL     1      -4.038   4.782   6.688  0.00  0.00    +0.155 HD
BRANCH  17  19
ATOM     19  C   UNL     1      -5.162   3.921   8.189  0.00  0.00    +0.039 A 
ATOM     20  C   UNL     1      -6.176   2.973   8.169  0.00  0.00    -0.029 A 
ATOM     21  C   UNL     1      -7.109   2.939   9.188  0.00  0.00    +0.005 A 
ATOM     22  C   UNL     1      -7.040   3.857  10.220  0.00  0.00    +0.001 A 
ATOM     23  C   UNL     1      -6.035   4.806  10.239  0.00  0.00    +0.005 A 
ATOM     24  C   UNL     1      -5.096   4.841   9.227  0.00  0.00    -0.029 A 
ATOM     25  C   UNL     1      -4.001   5.876   9.249  0.00  0.00    +0.045 C 
ATOM     26  C   UNL     1      -6.256   1.976   7.041  0.00  0.00    +0.045 C 
ENDBRANCH  17  19
ENDBRANCH  14  15
ENDBRANCH   1  14
TORSDOF 6
