REMARK  Name = ZINC09130659
REMARK  9 active torsions:
REMARK  status: ('A' for Active; 'I' for Inactive)
REMARK    1  A    between atoms: C_1  and  O_2
REMARK    2  A    between atoms: O_2  and  C_3
REMARK    3  A    between atoms: C_6  and  C_9
REMARK    4  A    between atoms: C_10  and  C_19
REMARK    5  A    between atoms: C_14  and  C_15
REMARK    6  A    between atoms: C_22  and  O_26
REMARK    7  A    between atoms: C_24  and  O_25
REMARK    8  A    between atoms: O_26  and  C_27
REMARK    9  A    between atoms: C_27  and  C_28
REMARK                            x       y       z     vdW  Elec       q    Type
REMARK                         _______ _______ _______ _____ _____    ______ ____
ROOT
ATOM      1  C   UNL     1      -4.963  -2.620   0.037  0.00  0.00    +0.039 A 
ATOM      2  C   UNL     1      -5.465  -3.418   1.056  0.00  0.00    +0.077 A 
ATOM      3  N   UNL     1      -6.695  -3.850   0.654  0.00  0.00    -0.276 N 
ATOM      4  H   UNL     1      -7.289  -4.426   1.160  0.00  0.00    +0.189 HD
ATOM      5  N   UNL     1      -6.949  -3.316  -0.614  0.00  0.00    -0.169 NA
ATOM      6  C   UNL     1      -5.932  -2.583  -0.981  0.00  0.00    +0.173 A 
ENDROOT
BRANCH   1  10
ATOM      7  C   UNL     1      -1.200  -0.637   0.010  0.00  0.00    +0.120 A 
ATOM      8  C   UNL     1      -2.374   0.104   0.020  0.00  0.00    +0.046 A 
ATOM      9  C   UNL     1      -3.596  -0.536   0.028  0.00  0.00    +0.012 A 
ATOM     10  C   UNL     1      -3.651  -1.929   0.027  0.00  0.00    -0.014 A 
ATOM     11  C   UNL     1      -2.471  -2.671   0.017  0.00  0.00    +0.012 A 
ATOM     12  C   UNL     1      -1.252  -2.025   0.003  0.00  0.00    +0.046 A 
BRANCH   7  14
ATOM     13  C   UNL     1      -0.017   1.425   0.010  0.00  0.00    +0.277 C 
ATOM     14  O   UNL     1       0.002  -0.004   0.002  0.00  0.00    -0.495 OA
ENDBRANCH   7  14
ENDBRANCH   1  10
BRANCH   2  15
ATOM     15  C   UNL     1      -4.795  -3.740   2.332  0.00  0.00    +0.042 A 
ATOM     16  C   UNL     1      -4.414  -5.053   2.612  0.00  0.00    +0.017 A 
ATOM     17  C   UNL     1      -3.788  -5.349   3.803  0.00  0.00    +0.046 A 
ATOM     18  C   UNL     1      -3.535  -4.344   4.729  0.00  0.00    +0.124 A 
ATOM     19  C   UNL     1      -3.911  -3.036   4.460  0.00  0.00    +0.091 A 
ATOM     20  C   UNL     1      -4.534  -2.726   3.263  0.00  0.00    +0.129 A 
BRANCH  20  21
ATOM     21  O   UNL     1      -4.898  -1.445   2.996  0.00  0.00    -0.506 OA
ATOM     22  H   UNL     1      -5.789  -1.218   3.296  0.00  0.00    +0.292 HD
ENDBRANCH  20  21
BRANCH  18  23
ATOM     23  O   UNL     1      -2.918  -4.643   5.902  0.00  0.00    -0.487 OA
BRANCH  23  24
ATOM     24  C   UNL     1      -2.558  -6.009   6.115  0.00  0.00    +0.267 C 
BRANCH  24  25
ATOM     25  C   UNL     1      -1.890  -6.149   7.459  0.00  0.00    +0.025 A 
ATOM     26  C   UNL     1      -1.720  -5.039   8.265  0.00  0.00    +0.010 A 
ATOM     27  C   UNL     1      -1.107  -5.166   9.497  0.00  0.00    +0.001 A 
ATOM     28  C   UNL     1      -0.663  -6.404   9.925  0.00  0.00    +0.003 A 
ATOM     29  C   UNL     1      -0.832  -7.515   9.121  0.00  0.00    +0.039 A 
ATOM     30  C   UNL     1      -1.451  -7.389   7.888  0.00  0.00    +0.130 A 
ATOM     31  F   UNL     1      -1.621  -8.476   7.103  0.00  0.00    -0.205 F 
ENDBRANCH  24  25
ENDBRANCH  23  24
ENDBRANCH  18  23
ENDBRANCH   2  15
BRANCH   6  32
ATOM     32  C   UNL     1      -5.816  -1.828  -2.280  0.00  0.00    +0.437 C 
ATOM     33  F   UNL     1      -5.226  -2.651  -3.247  0.00  0.00    -0.164 F 
ATOM     34  F   UNL     1      -7.089  -1.442  -2.711  0.00  0.00    -0.164 F 
ATOM     35  F   UNL     1      -5.023  -0.692  -2.090  0.00  0.00    -0.164 F 
ENDBRANCH   6  32
TORSDOF 8
