REMARK  Name = ZINC45696022
REMARK  7 active torsions:
REMARK  status: ('A' for Active; 'I' for Inactive)
REMARK    1  A    between atoms: C_1  and  C_2
REMARK    2  A    between atoms: C_2  and  C_4
REMARK    3  A    between atoms: C_2  and  N_14
REMARK    4  A    between atoms: N_17  and  C_18
REMARK    5  A    between atoms: C_23  and  S_24
REMARK    6  A    between atoms: S_24  and  C_25
REMARK    7  A    between atoms: C_25  and  C_26
REMARK                            x       y       z     vdW  Elec       q    Type
REMARK                         _______ _______ _______ _____ _____    ______ ____
ROOT
ATOM      1  N   UNL     1      -1.366  -0.527   0.010  0.00  0.00    -0.293 N 
ATOM      2  C   UNL     1      -2.049  -0.649  -1.146  0.00  0.00    +0.304 C 
ATOM      3  O   UNL     1      -1.522  -0.343  -2.198  0.00  0.00    -0.252 OA
ATOM      4  N   UNL     1      -3.315  -1.109  -1.135  0.00  0.00    -0.268 N 
ATOM      5  H   UNL     1      -1.786  -0.771   0.849  0.00  0.00    +0.151 HD
ATOM      6  H   UNL     1      -3.713  -1.414  -0.305  0.00  0.00    +0.156 HD
ENDROOT
BRANCH   4   7
ATOM      7  C   UNL     1      -4.057  -1.148  -2.324  0.00  0.00    +0.048 A 
ATOM      8  C   UNL     1      -3.428  -1.425  -3.528  0.00  0.00    +0.024 A 
ATOM      9  C   UNL     1      -4.161  -1.462  -4.699  0.00  0.00    +0.002 A 
ATOM     10  C   UNL     1      -5.523  -1.223  -4.675  0.00  0.00    +0.001 A 
ATOM     11  C   UNL     1      -6.160  -0.946  -3.480  0.00  0.00    +0.016 A 
ATOM     12  C   UNL     1      -5.432  -0.913  -2.298  0.00  0.00    +0.030 A 
BRANCH  12  13
ATOM     13  S   UNL     1      -6.242  -0.568  -0.772  0.00  0.00    -0.114 S 
BRANCH  13  14
ATOM     14  C   UNL     1      -7.980  -0.340  -1.238  0.00  0.00    +0.169 C 
BRANCH  14  15
ATOM     15  C   UNL     1      -8.794  -0.034  -0.008  0.00  0.00    +0.221 C 
ATOM     16  O   UNL     1      -8.255   0.023   1.077  0.00  0.00    -0.275 OA
ATOM     17  N   UNL     1     -10.121   0.174  -0.113  0.00  0.00    -0.329 N 
ATOM     18  H   UNL     1     -10.553   0.128  -0.981  0.00  0.00    +0.145 HD
ATOM     19  H   UNL     1     -10.646   0.371   0.679  0.00  0.00    +0.145 HD
ENDBRANCH  14  15
ENDBRANCH  13  14
ENDBRANCH  12  13
ENDBRANCH   4   7
BRANCH   1  21
ATOM     20  C   UNL     1      -0.003   1.503   0.015  0.00  0.00    +0.033 C 
ATOM     21  C   UNL     1       0.011  -0.026  -0.002  0.00  0.00    +0.102 C 
BRANCH  21  22
ATOM     22  C   UNL     1       0.741  -0.536   1.214  0.00  0.00    -0.027 A 
ATOM     23  C   UNL     1       0.096  -0.596   2.436  0.00  0.00    +0.006 A 
ATOM     24  C   UNL     1       0.772  -1.061   3.545  0.00  0.00    +0.004 A 
ATOM     25  C   UNL     1       2.095  -1.471   3.444  0.00  0.00    -0.044 A 
ATOM     26  C   UNL     1       2.736  -1.416   2.227  0.00  0.00    -0.044 A 
ATOM     27  C   UNL     1       2.053  -0.950   1.111  0.00  0.00    +0.009 A 
ATOM     28  C   UNL     1       4.163  -1.859   2.041  0.00  0.00    +0.035 C 
ATOM     29  C   UNL     1       4.883  -1.931   3.386  0.00  0.00    +0.005 C 
ATOM     30  C   UNL     1       4.027  -2.762   4.349  0.00  0.00    +0.005 C 
ATOM     31  C   UNL     1       2.775  -1.960   4.697  0.00  0.00    +0.035 C 
ENDBRANCH  21  22
ENDBRANCH   1  21
TORSDOF 6
