REMARK  Name = ZINC39655753
REMARK  6 active torsions:
REMARK  status: ('A' for Active; 'I' for Inactive)
REMARK    1  A    between atoms: C_1  and  C_2
REMARK    2  A    between atoms: C_8  and  C_11
REMARK    3  A    between atoms: C_11  and  C_12
REMARK    4  A    between atoms: C_12  and  N_13
REMARK    5  A    between atoms: C_14  and  C_16
REMARK    6  A    between atoms: C_27  and  C_29
REMARK                            x       y       z     vdW  Elec       q    Type
REMARK                         _______ _______ _______ _____ _____    ______ ____
ROOT
ATOM      1  C   UNL     1       4.622  -0.110  -7.493  0.00  0.00    +0.100 C 
ATOM      2  C   UNL     1       5.652   0.306  -6.419  0.00  0.00    +0.121 C 
ATOM      3  N   UNL     1       6.096  -0.970  -5.812  0.00  0.00    -0.296 N 
ATOM      4  C   UNL     1       6.195  -1.908  -6.956  0.00  0.00    +0.115 C 
ATOM      5  C   UNL     1       4.984  -1.563  -7.845  0.00  0.00    -0.004 C 
ATOM      6  C   UNL     1       5.363  -1.671  -9.319  0.00  0.00    -0.010 C 
ATOM      7  C   UNL     1       5.662  -3.133  -9.659  0.00  0.00    -0.082 C 
ATOM      8  N   UNL     1       4.479  -3.955  -9.376  0.00  0.00    +0.379 N 
ATOM      9  C   UNL     1       4.176  -3.920  -7.940  0.00  0.00    -0.082 C 
ATOM     10  C   UNL     1       3.815  -2.490  -7.528  0.00  0.00    -0.010 C 
ATOM     11  C   UNL     1       6.354  -1.222  -4.513  0.00  0.00    +0.248 C 
ATOM     12  O   UNL     1       6.133  -0.370  -3.674  0.00  0.00    -0.270 OA
ATOM     13  H   UNL     1       3.690  -3.596  -9.894  0.00  0.00    -0.086 HD
ATOM     14  H   UNL     1       4.657  -4.907  -9.658  0.00  0.00    -0.086 HD
ENDROOT
BRANCH  11  15
ATOM     15  C   UNL     1       6.904  -2.532  -4.109  0.00  0.00    +0.055 A 
ATOM     16  C   UNL     1       7.805  -3.201  -4.941  0.00  0.00    +0.016 A 
ATOM     17  C   UNL     1       8.315  -4.423  -4.559  0.00  0.00    +0.021 A 
ATOM     18  C   UNL     1       7.936  -4.989  -3.353  0.00  0.00    +0.042 A 
ATOM     19  C   UNL     1       7.043  -4.332  -2.523  0.00  0.00    +0.040 A 
ATOM     20  C   UNL     1       6.530  -3.104  -2.891  0.00  0.00    +0.054 A 
ATOM     21 CL   UNL     1       5.417  -2.278  -1.846  0.00  0.00    -0.083 Cl
ATOM     22 CL   UNL     1       8.583  -6.529  -2.880  0.00  0.00    -0.083 Cl
ENDBRANCH  11  15
BRANCH   1  24
ATOM     23  N   UNL     1       2.188   0.249  -7.748  0.00  0.00    -0.315 N 
ATOM     24  C   UNL     1       3.224  -0.038  -6.935  0.00  0.00    +0.218 C 
ATOM     25  O   UNL     1       3.031  -0.238  -5.755  0.00  0.00    -0.275 OA
ATOM     26  H   UNL     1       2.342   0.409  -8.692  0.00  0.00    +0.149 HD
BRANCH  23  27
ATOM     27  C   UNL     1       0.829   0.319  -7.205  0.00  0.00    +0.109 C 
BRANCH  27  28
ATOM     28  C   UNL     1      -0.152   0.657  -8.329  0.00  0.00    +0.056 C 
BRANCH  28  36
ATOM     29  C   UNL     1      -2.139   5.468  -5.936  0.00  0.00    +0.044 C 
ATOM     30  C   UNL     1      -2.599   4.065  -6.237  0.00  0.00    -0.050 A 
ATOM     31  C   UNL     1      -3.881   3.670  -5.882  0.00  0.00    +0.005 A 
ATOM     32  C   UNL     1      -4.322   2.392  -6.147  0.00  0.00    +0.026 A 
ATOM     33  C   UNL     1      -3.475   1.487  -6.779  0.00  0.00    +0.047 A 
ATOM     34  N   UNL     1      -3.614   0.174  -7.171  0.00  0.00    -0.360 N 
ATOM     35  C   UNL     1      -2.458  -0.260  -7.760  0.00  0.00    +0.087 A 
ATOM     36  C   UNL     1      -1.550   0.730  -7.771  0.00  0.00    -0.021 A 
ATOM     37  C   UNL     1      -2.177   1.892  -7.137  0.00  0.00    +0.003 A 
ATOM     38  C   UNL     1      -1.753   3.194  -6.863  0.00  0.00    +0.013 A 
ATOM     39  H   UNL     1      -4.412  -0.363  -7.048  0.00  0.00    +0.165 HD
ENDBRANCH  28  36
ENDBRANCH  27  28
ENDBRANCH  23  27
ENDBRANCH   1  24
TORSDOF 5
