REMARK  Name = ZINC13445020
REMARK  4 active torsions:
REMARK  status: ('A' for Active; 'I' for Inactive)
REMARK    1  A    between atoms: C_6  and  C_7
REMARK    2  A    between atoms: C_8  and  C_22
REMARK    3  A    between atoms: N_10  and  C_12
REMARK    4  A    between atoms: C_14  and  N_20
REMARK                            x       y       z     vdW  Elec       q    Type
REMARK                         _______ _______ _______ _____ _____    ______ ____
ROOT
ATOM      1  C   UNL     1       0.002  -0.004   0.002  0.00  0.00    +0.121 A 
ATOM      2  C   UNL     1      -0.017   1.413   0.010  0.00  0.00    +0.121 A 
ATOM      3  N   UNL     1       1.251   1.783  -0.000  0.00  0.00    -0.146 NA
ATOM      4  N   UNL     1       1.990   0.732  -0.013  0.00  0.00    -0.143 N 
ATOM      5  N   UNL     1       1.280  -0.339  -0.012  0.00  0.00    -0.146 NA
ENDROOT
BRANCH   4   6
ATOM      6  C   UNL     1       3.390   0.750  -0.027  0.00  0.00    +0.163 A 
ATOM      7  C   UNL     1       4.119  -0.437  -0.036  0.00  0.00    +0.193 A 
ATOM      8  C   UNL     1       5.507  -0.379  -0.055  0.00  0.00    +0.156 A 
ATOM      9  N   UNL     1       6.137   0.787  -0.055  0.00  0.00    -0.212 NA
ATOM     10  C   UNL     1       5.476   1.936  -0.042  0.00  0.00    +0.156 A 
ATOM     11  C   UNL     1       4.088   1.957  -0.027  0.00  0.00    +0.193 A 
ATOM     12  F   UNL     1       3.421   3.132  -0.014  0.00  0.00    -0.199 F 
ATOM     13  N   UNL     1       6.183   3.136  -0.042  0.00  0.00    -0.341 N 
ATOM     14  F   UNL     1       3.485  -1.630  -0.030  0.00  0.00    -0.199 F 
ATOM     15  H   UNL     1       5.705   3.980  -0.032  0.00  0.00    +0.144 HD
ATOM     16  H   UNL     1       7.153   3.128  -0.052  0.00  0.00    +0.144 HD
BRANCH   8  17
ATOM     17  N   UNL     1       6.245  -1.560  -0.069  0.00  0.00    -0.341 N 
ATOM     18  H   UNL     1       7.215  -1.526  -0.079  0.00  0.00    +0.144 HD
ATOM     19  H   UNL     1       5.790  -2.417  -0.069  0.00  0.00    +0.144 HD
ENDBRANCH   8  17
ENDBRANCH   4   6
BRANCH   1  25
ATOM     20  C   UNL     1      -2.316  -0.577   0.718  0.00  0.00    +0.013 A 
ATOM     21  C   UNL     1      -3.402  -1.428   0.717  0.00  0.00    +0.039 A 
ATOM     22  C   UNL     1      -3.347  -2.625   0.021  0.00  0.00    +0.123 A 
ATOM     23  C   UNL     1      -2.204  -2.970  -0.681  0.00  0.00    +0.039 A 
ATOM     24  C   UNL     1      -1.115  -2.123  -0.690  0.00  0.00    +0.013 A 
ATOM     25  C   UNL     1      -1.166  -0.918   0.008  0.00  0.00    +0.004 A 
ATOM     26  F   UNL     1      -4.411  -3.457   0.027  0.00  0.00    -0.205 F 
ENDBRANCH   1  25
BRANCH   2  27
ATOM     27  C   UNL     1      -1.209   2.295   0.021  0.00  0.00    +0.007 A 
ATOM     28  C   UNL     1      -2.372   1.938  -0.668  0.00  0.00    +0.030 A 
ATOM     29  C   UNL     1      -3.461   2.785  -0.628  0.00  0.00    +0.111 A 
ATOM     30  N   UNL     1      -3.409   3.922   0.040  0.00  0.00    -0.263 NA
ATOM     31  C   UNL     1      -2.330   4.298   0.699  0.00  0.00    +0.111 A 
ATOM     32  C   UNL     1      -1.199   3.508   0.715  0.00  0.00    +0.030 A 
ENDBRANCH   2  27
TORSDOF 4
