REMARK  Name = ZINC13024603
REMARK  16 active torsions:
REMARK  status: ('A' for Active; 'I' for Inactive)
REMARK    1  A    between atoms: C_1  and  C_2
REMARK    2  A    between atoms: C_2  and  C_3
REMARK    3  A    between atoms: C_3  and  C_4
REMARK    4  A    between atoms: C_3  and  C_5
REMARK    5  A    between atoms: C_3  and  N_6
REMARK    6  A    between atoms: C_7  and  C_9
REMARK    7  A    between atoms: C_9  and  C_11
REMARK    8  A    between atoms: C_9  and  N_19
REMARK    9  A    between atoms: C_14  and  O_17
REMARK   10  A    between atoms: O_17  and  C_18
REMARK   11  A    between atoms: N_19  and  C_20
REMARK   12  A    between atoms: C_20  and  C_21
REMARK   13  A    between atoms: C_24  and  O_27
REMARK   14  A    between atoms: O_27  and  C_28
REMARK   15  A    between atoms: C_29  and  C_31
REMARK   16  A    between atoms: C_31  and  N_32
REMARK                            x       y       z     vdW  Elec       q    Type
REMARK                         _______ _______ _______ _____ _____    ______ ____
ROOT
ATOM      1  N   UNL     1      -5.593   3.720  -1.406  0.00  0.00    -0.280 N 
ATOM      2  C   UNL     1      -4.248   3.735  -1.323  0.00  0.00    +0.238 C 
ATOM      3  O   UNL     1      -3.581   3.918  -2.319  0.00  0.00    -0.274 OA
ENDROOT
BRANCH   1   4
ATOM      4  C   UNL     1      -6.247   3.822  -2.713  0.00  0.00    +0.193 C 
BRANCH   4   5
ATOM      5  C   UNL     1      -5.770   5.065  -3.418  0.00  0.00    -0.018 A 
ATOM      6  C   UNL     1      -6.295   6.298  -3.075  0.00  0.00    +0.009 A 
ATOM      7  C   UNL     1      -5.855   7.440  -3.716  0.00  0.00    +0.046 A 
ATOM      8  C   UNL     1      -4.895   7.348  -4.713  0.00  0.00    +0.120 A 
ATOM      9  C   UNL     1      -4.375   6.109  -5.060  0.00  0.00    +0.046 A 
ATOM     10  C   UNL     1      -4.813   4.971  -4.412  0.00  0.00    +0.009 A 
BRANCH   8  11
ATOM     11  O   UNL     1      -4.466   8.469  -5.350  0.00  0.00    -0.495 OA
ATOM     12  C   UNL     1      -5.045   9.709  -4.941  0.00  0.00    +0.277 C 
ENDBRANCH   8  11
ENDBRANCH   4   5
BRANCH   4  14
ATOM     13  N   UNL     1      -6.397   2.487  -4.790  0.00  0.00    -0.308 N 
ATOM     14  C   UNL     1      -5.904   2.611  -3.542  0.00  0.00    +0.239 C 
ATOM     15  O   UNL     1      -5.184   1.748  -3.086  0.00  0.00    -0.273 OA
ATOM     16  H   UNL     1      -6.974   3.177  -5.154  0.00  0.00    +0.149 HD
BRANCH  13  17
ATOM     17  C   UNL     1      -6.064   1.310  -5.595  0.00  0.00    +0.029 C 
ATOM     18  C   UNL     1      -4.548   1.237  -5.788  0.00  0.00    +0.031 C 
ATOM     19  C   UNL     1      -6.548   0.047  -4.879  0.00  0.00    +0.031 C 
BRANCH  17  21
ATOM     20  C   UNL     1      -6.399   0.186  -7.802  0.00  0.00    +0.006 C 
ATOM     21  C   UNL     1      -6.747   1.415  -6.960  0.00  0.00    +0.022 C 
ENDBRANCH  17  21
ENDBRANCH  13  17
ENDBRANCH   4  14
ENDBRANCH   1   4
BRANCH   1  22
ATOM     22  C   UNL     1      -6.401   3.604  -0.189  0.00  0.00    +0.144 C 
BRANCH  22  23
ATOM     23  C   UNL     1      -6.825   4.976   0.266  0.00  0.00    -0.030 A 
ATOM     24  C   UNL     1      -6.020   5.697   1.128  0.00  0.00    +0.009 A 
ATOM     25  C   UNL     1      -6.404   6.958   1.542  0.00  0.00    +0.046 A 
ATOM     26  C   UNL     1      -7.604   7.496   1.101  0.00  0.00    +0.120 A 
ATOM     27  C   UNL     1      -8.413   6.768   0.240  0.00  0.00    +0.046 A 
ATOM     28  C   UNL     1      -8.022   5.510  -0.176  0.00  0.00    +0.009 A 
BRANCH  26  29
ATOM     29  O   UNL     1      -7.987   8.734   1.510  0.00  0.00    -0.495 OA
ATOM     30  C   UNL     1      -7.105   9.425   2.396  0.00  0.00    +0.277 C 
ENDBRANCH  26  29
ENDBRANCH  22  23
ENDBRANCH   1  22
BRANCH   2  31
ATOM     31  C   UNL     1      -3.572   3.523   0.008  0.00  0.00    +0.241 C 
BRANCH  31  32
ATOM     32  N   UNL     1      -2.119   3.570  -0.169  0.00  0.00    -0.235 N 
ATOM     33  C   UNL     1      -1.290   2.510  -0.447  0.00  0.00    +0.090 A 
ATOM     34  C   UNL     1      -1.495   1.149  -0.649  0.00  0.00    +0.029 A 
ATOM     35  C   UNL     1      -0.430   0.333  -0.912  0.00  0.00    +0.002 A 
ATOM     36  C   UNL     1       0.856   0.852  -0.990  0.00  0.00    +0.002 A 
ATOM     37  C   UNL     1       1.083   2.184  -0.802  0.00  0.00    +0.032 A 
ATOM     38  C   UNL     1       0.009   3.042  -0.526  0.00  0.00    +0.113 A 
ATOM     39  N   UNL     1      -0.077   4.367  -0.298  0.00  0.00    -0.129 NA
ATOM     40  N   UNL     1      -1.300   4.706  -0.088  0.00  0.00    -0.064 NA
ENDBRANCH  31  32
ENDBRANCH   2  31
TORSDOF 11
