REMARK  Name = ZINC13500760
REMARK  15 active torsions:
REMARK  status: ('A' for Active; 'I' for Inactive)
REMARK    1  A    between atoms: C_1  and  C_2
REMARK    2  A    between atoms: C_2  and  C_3
REMARK    3  A    between atoms: C_3  and  C_4
REMARK    4  A    between atoms: C_4  and  C_6
REMARK    5  A    between atoms: C_4  and  N_74
REMARK    6  A    between atoms: N_10  and  C_11
REMARK    7  A    between atoms: C_11  and  C_12
REMARK    8  A    between atoms: C_11  and  C_13
REMARK    9  A    between atoms: C_11  and  C_14
REMARK   10  A    between atoms: C_15  and  C_16
REMARK   11  A    between atoms: C_15  and  N_74
REMARK   12  A    between atoms: C_16  and  C_17
REMARK   13  A    between atoms: C_21  and  C_23
REMARK   14  A    between atoms: C_24  and  C_25
REMARK   15  A    between atoms: C_24  and  N_74
REMARK                            x       y       z     vdW  Elec       q    Type
REMARK                         _______ _______ _______ _____ _____    ______ ____
ROOT
ATOM      1  N   UNL     1      -4.880   1.004   1.107  0.00  0.00    +0.389 N 
ATOM      2  H   UNL     1      -5.288   1.883   1.447  0.00  0.00    -0.080 HD
ENDROOT
BRANCH   1   3
ATOM      3  C   UNL     1      -3.636   0.731   1.856  0.00  0.00    +0.003 C 
BRANCH   3   4
ATOM      4  C   UNL     1      -3.738   1.387   3.209  0.00  0.00    +0.139 A 
ATOM      5  N   UNL     1      -4.822   1.520   3.935  0.00  0.00    -0.115 NA
ATOM      6  N   UNL     1      -4.500   2.132   5.022  0.00  0.00    -0.023 NA
ATOM      7  N   UNL     1      -3.239   2.393   5.009  0.00  0.00    -0.043 NA
ATOM      8  N   UNL     1      -2.733   1.944   3.910  0.00  0.00    -0.226 N 
BRANCH   8   9
ATOM      9  C   UNL     1      -1.329   2.029   3.500  0.00  0.00    +0.059 C 
ATOM     10  C   UNL     1      -1.200   2.989   2.316  0.00  0.00    +0.036 C 
ATOM     11  C   UNL     1      -0.487   2.546   4.669  0.00  0.00    +0.036 C 
ATOM     12  C   UNL     1      -0.833   0.642   3.088  0.00  0.00    +0.036 C 
ENDBRANCH   8   9
ENDBRANCH   3   4
BRANCH   3  13
ATOM     13  C   UNL     1      -3.441  -0.776   2.033  0.00  0.00    -0.008 C 
BRANCH  13  15
ATOM     14  C   UNL     1      -2.901  -2.913   0.857  0.00  0.00    +0.004 C 
ATOM     15  C   UNL     1      -3.172  -1.419   0.671  0.00  0.00    -0.005 C 
ENDBRANCH  13  15
ENDBRANCH   3  13
ENDBRANCH   1   3
BRANCH   1  16
ATOM     16  C   UNL     1      -5.850  -0.090   1.322  0.00  0.00    -0.073 C 
BRANCH  16  17
ATOM     17  C   UNL     1      -6.370  -0.012   2.759  0.00  0.00    +0.016 C 
BRANCH  17  18
ATOM     18  C   UNL     1      -7.487  -1.006   2.944  0.00  0.00    -0.049 A 
ATOM     19  C   UNL     1      -8.795  -0.628   2.702  0.00  0.00    +0.003 A 
ATOM     20  C   UNL     1      -9.820  -1.541   2.868  0.00  0.00    +0.001 A 
ATOM     21  C   UNL     1      -9.538  -2.829   3.285  0.00  0.00    +0.003 A 
ATOM     22  C   UNL     1      -8.231  -3.204   3.531  0.00  0.00    -0.050 A 
ATOM     23  C   UNL     1      -7.205  -2.293   3.362  0.00  0.00    +0.007 A 
ATOM     24  C   UNL     1      -7.923  -4.608   3.986  0.00  0.00    +0.044 C 
ENDBRANCH  17  18
ENDBRANCH  16  17
ENDBRANCH   1  16
BRANCH   1  25
ATOM     25  C   UNL     1      -4.583   1.139  -0.335  0.00  0.00    -0.037 C 
BRANCH  25  26
ATOM     26  C   UNL     1      -3.838   2.430  -0.558  0.00  0.00    +0.001 A 
ATOM     27  C   UNL     1      -2.491   2.412  -0.729  0.00  0.00    +0.017 A 
ATOM     28  C   UNL     1      -1.797   3.681  -0.947  0.00  0.00    +0.002 A 
ATOM     29  C   UNL     1      -0.408   3.724  -1.122  0.00  0.00    +0.059 A 
ATOM     30  C   UNL     1       0.218   4.934  -1.319  0.00  0.00    +0.167 A 
ATOM     31  C   UNL     1      -0.528   6.120  -1.341  0.00  0.00    +0.168 A 
ATOM     32  C   UNL     1      -1.899   6.087  -1.164  0.00  0.00    +0.075 A 
ATOM     33  C   UNL     1      -2.546   4.874  -0.963  0.00  0.00    +0.053 A 
ATOM     34  N   UNL     1      -3.913   4.823  -0.783  0.00  0.00    -0.322 N 
ATOM     35  H   UNL     1      -4.428   5.644  -0.798  0.00  0.00    +0.169 HD
ATOM     36  C   UNL     1      -4.542   3.650  -0.587  0.00  0.00    +0.251 A 
ATOM     37  O   UNL     1      -5.750   3.643  -0.431  0.00  0.00    -0.268 OA
ATOM     38  O   UNL     1       0.325   7.164  -1.551  0.00  0.00    -0.453 OA
ATOM     39  C   UNL     1       1.638   6.657  -1.247  0.00  0.00    +0.466 C 
ATOM     40  O   UNL     1       1.533   5.246  -1.516  0.00  0.00    -0.453 OA
ENDBRANCH  25  26
ENDBRANCH   1  25
TORSDOF 10
