REMARK  Name = ZINC63478311
REMARK  10 active torsions:
REMARK  status: ('A' for Active; 'I' for Inactive)
REMARK    1  A    between atoms: C_1  and  C_2
REMARK    2  A    between atoms: C_2  and  C_4
REMARK    3  A    between atoms: C_2  and  S_20
REMARK    4  A    between atoms: N_6  and  C_7
REMARK    5  A    between atoms: C_7  and  C_8
REMARK    6  A    between atoms: C_8  and  C_9
REMARK    7  A    between atoms: C_13  and  O_18
REMARK    8  A    between atoms: O_18  and  C_19
REMARK    9  A    between atoms: S_20  and  C_21
REMARK   10  A    between atoms: N_26  and  C_27
REMARK                            x       y       z     vdW  Elec       q    Type
REMARK                         _______ _______ _______ _____ _____    ______ ____
ROOT
ATOM      1  C   UNL     1       0.707  -0.490  -1.238  0.00  0.00    +0.226 C 
ATOM      2  O   UNL     1       0.066  -0.782  -2.225  0.00  0.00    -0.275 OA
ATOM      3  N   UNL     1       2.051  -0.601  -1.250  0.00  0.00    -0.314 N 
ATOM      4  H   UNL     1       2.563  -0.367  -0.460  0.00  0.00    +0.149 HD
ENDROOT
BRANCH   1   6
ATOM      5  C   UNL     1      -0.019   1.526   0.010  0.00  0.00    +0.029 C 
ATOM      6  C   UNL     1       0.002  -0.004   0.002  0.00  0.00    +0.133 C 
BRANCH   6   7
ATOM      7  S   UNL     1      -1.700  -0.632   0.015  0.00  0.00    -0.100 S 
BRANCH   7   8
ATOM      8  C   UNL     1      -2.354  -0.095   1.619  0.00  0.00    +0.294 C 
ATOM      9  N   UNL     1      -1.514  -0.605   2.710  0.00  0.00    -0.135 NA
ATOM     10  N   UNL     1      -1.039   0.338   3.344  0.00  0.00    -0.066 NA
ATOM     11  N   UNL     1      -1.432   1.581   2.846  0.00  0.00    -0.164 N 
ATOM     12  N   UNL     1      -2.278   1.373   1.739  0.00  0.00    -0.201 N 
ATOM     13  H   UNL     1      -1.168   2.444   3.203  0.00  0.00    +0.195 HD
BRANCH  12  14
ATOM     14  C   UNL     1      -2.901   2.334   0.938  0.00  0.00    +0.052 A 
ATOM     15  C   UNL     1      -3.712   1.939  -0.119  0.00  0.00    +0.026 A 
ATOM     16  C   UNL     1      -4.327   2.890  -0.909  0.00  0.00    +0.022 A 
ATOM     17  C   UNL     1      -4.135   4.236  -0.649  0.00  0.00    +0.041 A 
ATOM     18  C   UNL     1      -3.328   4.632   0.403  0.00  0.00    +0.022 A 
ATOM     19  C   UNL     1      -2.716   3.685   1.200  0.00  0.00    +0.026 A 
ATOM     20 CL   UNL     1      -4.910   5.429  -1.644  0.00  0.00    -0.084 Cl
ENDBRANCH  12  14
ENDBRANCH   7   8
ENDBRANCH   6   7
ENDBRANCH   1   6
BRANCH   3  21
ATOM     21  C   UNL     1       2.736  -1.073  -2.455  0.00  0.00    +0.108 C 
BRANCH  21  22
ATOM     22  C   UNL     1       4.245  -1.105  -2.204  0.00  0.00    +0.052 C 
BRANCH  22  23
ATOM     23  C   UNL     1       4.951  -1.591  -3.443  0.00  0.00    -0.040 C 
ATOM     24  C   UNL     1       5.498  -0.831  -4.417  0.00  0.00    -0.001 A 
ATOM     25  C   UNL     1       5.597   0.623  -4.603  0.00  0.00    +0.013 A 
ATOM     26  C   UNL     1       6.218   1.103  -5.702  0.00  0.00    +0.046 A 
ATOM     27  C   UNL     1       6.771   0.245  -6.672  0.00  0.00    +0.122 A 
ATOM     28  C   UNL     1       6.717  -1.107  -6.565  0.00  0.00    +0.071 A 
ATOM     29  C   UNL     1       6.088  -1.713  -5.449  0.00  0.00    +0.046 A 
ATOM     30  N   UNL     1       5.911  -2.973  -5.125  0.00  0.00    -0.380 N 
ATOM     31  C   UNL     1       5.194  -3.029  -3.846  0.00  0.00    +0.144 C 
ATOM     32  H   UNL     1       6.207  -3.738  -5.642  0.00  0.00    +0.160 HD
BRANCH  27  33
ATOM     33  O   UNL     1       7.380   0.790  -7.753  0.00  0.00    -0.495 OA
ATOM     34  C   UNL     1       7.415   2.217  -7.828  0.00  0.00    +0.277 C 
ENDBRANCH  27  33
ENDBRANCH  22  23
ENDBRANCH  21  22
ENDBRANCH   3  21
TORSDOF 8
