REMARK  Name = ZINC06135061
REMARK  12 active torsions:
REMARK  status: ('A' for Active; 'I' for Inactive)
REMARK    1  A    between atoms: C_1  and  C_2
REMARK    2  A    between atoms: C_2  and  C_3
REMARK    3  A    between atoms: C_2  and  C_4
REMARK    4  A    between atoms: C_4  and  C_5
REMARK    5  A    between atoms: C_5  and  C_7
REMARK    6  A    between atoms: C_5  and  N_17
REMARK    7  A    between atoms: N_9  and  C_10
REMARK    8  A    between atoms: C_10  and  C_11
REMARK    9  A    between atoms: N_17  and  C_18
REMARK   10  A    between atoms: C_25  and  C_27
REMARK   11  A    between atoms: C_27  and  N_28
REMARK   12  A    between atoms: C_30  and  C_33
REMARK                            x       y       z     vdW  Elec       q    Type
REMARK                         _______ _______ _______ _____ _____    ______ ____
ROOT
ATOM      1  N   UNL     1      -2.070   1.403  -1.463  0.00  0.00    -0.255 N 
ATOM      2  C   UNL     1      -2.579   2.302  -0.598  0.00  0.00    +0.244 C 
ATOM      3  O   UNL     1      -3.069   1.929   0.446  0.00  0.00    -0.273 OA
ENDROOT
BRANCH   1   4
ATOM      4  C   UNL     1      -1.504   1.833  -2.670  0.00  0.00    +0.072 A 
ATOM      5  C   UNL     1      -2.311   2.055  -3.777  0.00  0.00    +0.026 A 
ATOM      6  C   UNL     1      -1.750   2.480  -4.965  0.00  0.00    +0.002 A 
ATOM      7  C   UNL     1      -0.385   2.685  -5.054  0.00  0.00    +0.003 A 
ATOM      8  C   UNL     1       0.423   2.465  -3.954  0.00  0.00    +0.040 A 
ATOM      9  C   UNL     1      -0.133   2.045  -2.759  0.00  0.00    +0.145 A 
ATOM     10  F   UNL     1       0.656   1.836  -1.683  0.00  0.00    -0.204 F 
ENDBRANCH   1   4
BRANCH   1  11
ATOM     11  C   UNL     1      -2.110  -0.026  -1.141  0.00  0.00    +0.167 C 
BRANCH  11  12
ATOM     12  C   UNL     1      -3.542  -0.492  -1.097  0.00  0.00    +0.234 C 
ATOM     13  O   UNL     1      -4.440   0.317  -0.999  0.00  0.00    -0.274 OA
ATOM     14  N   UNL     1      -3.825  -1.808  -1.167  0.00  0.00    -0.311 N 
ATOM     15  H   UNL     1      -3.106  -2.459  -1.177  0.00  0.00    +0.149 HD
BRANCH  14  16
ATOM     16  C   UNL     1      -5.219  -2.255  -1.227  0.00  0.00    +0.135 C 
BRANCH  16  17
ATOM     17  C   UNL     1      -5.262  -3.783  -1.300  0.00  0.00    +0.135 C 
ATOM     18  C   UNL     1      -6.728  -4.275  -1.400  0.00  0.00    +0.035 C 
ATOM     19  C   UNL     1      -6.529  -5.652  -2.090  0.00  0.00    +0.031 C 
ATOM     20  C   UNL     1      -5.327  -5.382  -3.020  0.00  0.00    +0.160 C 
ATOM     21  O   UNL     1      -4.627  -4.242  -2.504  0.00  0.00    -0.375 OA
ENDBRANCH  16  17
ENDBRANCH  14  16
ENDBRANCH  11  12
BRANCH  11  22
ATOM     22  C   UNL     1      -1.455  -0.260   0.222  0.00  0.00    +0.035 C 
BRANCH  22  24
ATOM     23  C   UNL     1      -0.429  -2.415  -0.516  0.00  0.00    +0.007 C 
ATOM     24  C   UNL     1      -1.372  -1.763   0.497  0.00  0.00    -0.015 C 
ATOM     25  C   UNL     1      -0.839  -1.994   1.912  0.00  0.00    +0.007 C 
ENDBRANCH  22  24
ENDBRANCH  11  22
ENDBRANCH   1  11
BRANCH   2  26
ATOM     26  C   UNL     1      -2.539   3.772  -0.930  0.00  0.00    +0.264 C 
BRANCH  26  27
ATOM     27  N   UNL     1      -3.149   4.535   0.162  0.00  0.00    -0.154 N 
ATOM     28  N   UNL     1      -4.398   4.840   0.251  0.00  0.00    -0.130 NA
ATOM     29  C   UNL     1      -4.567   5.527   1.363  0.00  0.00    +0.205 A 
ATOM     30  N   UNL     1      -3.362   5.623   1.942  0.00  0.00    -0.108 NA
ATOM     31  N   UNL     1      -2.523   5.003   1.185  0.00  0.00    -0.045 NA
BRANCH  29  32
ATOM     32  C   UNL     1      -5.844   6.085   1.875  0.00  0.00    +0.023 A 
ATOM     33  C   UNL     1      -7.025   5.897   1.159  0.00  0.00    +0.014 A 
ATOM     34  C   UNL     1      -8.210   6.418   1.638  0.00  0.00    +0.039 A 
ATOM     35  C   UNL     1      -8.226   7.127   2.829  0.00  0.00    +0.123 A 
ATOM     36  C   UNL     1      -7.054   7.316   3.543  0.00  0.00    +0.039 A 
ATOM     37  C   UNL     1      -5.866   6.793   3.074  0.00  0.00    +0.014 A 
ATOM     38  F   UNL     1      -9.388   7.635   3.294  0.00  0.00    -0.205 F 
ENDBRANCH  29  32
ENDBRANCH  26  27
ENDBRANCH   2  26
TORSDOF 10
