REMARK  Name = ZINC33435674
REMARK  13 active torsions:
REMARK  status: ('A' for Active; 'I' for Inactive)
REMARK    1  A    between atoms: C_1  and  C_2
REMARK    2  A    between atoms: C_2  and  C_3
REMARK    3  A    between atoms: C_3  and  C_4
REMARK    4  A    between atoms: C_3  and  C_5
REMARK    5  A    between atoms: C_3  and  N_18
REMARK    6  A    between atoms: N_7  and  C_8
REMARK    7  A    between atoms: C_10  and  O_16
REMARK    8  A    between atoms: C_12  and  O_14
REMARK    9  A    between atoms: O_14  and  C_15
REMARK   10  A    between atoms: O_16  and  C_17
REMARK   11  A    between atoms: N_18  and  C_19
REMARK   12  A    between atoms: C_19  and  C_20
REMARK   13  A    between atoms: C_32  and  C_34
REMARK                            x       y       z     vdW  Elec       q    Type
REMARK                         _______ _______ _______ _____ _____    ______ ____
ROOT
ATOM      1  N   UNL     1      -1.881  -0.788  -0.729  0.00  0.00    -0.283 N 
ATOM      2  C   UNL     1      -0.537  -0.760  -0.634  0.00  0.00    +0.247 C 
ATOM      3  O   UNL     1       0.140  -1.422  -1.396  0.00  0.00    -0.270 OA
ENDROOT
BRANCH   2   4
ATOM      4  C   UNL     1       0.114   0.077   0.397  0.00  0.00    +0.037 A 
ATOM      5  C   UNL     1      -0.610   1.075   1.049  0.00  0.00    +0.013 A 
ATOM      6  C   UNL     1       0.002   1.849   2.014  0.00  0.00    +0.001 A 
ATOM      7  C   UNL     1       1.334   1.644   2.327  0.00  0.00    +0.000 A 
ATOM      8  C   UNL     1       2.059   0.659   1.680  0.00  0.00    +0.001 A 
ATOM      9  C   UNL     1       1.458  -0.125   0.718  0.00  0.00    +0.013 A 
ENDBRANCH   2   4
BRANCH   1  10
ATOM     10  C   UNL     1      -2.701  -0.128   0.291  0.00  0.00    +0.111 C 
ATOM     11  C   UNL     1      -2.969   1.319  -0.128  0.00  0.00    +0.042 C 
BRANCH  10  12
ATOM     12  C   UNL     1      -1.971  -0.143   1.609  0.00  0.00    +0.241 C 
ATOM     13  O   UNL     1      -2.179   0.729   2.427  0.00  0.00    -0.273 OA
ATOM     14  N   UNL     1      -1.088  -1.124   1.880  0.00  0.00    -0.284 N 
ATOM     15  H   UNL     1      -0.825  -1.857   1.103  0.00  0.00    +0.155 HD
BRANCH  14  16
ATOM     16  C   UNL     1      -0.507  -1.212   3.150  0.00  0.00    +0.040 A 
ATOM     17  C   UNL     1      -0.644  -0.164   4.050  0.00  0.00    +0.069 A 
ATOM     18  C   UNL     1      -0.071  -0.253   5.309  0.00  0.00    +0.125 A 
ATOM     19  C   UNL     1       0.647  -1.384   5.666  0.00  0.00    +0.091 A 
ATOM     20  C   UNL     1       0.789  -2.429   4.766  0.00  0.00    +0.125 A 
ATOM     21  C   UNL     1       0.213  -2.344   3.508  0.00  0.00    +0.069 A 
BRANCH  20  22
ATOM     22  O   UNL     1       1.493  -3.537   5.116  0.00  0.00    -0.495 OA
ATOM     23  C   UNL     1       2.060  -3.558   6.428  0.00  0.00    +0.277 C 
ENDBRANCH  20  22
BRANCH  18  24
ATOM     24  O   UNL     1      -0.209   0.771   6.192  0.00  0.00    -0.495 OA
ATOM     25  C   UNL     1       0.412   0.615   7.469  0.00  0.00    +0.277 C 
ENDBRANCH  18  24
ENDBRANCH  14  16
ENDBRANCH  10  12
BRANCH  10  27
ATOM     26  C   UNL     1      -3.777  -2.258   1.031  0.00  0.00    +0.006 C 
ATOM     27  C   UNL     1      -4.030  -0.872   0.435  0.00  0.00    +0.032 C 
ENDBRANCH  10  27
ENDBRANCH   1  10
BRANCH   1  28
ATOM     28  C   UNL     1      -2.522  -1.478  -1.851  0.00  0.00    +0.111 C 
BRANCH  28  29
ATOM     29  C   UNL     1      -2.727  -0.494  -3.004  0.00  0.00    -0.007 C 
ATOM     30  C   UNL     1      -1.365  -0.036  -3.530  0.00  0.00    +0.002 C 
ATOM     31  C   UNL     1      -0.612  -1.257  -4.069  0.00  0.00    -0.018 C 
ATOM     32  C   UNL     1      -1.444  -1.901  -5.177  0.00  0.00    -0.078 C 
ATOM     33  N   UNL     1      -2.752  -2.321  -4.648  0.00  0.00    +0.382 N 
ATOM     34  C   UNL     1      -3.511  -1.182  -4.127  0.00  0.00    -0.064 C 
ATOM     35  C   UNL     1      -4.847  -1.662  -3.545  0.00  0.00    -0.015 C 
ATOM     36  C   UNL     1      -5.648  -2.396  -4.622  0.00  0.00    -0.003 C 
ATOM     37  C   UNL     1      -4.812  -3.570  -5.141  0.00  0.00    -0.019 C 
ATOM     38  C   UNL     1      -3.496  -3.030  -5.701  0.00  0.00    -0.078 C 
ATOM     39  H   UNL     1      -2.594  -3.003  -3.800  0.00  0.00    -0.081 HD
ENDBRANCH  28  29
ENDBRANCH   1  28
TORSDOF 9
