REMARK  Name = ZINC23828086
REMARK  6 active torsions:
REMARK  status: ('A' for Active; 'I' for Inactive)
REMARK    1  A    between atoms: C_3  and  S_12
REMARK    2  A    between atoms: C_6  and  O_7
REMARK    3  A    between atoms: O_7  and  C_8
REMARK    4  A    between atoms: S_12  and  N_15
REMARK    5  A    between atoms: N_18  and  C_21
REMARK    6  A    between atoms: C_21  and  C_22
REMARK                            x       y       z     vdW  Elec       q    Type
REMARK                         _______ _______ _______ _____ _____    ______ ____
ROOT
ATOM      1  N   UNL     1      -0.993   2.209   1.554  0.00  0.00    -0.180 NA
ATOM      2  C   UNL     1      -0.242   1.512   0.499  0.00  0.00    +0.091 C 
ATOM      3  C   UNL     1      -0.898   1.815  -0.852  0.00  0.00    -0.061 C 
ATOM      4  N   UNL     1      -1.007   3.270  -1.025  0.00  0.00    +0.387 N 
ATOM      5  C   UNL     1      -1.882   3.863  -0.005  0.00  0.00    -0.061 C 
ATOM      6  C   UNL     1      -1.266   3.645   1.381  0.00  0.00    +0.091 C 
ATOM      7  H   UNL     1      -0.002   3.699  -0.895  0.00  0.00    -0.081 HD
ENDROOT
BRANCH   1   8
ATOM      8  S   UNL     1      -1.523   1.398   2.897  0.00  0.00    +0.061 S 
ATOM      9  O   UNL     1      -2.628   2.132   3.406  0.00  0.00    -0.153 OA
ATOM     10  O   UNL     1      -1.622   0.028   2.532  0.00  0.00    -0.153 OA
BRANCH   8  13
ATOM     11  C   UNL     1       0.767   2.646   5.952  0.00  0.00    +0.048 A 
ATOM     12  C   UNL     1      -0.232   2.560   5.002  0.00  0.00    +0.032 A 
ATOM     13  C   UNL     1      -0.247   1.505   4.108  0.00  0.00    +0.106 A 
ATOM     14  C   UNL     1       0.734   0.532   4.165  0.00  0.00    +0.032 A 
ATOM     15  C   UNL     1       1.738   0.618   5.110  0.00  0.00    +0.048 A 
ATOM     16  C   UNL     1       1.756   1.674   6.008  0.00  0.00    +0.130 A 
BRANCH  16  17
ATOM     17  O   UNL     1       2.740   1.758   6.942  0.00  0.00    -0.406 OA
BRANCH  17  18
ATOM     18  C   UNL     1       3.724   0.722   6.941  0.00  0.00    +0.575 C 
ATOM     19  F   UNL     1       4.379   0.702   5.705  0.00  0.00    -0.133 F 
ATOM     20  F   UNL     1       4.655   0.962   7.958  0.00  0.00    -0.133 F 
ATOM     21  F   UNL     1       3.103  -0.512   7.159  0.00  0.00    -0.133 F 
ENDBRANCH  17  18
ENDBRANCH  16  17
ENDBRANCH   8  13
ENDBRANCH   1   8
BRANCH   4  22
ATOM     22  C   UNL     1      -1.472   3.606  -2.377  0.00  0.00    +0.019 C 
BRANCH  22  23
ATOM     23  C   UNL     1      -2.874   3.090  -2.569  0.00  0.00    +0.204 C 
ATOM     24  O   UNL     1      -3.393   2.411  -1.709  0.00  0.00    -0.277 OA
ATOM     25  N   UNL     1      -3.552   3.382  -3.697  0.00  0.00    -0.242 N 
ATOM     26  C   UNL     1      -4.806   2.920  -3.869  0.00  0.00    +0.303 C 
ATOM     27  O   UNL     1      -5.326   2.239  -3.007  0.00  0.00    -0.253 OA
ATOM     28  N   UNL     1      -5.484   3.212  -4.997  0.00  0.00    -0.313 N 
ATOM     29  H   UNL     1      -3.081   3.998  -4.477  0.00  0.00    +0.159 HD
ATOM     30  H   UNL     1      -6.507   2.835  -5.137  0.00  0.00    +0.146 HD
ATOM     31  H   UNL     1      -5.013   3.828  -5.777  0.00  0.00    +0.146 HD
ENDBRANCH  22  23
ENDBRANCH   4  22
TORSDOF 6
