REMARK  Name = ZINC11913617
REMARK  11 active torsions:
REMARK  status: ('A' for Active; 'I' for Inactive)
REMARK    1  A    between atoms: C_1  and  C_2
REMARK    2  A    between atoms: C_2  and  C_4
REMARK    3  A    between atoms: C_7  and  N_10
REMARK    4  A    between atoms: C_15  and  C_16
REMARK    5  A    between atoms: C_15  and  N_70
REMARK    6  A    between atoms: C_24  and  N_26
REMARK    7  A    between atoms: N_26  and  C_27
REMARK    8  A    between atoms: C_27  and  C_28
REMARK    9  A    between atoms: C_28  and  C_29
REMARK   10  A    between atoms: C_34  and  O_35
REMARK   11  A    between atoms: O_35  and  C_36
REMARK                            x       y       z     vdW  Elec       q    Type
REMARK                         _______ _______ _______ _____ _____    ______ ____
ROOT
ATOM      1  C   UNL     1       1.106   2.017   0.002  0.00  0.00    +0.115 A 
ATOM      2  N   UNL     1      -0.016   1.337   0.009  0.00  0.00    -0.234 NA
ATOM      3  C   UNL     1       0.002  -0.004   0.002  0.00  0.00    +0.076 A 
ATOM      4  C   UNL     1      -1.176  -0.763   0.009  0.00  0.00    +0.028 A 
ATOM      5  C   UNL     1      -1.101  -2.124   0.000  0.00  0.00    +0.002 A 
ATOM      6  C   UNL     1       0.130  -2.774  -0.015  0.00  0.00    +0.001 A 
ATOM      7  C   UNL     1       1.296  -2.066  -0.023  0.00  0.00    +0.013 A 
ATOM      8  C   UNL     1       1.253  -0.667  -0.013  0.00  0.00    +0.040 A 
ATOM      9  C   UNL     1       2.429   0.122  -0.020  0.00  0.00    +0.130 A 
ATOM     10  N   UNL     1       2.297   1.442  -0.012  0.00  0.00    -0.219 NA
ENDROOT
BRANCH   9  11
ATOM     11  N   UNL     1       3.676  -0.465  -0.035  0.00  0.00    -0.328 N 
ATOM     12  H   UNL     1       3.757  -1.432  -0.041  0.00  0.00    +0.147 HD
BRANCH  11  13
ATOM     13  C   UNL     1       4.879   0.371  -0.042  0.00  0.00    +0.107 C 
BRANCH  13  14
ATOM     14  C   UNL     1       6.121  -0.523  -0.058  0.00  0.00    +0.057 C 
BRANCH  14  15
ATOM     15  C   UNL     1       7.359   0.337  -0.065  0.00  0.00    -0.004 A 
ATOM     16  C   UNL     1       7.978   0.647  -1.261  0.00  0.00    +0.007 A 
ATOM     17  C   UNL     1       9.111   1.440  -1.268  0.00  0.00    +0.000 A 
ATOM     18  C   UNL     1       9.632   1.916  -0.080  0.00  0.00    +0.004 A 
ATOM     19  C   UNL     1       9.020   1.605   1.119  0.00  0.00    +0.046 A 
ATOM     20  C   UNL     1       7.880   0.813   1.129  0.00  0.00    +0.123 A 
BRANCH  20  21
ATOM     21  O   UNL     1       7.276   0.505   2.306  0.00  0.00    -0.495 OA
ATOM     22  C   UNL     1       7.868   1.030   3.496  0.00  0.00    +0.277 C 
ENDBRANCH  20  21
ENDBRANCH  14  15
ENDBRANCH  13  14
ENDBRANCH  11  13
ENDBRANCH   9  11
BRANCH   1  23
ATOM     23  C   UNL     1       1.034   3.523   0.011  0.00  0.00    -0.001 C 
BRANCH  23  29
ATOM     24  N   UNL     1       0.026   5.505   3.603  0.00  0.00    -0.333 N 
ATOM     25  C   UNL     1       1.257   5.915   2.912  0.00  0.00    +0.086 C 
ATOM     26  C   UNL     1       1.193   5.463   1.451  0.00  0.00    -0.059 C 
ATOM     27  C   UNL     1      -0.207   3.595   2.090  0.00  0.00    -0.059 C 
ATOM     28  C   UNL     1      -0.143   4.046   3.550  0.00  0.00    +0.086 C 
ATOM     29  N   UNL     1       1.045   3.993   1.413  0.00  0.00    +0.386 N 
ATOM     30  H   UNL     1       1.840   3.564   1.902  0.00  0.00    -0.081 HD
BRANCH  24  34
ATOM     31  C   UNL     1      -0.002   6.866   7.525  0.00  0.00    +0.017 A 
ATOM     32  C   UNL     1      -1.082   6.121   7.032  0.00  0.00    +0.013 A 
ATOM     33  C   UNL     1      -1.068   5.676   5.741  0.00  0.00    +0.024 A 
ATOM     34  C   UNL     1       0.017   5.960   4.915  0.00  0.00    +0.030 A 
ATOM     35  C   UNL     1       1.095   6.696   5.403  0.00  0.00    +0.024 A 
ATOM     36  C   UNL     1       1.087   7.150   6.691  0.00  0.00    +0.013 A 
BRANCH  31  38
ATOM     37  C   UNL     1       1.150   8.147   9.440  0.00  0.00    +0.091 C 
ATOM     38  C   UNL     1      -0.012   7.347   8.911  0.00  0.00    +0.160 C 
ATOM     39  O   UNL     1      -0.956   7.100   9.632  0.00  0.00    -0.292 OA
ENDBRANCH  31  38
ENDBRANCH  24  34
ENDBRANCH  23  29
ENDBRANCH   1  23
TORSDOF 9
