REMARK  Name = ZINC43548250
REMARK  9 active torsions:
REMARK  status: ('A' for Active; 'I' for Inactive)
REMARK    1  A    between atoms: C_1  and  C_2
REMARK    2  A    between atoms: N_9  and  C_10
REMARK    3  A    between atoms: C_10  and  C_11
REMARK    4  A    between atoms: C_14  and  C_36
REMARK    5  A    between atoms: C_17  and  O_35
REMARK    6  A    between atoms: C_19  and  C_23
REMARK    7  A    between atoms: C_23  and  C_25
REMARK    8  A    between atoms: C_23  and  C_26
REMARK    9  A    between atoms: N_31  and  C_34
REMARK                            x       y       z     vdW  Elec       q    Type
REMARK                         _______ _______ _______ _____ _____    ______ ____
ROOT
ATOM      1  C   UNL     1       1.039   1.688  -1.029  0.00  0.00    +0.014 C 
ATOM      2  C   UNL     1       0.572   0.248  -0.808  0.00  0.00    +0.039 C 
ATOM      3  C   UNL     1      -0.942   0.220  -0.677  0.00  0.00    +0.031 A 
ATOM      4  C   UNL     1      -1.541  -0.573   0.246  0.00  0.00    +0.013 A 
ATOM      5  S   UNL     1      -3.261  -0.241  -0.014  0.00  0.00    -0.059 S 
ATOM      6  C   UNL     1      -3.082   0.873  -1.265  0.00  0.00    +0.137 A 
ATOM      7  N   UNL     1      -1.778   0.939  -1.423  0.00  0.00    -0.340 N 
ATOM      8  N   UNL     1      -4.070   1.554  -1.960  0.00  0.00    -0.321 N 
ATOM      9  C   UNL     1      -0.882  -1.484   1.224  0.00  0.00    +0.051 C 
ATOM     10  C   UNL     1       0.585  -1.661   0.825  0.00  0.00    -0.022 C 
ATOM     11  C   UNL     1       1.203  -0.303   0.476  0.00  0.00    +0.033 C 
ATOM     12  C   UNL     1       2.701  -0.523   0.210  0.00  0.00    +0.123 C 
ATOM     13  C   UNL     1       2.855  -1.457  -0.993  0.00  0.00    +0.029 C 
ATOM     14  C   UNL     1       2.192  -2.803  -0.699  0.00  0.00    +0.007 C 
ATOM     15  C   UNL     1       0.709  -2.591  -0.380  0.00  0.00    +0.008 C 
ATOM     16  C   UNL     1       1.359  -2.256   2.003  0.00  0.00    +0.012 C 
ATOM     17  H   UNL     1      -3.827   2.174  -2.666  0.00  0.00    +0.148 HD
ATOM     18  H   UNL     1      -1.416   1.529  -2.103  0.00  0.00    +0.167 HD
ENDROOT
BRANCH  13  19
ATOM     19  C   UNL     1       4.342  -1.677  -1.278  0.00  0.00    +0.078 C 
ATOM     20  C   UNL     1       5.007  -0.334  -1.585  0.00  0.00    +0.017 C 
BRANCH  19  21
ATOM     21  C   UNL     1       4.495  -2.596  -2.463  0.00  0.00    +0.219 C 
ATOM     22  O   UNL     1       3.628  -2.644  -3.309  0.00  0.00    -0.275 OA
ATOM     23  N   UNL     1       5.596  -3.365  -2.582  0.00  0.00    -0.299 N 
ATOM     24  C   UNL     1       6.708  -3.244  -1.627  0.00  0.00    +0.123 C 
ATOM     25  C   UNL     1       7.052  -4.641  -1.100  0.00  0.00    +0.103 C 
ATOM     26  N   UNL     1       7.303  -5.540  -2.235  0.00  0.00    -0.302 NA
ATOM     27  C   UNL     1       6.100  -5.701  -3.063  0.00  0.00    +0.103 C 
ATOM     28  C   UNL     1       5.714  -4.351  -3.666  0.00  0.00    +0.123 C 
ATOM     29  C   UNL     1       7.803  -6.842  -1.774  0.00  0.00    +0.105 C 
ENDBRANCH  19  21
ENDBRANCH  13  19
BRANCH  12  30
ATOM     30  O   UNL     1       3.310  -1.115   1.360  0.00  0.00    -0.391 OA
ATOM     31  H   UNL     1       4.257  -1.282   1.262  0.00  0.00    +0.210 HD
ENDBRANCH  12  30
BRANCH   8  32
ATOM     32  C   UNL     1      -5.480   1.339  -1.628  0.00  0.00    +0.130 C 
BRANCH  32  33
ATOM     33  C   UNL     1      -6.343   2.192  -2.522  0.00  0.00    -0.016 C 
ATOM     34  C   UNL     1      -7.291   1.639  -3.237  0.00  0.00    +0.005 C 
ENDBRANCH  32  33
ENDBRANCH   8  32
TORSDOF 5
