REMARK  Name = ZINC20992536
REMARK  11 active torsions:
REMARK  status: ('A' for Active; 'I' for Inactive)
REMARK    1  A    between atoms: C_1  and  C_2
REMARK    2  A    between atoms: C_2  and  C_3
REMARK    3  A    between atoms: C_3  and  C_4
REMARK    4  A    between atoms: C_4  and  C_5
REMARK    5  A    between atoms: C_5  and  N_6
REMARK    6  A    between atoms: C_15  and  S_16
REMARK    7  A    between atoms: S_16  and  C_17
REMARK    8  A    between atoms: C_17  and  C_19
REMARK    9  A    between atoms: C_17  and  C_20
REMARK   10  A    between atoms: N_22  and  C_23
REMARK   11  A    between atoms: C_23  and  C_24
REMARK                            x       y       z     vdW  Elec       q    Type
REMARK                         _______ _______ _______ _____ _____    ______ ____
ROOT
ATOM      1  N   UNL     1      12.249  -1.532  -0.531  0.00  0.00    -0.287 N 
ATOM      2  C   UNL     1      12.958  -1.872  -1.623  0.00  0.00    +0.263 A 
ATOM      3  O   UNL     1      14.167  -1.719  -1.649  0.00  0.00    -0.267 OA
ATOM      4  C   UNL     1      12.271  -2.414  -2.755  0.00  0.00    +0.076 A 
ATOM      5  C   UNL     1      12.844  -2.848  -4.040  0.00  0.00    -0.023 A 
ATOM      6  C   UNL     1      11.987  -3.329  -4.954  0.00  0.00    -0.004 A 
ATOM      7  S   UNL     1      10.388  -3.236  -4.183  0.00  0.00    -0.073 S 
ATOM      8  C   UNL     1      10.881  -2.548  -2.624  0.00  0.00    +0.117 A 
ATOM      9  N   UNL     1      10.239  -2.198  -1.515  0.00  0.00    -0.216 NA
ATOM     10  C   UNL     1      10.894  -1.696  -0.488  0.00  0.00    +0.173 A 
ATOM     11  C   UNL     1      12.684  -3.744  -6.223  0.00  0.00    +0.043 C 
ATOM     12  C   UNL     1      14.173  -3.858  -5.827  0.00  0.00    +0.010 C 
ATOM     13  C   UNL     1      14.255  -2.887  -4.633  0.00  0.00    +0.037 C 
ENDROOT
BRANCH   1  14
ATOM     14  C   UNL     1      12.943  -0.976   0.633  0.00  0.00    +0.127 C 
BRANCH  14  15
ATOM     15  C   UNL     1      13.363  -2.113   1.567  0.00  0.00    +0.022 C 
BRANCH  15  16
ATOM     16  C   UNL     1      14.088  -1.532   2.783  0.00  0.00    +0.001 C 
BRANCH  16  18
ATOM     17  C   UNL     1      15.232  -2.088   4.933  0.00  0.00    +0.004 C 
ATOM     18  C   UNL     1      14.507  -2.669   3.718  0.00  0.00    -0.003 C 
ENDBRANCH  16  18
ENDBRANCH  15  16
ENDBRANCH  14  15
ENDBRANCH   1  14
BRANCH  10  19
ATOM     19  S   UNL     1      10.010  -1.237   0.966  0.00  0.00    -0.075 S 
BRANCH  19  20
ATOM     20  C   UNL     1       8.326  -1.665   0.457  0.00  0.00    +0.137 C 
ATOM     21  C   UNL     1       8.224  -3.177   0.252  0.00  0.00    +0.029 C 
BRANCH  20  22
ATOM     22  C   UNL     1       7.355  -1.236   1.526  0.00  0.00    +0.226 C 
ATOM     23  O   UNL     1       7.746  -1.037   2.657  0.00  0.00    -0.275 OA
ATOM     24  N   UNL     1       6.051  -1.073   1.226  0.00  0.00    -0.310 N 
ATOM     25  H   UNL     1       5.696  -1.253   0.201  0.00  0.00    +0.149 HD
BRANCH  24  26
ATOM     26  C   UNL     1       5.107  -0.655   2.265  0.00  0.00    +0.139 C 
BRANCH  26  27
ATOM     27  C   UNL     1       3.725  -0.548   1.674  0.00  0.00    -0.027 A 
ATOM     28  C   UNL     1       2.885  -1.646   1.677  0.00  0.00    +0.009 A 
ATOM     29  C   UNL     1       1.617  -1.553   1.135  0.00  0.00    +0.050 A 
ATOM     30  C   UNL     1       1.183  -0.356   0.589  0.00  0.00    +0.166 A 
ATOM     31  C   UNL     1       2.028   0.751   0.586  0.00  0.00    +0.167 A 
ATOM     32  C   UNL     1       3.298   0.650   1.131  0.00  0.00    +0.054 A 
ATOM     33  O   UNL     1       1.376   1.797  -0.001  0.00  0.00    -0.453 OA
ATOM     34  C   UNL     1      -0.018   1.436   0.010  0.00  0.00    +0.466 C 
ATOM     35  O   UNL     1       0.002  -0.004   0.002  0.00  0.00    -0.453 OA
ENDBRANCH  26  27
ENDBRANCH  24  26
ENDBRANCH  20  22
ENDBRANCH  19  20
ENDBRANCH  10  19
TORSDOF 9
