REMARK  Name = ZINC01353907
REMARK  12 active torsions:
REMARK  status: ('A' for Active; 'I' for Inactive)
REMARK    1  A    between atoms: C_1  and  C_2
REMARK    2  A    between atoms: C_6  and  N_8
REMARK    3  A    between atoms: N_8  and  C_9
REMARK    4  A    between atoms: C_9  and  C_11
REMARK    5  A    between atoms: C_9  and  C_17
REMARK    6  A    between atoms: C_14  and  C_16
REMARK    7  A    between atoms: N_19  and  C_20
REMARK    8  A    between atoms: C_20  and  C_21
REMARK    9  A    between atoms: C_24  and  O_27
REMARK   10  A    between atoms: O_27  and  C_28
REMARK   11  A    between atoms: C_29  and  C_31
REMARK   12  A    between atoms: C_31  and  C_32
REMARK                            x       y       z     vdW  Elec       q    Type
REMARK                         _______ _______ _______ _____ _____    ______ ____
ROOT
ATOM      1  C   UNL     1       0.846   3.892   0.434  0.00  0.00    +0.233 C 
ENDROOT
BRANCH   1   2
ATOM      2  C   UNL     1       0.284   4.398  -0.869  0.00  0.00    +0.135 A 
ATOM      3  C   UNL     1      -0.661   5.345  -1.004  0.00  0.00    +0.047 A 
ATOM      4  C   UNL     1      -0.884   5.508  -2.390  0.00  0.00    +0.045 A 
ATOM      5  C   UNL     1      -0.067   4.645  -3.020  0.00  0.00    +0.102 A 
ATOM      6  O   UNL     1       0.638   3.975  -2.094  0.00  0.00    -0.462 OA
ATOM      7  C   UNL     1       0.038   4.460  -4.512  0.00  0.00    +0.086 C 
ENDBRANCH   1   2
BRANCH   1   8
ATOM      8  C   UNL     1       0.183   2.588   0.795  0.00  0.00    +0.242 C 
ATOM      9  O   UNL     1       0.851   1.583   0.923  0.00  0.00    -0.273 OA
ATOM     10  N   UNL     1      -1.152   2.538   0.975  0.00  0.00    -0.309 N 
ATOM     11  H   UNL     1      -1.686   3.340   0.868  0.00  0.00    +0.149 HD
BRANCH  10  12
ATOM     12  C   UNL     1      -1.796   1.270   1.325  0.00  0.00    +0.139 C 
BRANCH  12  13
ATOM     13  C   UNL     1      -3.281   1.484   1.468  0.00  0.00    -0.030 A 
ATOM     14  C   UNL     1      -3.814   1.823   2.698  0.00  0.00    +0.009 A 
ATOM     15  C   UNL     1      -5.175   2.025   2.830  0.00  0.00    +0.046 A 
ATOM     16  C   UNL     1      -6.007   1.877   1.730  0.00  0.00    +0.120 A 
ATOM     17  C   UNL     1      -5.470   1.531   0.499  0.00  0.00    +0.046 A 
ATOM     18  C   UNL     1      -4.109   1.335   0.371  0.00  0.00    +0.009 A 
BRANCH  16  19
ATOM     19  O   UNL     1      -7.346   2.070   1.859  0.00  0.00    -0.495 OA
ATOM     20  C   UNL     1      -7.829   2.425   3.156  0.00  0.00    +0.277 C 
ENDBRANCH  16  19
ENDBRANCH  12  13
ENDBRANCH  10  12
ENDBRANCH   1   8
BRANCH   1  21
ATOM     21  N   UNL     1       2.290   3.684   0.295  0.00  0.00    -0.252 N 
ATOM     22  C   UNL     1       3.147   4.362   1.084  0.00  0.00    +0.226 C 
ATOM     23  O   UNL     1       2.736   5.237   1.816  0.00  0.00    -0.275 OA
BRANCH  21  29
ATOM     24  C   UNL     1       6.009   2.063  -2.482  0.00  0.00    +0.044 C 
ATOM     25  C   UNL     1       4.577   1.973  -2.020  0.00  0.00    -0.049 A 
ATOM     26  C   UNL     1       3.745   0.997  -2.537  0.00  0.00    +0.003 A 
ATOM     27  C   UNL     1       2.431   0.911  -2.116  0.00  0.00    +0.002 A 
ATOM     28  C   UNL     1       1.946   1.798  -1.173  0.00  0.00    +0.023 A 
ATOM     29  C   UNL     1       2.778   2.782  -0.656  0.00  0.00    +0.038 A 
ATOM     30  C   UNL     1       4.098   2.865  -1.081  0.00  0.00    +0.027 A 
ENDBRANCH  21  29
BRANCH  22  31
ATOM     31  C   UNL     1       4.617   4.032   1.057  0.00  0.00    +0.138 C 
BRANCH  31  32
ATOM     32  C   UNL     1       5.209   4.261   2.424  0.00  0.00    -0.001 A 
ATOM     33  C   UNL     1       5.321   3.396   3.461  0.00  0.00    +0.011 A 
ATOM     34  C   UNL     1       5.910   3.828   4.634  0.00  0.00    +0.008 A 
ATOM     35  C   UNL     1       6.349   5.108   4.716  0.00  0.00    +0.045 A 
ATOM     36  S   UNL     1       5.938   5.744   3.099  0.00  0.00    -0.101 S 
ENDBRANCH  31  32
ENDBRANCH  22  31
ENDBRANCH   1  21
TORSDOF 9
