REMARK  Name = ZINC63817140
REMARK  9 active torsions:
REMARK  status: ('A' for Active; 'I' for Inactive)
REMARK    1  A    between atoms: C_1  and  C_2
REMARK    2  A    between atoms: C_6  and  S_8
REMARK    3  A    between atoms: S_8  and  N_11
REMARK    4  A    between atoms: N_11  and  C_12
REMARK    5  A    between atoms: C_12  and  C_14
REMARK    6  A    between atoms: C_12  and  C_24
REMARK    7  A    between atoms: C_14  and  C_15
REMARK    8  A    between atoms: N_26  and  C_27
REMARK    9  A    between atoms: C_27  and  C_28
REMARK                            x       y       z     vdW  Elec       q    Type
REMARK                         _______ _______ _______ _____ _____    ______ ____
ROOT
ATOM      1  C   UNL     1       2.638  -1.704   3.504  0.00  0.00    +0.166 C 
ENDROOT
BRANCH   1   2
ATOM      2  C   UNL     1       3.574  -2.288   4.530  0.00  0.00    +0.232 C 
ATOM      3  O   UNL     1       3.411  -3.424   4.922  0.00  0.00    -0.274 OA
ATOM      4  N   UNL     1       4.592  -1.549   5.012  0.00  0.00    -0.310 N 
ATOM      5  H   UNL     1       4.723  -0.640   4.699  0.00  0.00    +0.149 HD
BRANCH   4   6
ATOM      6  C   UNL     1       5.503  -2.117   6.010  0.00  0.00    +0.139 C 
BRANCH   6   7
ATOM      7  C   UNL     1       6.545  -1.093   6.380  0.00  0.00    -0.027 A 
ATOM      8  C   UNL     1       7.728  -1.025   5.668  0.00  0.00    +0.009 A 
ATOM      9  C   UNL     1       8.687  -0.088   6.003  0.00  0.00    +0.050 A 
ATOM     10  C   UNL     1       8.464   0.787   7.055  0.00  0.00    +0.166 A 
ATOM     11  C   UNL     1       7.272   0.718   7.771  0.00  0.00    +0.167 A 
ATOM     12  C   UNL     1       6.313  -0.220   7.426  0.00  0.00    +0.054 A 
ATOM     13  O   UNL     1       7.293   1.674   8.746  0.00  0.00    -0.453 OA
ATOM     14  C   UNL     1       8.675   2.056   8.880  0.00  0.00    +0.466 C 
ATOM     15  O   UNL     1       9.232   1.785   7.580  0.00  0.00    -0.453 OA
ENDBRANCH   6   7
ENDBRANCH   4   6
ENDBRANCH   1   2
BRANCH   1  16
ATOM     16  N   UNL     1       1.624  -2.699   3.145  0.00  0.00    -0.178 NA
ATOM     17  H   UNL     1       1.819  -3.366   2.468  0.00  0.00    +0.149 HD
BRANCH  16  18
ATOM     18  S   UNL     1       0.147  -2.684   3.893  0.00  0.00    +0.059 S 
ATOM     19  O   UNL     1       0.400  -2.608   5.289  0.00  0.00    -0.153 OA
ATOM     20  O   UNL     1      -0.612  -3.736   3.313  0.00  0.00    -0.153 OA
BRANCH  18  26
ATOM     21  C   UNL     1      -0.765   2.414   4.595  0.00  0.00    +0.044 C 
ATOM     22  C   UNL     1      -1.032   1.156   3.810  0.00  0.00    -0.049 A 
ATOM     23  C   UNL     1      -1.903   1.182   2.736  0.00  0.00    +0.003 A 
ATOM     24  C   UNL     1      -2.147   0.028   2.016  0.00  0.00    +0.002 A 
ATOM     25  C   UNL     1      -1.521  -1.153   2.370  0.00  0.00    +0.028 A 
ATOM     26  C   UNL     1      -0.650  -1.179   3.442  0.00  0.00    +0.106 A 
ATOM     27  C   UNL     1      -0.402  -0.024   4.160  0.00  0.00    +0.032 A 
ENDBRANCH  18  26
ENDBRANCH  16  18
ENDBRANCH   1  16
BRANCH   1  28
ATOM     28  C   UNL     1       3.430  -1.309   2.257  0.00  0.00    +0.063 C 
BRANCH  28  29
ATOM     29  C   UNL     1       2.513  -0.630   1.272  0.00  0.00    -0.040 C 
ATOM     30  C   UNL     1       2.301   0.699   1.141  0.00  0.00    -0.001 A 
ATOM     31  C   UNL     1       2.840   1.866   1.849  0.00  0.00    +0.010 A 
ATOM     32  C   UNL     1       2.429   3.102   1.484  0.00  0.00    +0.001 A 
ATOM     33  C   UNL     1       1.502   3.295   0.450  0.00  0.00    +0.002 A 
ATOM     34  C   UNL     1       0.963   2.272  -0.246  0.00  0.00    +0.026 A 
ATOM     35  C   UNL     1       1.325   0.930   0.053  0.00  0.00    +0.043 A 
ATOM     36  N   UNL     1       0.947  -0.212  -0.469  0.00  0.00    -0.380 N 
ATOM     37  C   UNL     1       1.647  -1.298   0.227  0.00  0.00    +0.144 C 
ATOM     38  H   UNL     1       0.314  -0.321  -1.195  0.00  0.00    +0.160 HD
ENDBRANCH  28  29
ENDBRANCH   1  28
TORSDOF 8
