REMARK  Name = ZINC10908360
REMARK  5 active torsions:
REMARK  status: ('A' for Active; 'I' for Inactive)
REMARK    1  A    between atoms: C_4  and  N_7
REMARK    2  A    between atoms: C_9  and  C_19
REMARK    3  A    between atoms: C_10  and  C_12
REMARK    4  A    between atoms: C_19  and  N_20
REMARK    5  A    between atoms: C_21  and  C_23
REMARK                            x       y       z     vdW  Elec       q    Type
REMARK                         _______ _______ _______ _____ _____    ______ ____
ROOT
ATOM      1  N   UNL     1      -3.270  -5.641   0.663  0.00  0.00    -0.239 N 
ATOM      2  C   UNL     1      -2.024  -5.283   1.070  0.00  0.00    +0.120 A 
ATOM      3  C   UNL     1      -1.352  -4.826  -0.009  0.00  0.00    +0.015 A 
ATOM      4  C   UNL     1      -2.210  -4.914  -1.123  0.00  0.00    +0.098 A 
ATOM      5  N   UNL     1      -3.362  -5.404  -0.714  0.00  0.00    -0.166 NA
ENDROOT
BRANCH   4   6
ATOM      6  C   UNL     1      -1.875  -4.522  -2.514  0.00  0.00    +0.003 A 
ATOM      7  C   UNL     1      -1.045  -3.428  -2.751  0.00  0.00    +0.013 A 
ATOM      8  C   UNL     1      -0.732  -3.070  -4.047  0.00  0.00    +0.039 A 
ATOM      9  C   UNL     1      -1.250  -3.790  -5.111  0.00  0.00    +0.123 A 
ATOM     10  C   UNL     1      -2.080  -4.875  -4.880  0.00  0.00    +0.039 A 
ATOM     11  C   UNL     1      -2.394  -5.243  -3.588  0.00  0.00    +0.013 A 
ATOM     12  F   UNL     1      -0.945  -3.433  -6.378  0.00  0.00    -0.205 F 
ENDBRANCH   4   6
BRANCH   1  16
ATOM     13  C   UNL     1      -6.286  -7.193   3.087  0.00  0.00    +0.000 A 
ATOM     14  C   UNL     1      -6.513  -7.008   1.735  0.00  0.00    +0.002 A 
ATOM     15  C   UNL     1      -5.516  -6.494   0.930  0.00  0.00    +0.028 A 
ATOM     16  C   UNL     1      -4.284  -6.162   1.478  0.00  0.00    +0.065 A 
ATOM     17  C   UNL     1      -4.057  -6.354   2.834  0.00  0.00    +0.028 A 
ATOM     18  C   UNL     1      -5.060  -6.864   3.636  0.00  0.00    +0.002 A 
ENDBRANCH   1  16
BRANCH   3  19
ATOM     19  C   UNL     1       0.067  -4.318  -0.020  0.00  0.00    +0.143 C 
BRANCH  19  20
ATOM     20  N   UNL     1       0.061  -2.853  -0.013  0.00  0.00    -0.307 N 
ATOM     21  C   UNL     1       1.225  -2.175  -0.021  0.00  0.00    +0.244 C 
ATOM     22  O   UNL     1       2.280  -2.778  -0.034  0.00  0.00    -0.270 OA
ATOM     23  H   UNL     1      -0.781  -2.371  -0.002  0.00  0.00    +0.149 HD
BRANCH  21  24
ATOM     24  C   UNL     1       1.220  -0.698  -0.013  0.00  0.00    +0.039 A 
ATOM     25  C   UNL     1       0.002  -0.004   0.002  0.00  0.00    +0.015 A 
ATOM     26  C   UNL     1      -0.016   1.360   0.009  0.00  0.00    +0.028 A 
ATOM     27  C   UNL     1       1.177   2.075   0.002  0.00  0.00    +0.066 A 
ATOM     28  C   UNL     1       2.408   1.394  -0.013  0.00  0.00    +0.089 A 
ATOM     29  C   UNL     1       2.423   0.000  -0.021  0.00  0.00    +0.043 A 
ATOM     30  N   UNL     1       3.383   2.341  -0.018  0.00  0.00    -0.236 NA
ATOM     31  C   UNL     1       2.842   3.523  -0.006  0.00  0.00    +0.197 A 
ATOM     32  N   UNL     1       1.485   3.418   0.006  0.00  0.00    -0.344 N 
ATOM     33  H   UNL     1       0.832   4.175   0.017  0.00  0.00    +0.167 HD
ENDBRANCH  21  24
ENDBRANCH  19  20
ENDBRANCH   3  19
TORSDOF 5
