REMARK  Name = ZINC14855569
REMARK  6 active torsions:
REMARK  status: ('A' for Active; 'I' for Inactive)
REMARK    1  A    between atoms: C_1  and  C_2
REMARK    2  A    between atoms: C_11  and  N_21
REMARK    3  A    between atoms: C_13  and  C_15
REMARK    4  A    between atoms: N_21  and  C_22
REMARK    5  A    between atoms: C_27  and  C_28
REMARK    6  A    between atoms: C_27  and  N_59
REMARK                            x       y       z     vdW  Elec       q    Type
REMARK                         _______ _______ _______ _____ _____    ______ ____
ROOT
ATOM      1  C   UNL     1      -9.100   5.463   0.063  0.00  0.00    +0.008 C 
ATOM      2  C   UNL     1      -7.672   5.014  -0.252  0.00  0.00    -0.009 C 
ATOM      3  C   UNL     1      -6.680   5.839   0.574  0.00  0.00    +0.008 C 
ATOM      4  C   UNL     1      -5.254   5.574   0.089  0.00  0.00    +0.037 C 
ATOM      5  C   UNL     1      -5.009   4.067   0.077  0.00  0.00    -0.025 A 
ATOM      6  C   UNL     1      -6.043   3.201   0.089  0.00  0.00    -0.004 A 
ATOM      7  S   UNL     1      -5.300   1.592   0.070  0.00  0.00    -0.073 S 
ATOM      8  C   UNL     1      -3.596   2.086   0.044  0.00  0.00    +0.114 A 
ATOM      9  C   UNL     1      -3.663   3.494   0.053  0.00  0.00    +0.051 A 
ATOM     10  C   UNL     1      -2.410   4.169   0.037  0.00  0.00    +0.131 A 
ATOM     11  N   UNL     1      -1.295   3.459   0.018  0.00  0.00    -0.212 NA
ATOM     12  C   UNL     1      -1.304   2.130   0.005  0.00  0.00    +0.164 A 
ATOM     13  N   UNL     1      -2.443   1.449   0.021  0.00  0.00    -0.220 NA
ATOM     14  C   UNL     1      -7.505   3.533   0.114  0.00  0.00    +0.046 C 
ENDROOT
BRANCH  12  15
ATOM     15  C   UNL     1      -0.017   1.394  -0.021  0.00  0.00    +0.037 A 
ATOM     16  C   UNL     1       0.002  -0.004  -0.030  0.00  0.00    +0.014 A 
ATOM     17  C   UNL     1       1.229  -0.643  -0.061  0.00  0.00    +0.020 A 
ATOM     18  C   UNL     1       2.386   0.114  -0.082  0.00  0.00    +0.111 A 
ATOM     19  N   UNL     1       2.337   1.432  -0.073  0.00  0.00    -0.263 NA
ATOM     20  C   UNL     1       1.193   2.085  -0.044  0.00  0.00    +0.122 A 
ENDBRANCH  12  15
BRANCH  10  21
ATOM     21  N   UNL     1      -2.359   5.551   0.045  0.00  0.00    -0.326 N 
ATOM     22  H   UNL     1      -3.178   6.067  -0.022  0.00  0.00    +0.148 HD
BRANCH  21  23
ATOM     23  C   UNL     1      -1.068   6.236   0.155  0.00  0.00    +0.068 C 
ATOM     24  C   UNL     1      -0.680   6.363   1.631  0.00  0.00    +0.003 C 
ATOM     25  C   UNL     1       0.637   7.134   1.742  0.00  0.00    -0.076 C 
ATOM     26  C   UNL     1       0.155   8.367  -0.287  0.00  0.00    -0.076 C 
ATOM     27  C   UNL     1      -1.177   7.635  -0.459  0.00  0.00    +0.003 C 
ATOM     28  N   UNL     1       0.459   8.479   1.155  0.00  0.00    +0.385 N 
ATOM     29  H   UNL     1      -0.326   8.946   1.626  0.00  0.00    -0.081 HD
BRANCH  28  30
ATOM     30  C   UNL     1       1.683   9.282   1.353  0.00  0.00    +0.018 C 
BRANCH  30  31
ATOM     31  C   UNL     1       1.846   9.564   2.824  0.00  0.00    +0.194 C 
ATOM     32  O   UNL     1       1.041   9.127   3.618  0.00  0.00    -0.278 OA
ATOM     33  N   UNL     1       2.888  10.302   3.257  0.00  0.00    -0.331 N 
ATOM     34  H   UNL     1       3.532  10.652   2.622  0.00  0.00    +0.145 HD
ATOM     35  H   UNL     1       2.993  10.484   4.204  0.00  0.00    +0.145 HD
ENDBRANCH  30  31
ENDBRANCH  28  30
ENDBRANCH  21  23
ENDBRANCH  10  21
TORSDOF 5
