REMARK  Name = ZINC35142866
REMARK  15 active torsions:
REMARK  status: ('A' for Active; 'I' for Inactive)
REMARK    1  A    between atoms: C_1  and  C_2
REMARK    2  A    between atoms: C_7  and  N_8
REMARK    3  A    between atoms: C_9  and  N_17
REMARK    4  A    between atoms: C_11  and  C_13
REMARK    5  A    between atoms: C_13  and  C_14
REMARK    6  A    between atoms: C_13  and  C_15
REMARK    7  A    between atoms: C_13  and  C_16
REMARK    8  A    between atoms: C_18  and  C_20
REMARK    9  A    between atoms: C_20  and  N_21
REMARK   10  A    between atoms: N_21  and  C_22
REMARK   11  A    between atoms: C_22  and  C_23
REMARK   12  A    between atoms: C_23  and  C_24
REMARK   13  A    between atoms: C_24  and  O_25
REMARK   14  A    between atoms: O_25  and  C_26
REMARK   15  A    between atoms: C_27  and  C_29
REMARK                            x       y       z     vdW  Elec       q    Type
REMARK                         _______ _______ _______ _____ _____    ______ ____
ROOT
ATOM      1  N   UNL     1       0.529  -1.675   3.992  0.00  0.00    -0.269 N 
ATOM      2  C   UNL     1       0.623  -2.075   5.275  0.00  0.00    +0.236 C 
ATOM      3  O   UNL     1       0.497  -1.269   6.173  0.00  0.00    -0.274 OA
ATOM      4  H   UNL     1       0.630  -2.320   3.274  0.00  0.00    +0.156 HD
ENDROOT
BRANCH   1   6
ATOM      5  N   UNL     1       0.045   0.187   2.462  0.00  0.00    -0.218 N 
ATOM      6  C   UNL     1       0.286  -0.335   3.696  0.00  0.00    +0.129 A 
ATOM      7  C   UNL     1       0.247   0.693   4.587  0.00  0.00    +0.069 A 
ATOM      8  C   UNL     1      -0.025   1.866   3.878  0.00  0.00    +0.071 A 
ATOM      9  N   UNL     1      -0.139   1.567   2.609  0.00  0.00    -0.169 NA
BRANCH   5  16
ATOM     10  C   UNL     1      -2.163   0.629   0.722  0.00  0.00    +0.046 C 
ATOM     11  C   UNL     1      -1.063  -0.343   0.380  0.00  0.00    -0.025 A 
ATOM     12  C   UNL     1      -1.105  -1.046  -0.808  0.00  0.00    +0.005 A 
ATOM     13  C   UNL     1      -0.097  -1.938  -1.122  0.00  0.00    +0.000 A 
ATOM     14  C   UNL     1       0.957  -2.130  -0.247  0.00  0.00    +0.002 A 
ATOM     15  C   UNL     1       1.005  -1.430   0.943  0.00  0.00    +0.028 A 
ATOM     16  C   UNL     1      -0.004  -0.529   1.258  0.00  0.00    +0.070 A 
ENDBRANCH   5  16
BRANCH   8  17
ATOM     17  C   UNL     1      -0.157   3.244   4.474  0.00  0.00    +0.006 C 
ATOM     18  C   UNL     1       1.230   3.779   4.836  0.00  0.00    +0.017 C 
ATOM     19  C   UNL     1      -0.814   4.179   3.455  0.00  0.00    +0.017 C 
ATOM     20  C   UNL     1      -1.022   3.175   5.734  0.00  0.00    +0.017 C 
ENDBRANCH   8  17
ENDBRANCH   1   6
BRANCH   2  21
ATOM     21  C   UNL     1       0.886  -3.525   5.596  0.00  0.00    +0.204 C 
BRANCH  21  22
ATOM     22  N   UNL     1       0.944  -3.701   7.049  0.00  0.00    -0.289 N 
ATOM     23  C   UNL     1       2.119  -3.579   7.696  0.00  0.00    +0.248 C 
ATOM     24  O   UNL     1       3.116  -3.239   7.088  0.00  0.00    -0.270 OA
BRANCH  23  25
ATOM     25  C   UNL     1       2.197  -3.856   9.142  0.00  0.00    +0.045 A 
ATOM     26  C   UNL     1       1.421  -3.135  10.038  0.00  0.00    +0.014 A 
ATOM     27  C   UNL     1       1.490  -3.392  11.401  0.00  0.00    +0.001 A 
ATOM     28  C   UNL     1       2.318  -4.355  11.897  0.00  0.00    +0.008 A 
ATOM     29  C   UNL     1       3.122  -5.110  11.026  0.00  0.00    -0.017 A 
ATOM     30  C   UNL     1       3.062  -4.867   9.632  0.00  0.00    -0.006 A 
ATOM     31  C   UNL     1       3.861  -5.624   8.765  0.00  0.00    +0.009 A 
ATOM     32  C   UNL     1       4.680  -6.588   9.271  0.00  0.00    +0.001 A 
ATOM     33  C   UNL     1       4.737  -6.833  10.641  0.00  0.00    +0.001 A 
ATOM     34  C   UNL     1       3.984  -6.108  11.514  0.00  0.00    +0.008 A 
ENDBRANCH  23  25
BRANCH  22  35
ATOM     35  C   UNL     1      -0.277  -4.010   7.798  0.00  0.00    +0.111 C 
BRANCH  35  36
ATOM     36  C   UNL     1      -0.490  -5.525   7.822  0.00  0.00    +0.047 C 
BRANCH  36  37
ATOM     37  C   UNL     1      -1.765  -5.848   8.605  0.00  0.00    +0.161 C 
BRANCH  37  38
ATOM     38  O   UNL     1      -1.964  -7.262   8.628  0.00  0.00    -0.383 OA
ATOM     39  C   UNL     1      -3.134  -7.673   9.338  0.00  0.00    +0.193 C 
ENDBRANCH  37  38
ENDBRANCH  36  37
ENDBRANCH  35  36
ENDBRANCH  22  35
ENDBRANCH  21  22
ENDBRANCH   2  21
TORSDOF 10
