REMARK  Name = ZINC03819662
REMARK  8 active torsions:
REMARK  status: ('A' for Active; 'I' for Inactive)
REMARK    1  A    between atoms: C_1  and  O_2
REMARK    2  A    between atoms: O_2  and  C_3
REMARK    3  A    between atoms: C_8  and  C_9
REMARK    4  A    between atoms: C_10  and  C_16
REMARK    5  A    between atoms: N_18  and  C_25
REMARK    6  A    between atoms: C_25  and  C_26
REMARK    7  A    between atoms: C_26  and  C_27
REMARK    8  A    between atoms: C_27  and  N_48
REMARK                            x       y       z     vdW  Elec       q    Type
REMARK                         _______ _______ _______ _____ _____    ______ ____
ROOT
ATOM      1  C   UNL     1       0.551  -4.087   1.046  0.00  0.00    +0.060 C 
ATOM      2  C   UNL     1       0.803  -3.237  -0.023  0.00  0.00    +0.059 C 
ATOM      3  C   UNL     1       0.013  -3.766  -1.161  0.00  0.00    +0.252 C 
ATOM      4  O   UNL     1      -0.031  -3.288  -2.276  0.00  0.00    -0.270 OA
ATOM      5  N   UNL     1      -0.641  -4.866  -0.751  0.00  0.00    -0.248 N 
ATOM      6  C   UNL     1      -0.378  -5.117   0.542  0.00  0.00    +0.252 C 
ATOM      7  O   UNL     1      -0.829  -6.040   1.190  0.00  0.00    -0.270 OA
ATOM      8  H   UNL     1      -1.227  -5.401  -1.310  0.00  0.00    +0.158 HD
ENDROOT
BRANCH   2   9
ATOM      9  C   UNL     1       1.671  -2.051  -0.025  0.00  0.00    +0.015 A 
ATOM     10  C   UNL     1       3.037  -2.036  -0.038  0.00  0.00    +0.097 A 
ATOM     11  N   UNL     1       3.480  -0.751  -0.035  0.00  0.00    -0.331 N 
ATOM     12  C   UNL     1       2.418   0.126  -0.020  0.00  0.00    +0.141 A 
ATOM     13  C   UNL     1       1.240  -0.643  -0.013  0.00  0.00    +0.027 A 
ATOM     14  C   UNL     1       0.002  -0.004   0.002  0.00  0.00    +0.013 A 
ATOM     15  C   UNL     1      -0.017   1.380   0.010  0.00  0.00    +0.020 A 
ATOM     16  C   UNL     1       1.182   2.075   0.002  0.00  0.00    +0.113 A 
ATOM     17  N   UNL     1       2.340   1.450  -0.013  0.00  0.00    -0.237 NA
BRANCH  11  18
ATOM     18  C   UNL     1       4.890  -0.354  -0.046  0.00  0.00    +0.121 C 
BRANCH  18  19
ATOM     19  C   UNL     1       5.361  -0.103   1.387  0.00  0.00    +0.002 C 
BRANCH  19  20
ATOM     20  C   UNL     1       6.833   0.311   1.376  0.00  0.00    -0.085 C 
BRANCH  20  23
ATOM     21  H   UNL     1       7.128  -0.259   3.332  0.00  0.00    -0.090 HD
ATOM     22  H   UNL     1       8.256   0.828   2.772  0.00  0.00    -0.090 HD
ATOM     23  N   UNL     1       7.270   0.572   2.759  0.00  0.00    +0.378 N 
ATOM     24  H   UNL     1       6.718   1.345   3.147  0.00  0.00    -0.090 HD
ENDBRANCH  20  23
ENDBRANCH  19  20
ENDBRANCH  18  19
ENDBRANCH  11  18
ENDBRANCH   2   9
BRANCH   1  30
ATOM     25  C   UNL     1       2.111  -4.856   2.835  0.00  0.00    +0.128 A 
ATOM     26  C   UNL     1       2.624  -4.744   4.116  0.00  0.00    +0.046 A 
ATOM     27  C   UNL     1       2.134  -3.780   4.977  0.00  0.00    +0.004 A 
ATOM     28  C   UNL     1       1.133  -2.916   4.565  0.00  0.00    +0.001 A 
ATOM     29  C   UNL     1       0.615  -3.010   3.291  0.00  0.00    +0.012 A 
ATOM     30  C   UNL     1       1.101  -3.981   2.411  0.00  0.00    +0.029 A 
BRANCH  25  32
ATOM     31  C   UNL     1       3.616  -6.663   2.491  0.00  0.00    +0.277 C 
ATOM     32  O   UNL     1       2.587  -5.807   1.990  0.00  0.00    -0.494 OA
ENDBRANCH  25  32
ENDBRANCH   1  30
TORSDOF 7
