REMARK  Name = ZINC34755477
REMARK  9 active torsions:
REMARK  status: ('A' for Active; 'I' for Inactive)
REMARK    1  A    between atoms: C_1  and  C_2
REMARK    2  A    between atoms: C_2  and  N_3
REMARK    3  A    between atoms: N_3  and  C_4
REMARK    4  A    between atoms: N_14  and  C_17
REMARK    5  A    between atoms: N_26  and  C_28
REMARK    6  A    between atoms: C_28  and  C_29
REMARK    7  A    between atoms: C_33  and  O_36
REMARK    8  A    between atoms: C_34  and  O_35
REMARK    9  A    between atoms: O_36  and  C_37
REMARK                            x       y       z     vdW  Elec       q    Type
REMARK                         _______ _______ _______ _____ _____    ______ ____
ROOT
ATOM      1  N   UNL     1       0.741  -0.072  -1.406  0.00  0.00    -0.318 N 
ATOM      2  C   UNL     1       1.419   1.208  -1.188  0.00  0.00    +0.130 C 
ATOM      3  C   UNL     1       0.046  -0.296  -2.583  0.00  0.00    +0.128 A 
ATOM      4  C   UNL     1       0.664  -0.941  -3.660  0.00  0.00    -0.003 A 
ATOM      5  C   UNL     1      -0.064  -1.144  -4.809  0.00  0.00    +0.048 A 
ATOM      6  N   UNL     1      -1.321  -0.723  -4.864  0.00  0.00    -0.219 NA
ATOM      7  C   UNL     1      -1.882  -0.115  -3.830  0.00  0.00    +0.220 A 
ATOM      8  N   UNL     1      -1.218   0.093  -2.703  0.00  0.00    -0.199 NA
ATOM      9  N   UNL     1      -3.196   0.309  -3.928  0.00  0.00    -0.297 N 
ATOM     10  C   UNL     1      -3.965   0.084  -5.160  0.00  0.00    +0.127 C 
ATOM     11  C   UNL     1      -5.250  -0.674  -4.803  0.00  0.00    +0.124 C 
ATOM     12  N   UNL     1      -5.901   0.009  -3.677  0.00  0.00    -0.327 N 
ATOM     13  C   UNL     1      -5.132   0.234  -2.445  0.00  0.00    +0.124 C 
ATOM     14  C   UNL     1      -3.849   0.987  -2.799  0.00  0.00    +0.127 C 
ATOM     15  C   UNL     1       0.535  -1.837  -6.005  0.00  0.00    +0.037 C 
ATOM     16  C   UNL     1       2.059  -1.864  -5.876  0.00  0.00    -0.072 C 
ATOM     17  N   UNL     1       2.411  -2.394  -4.550  0.00  0.00    +0.386 N 
ATOM     18  C   UNL     1       2.093  -1.387  -3.532  0.00  0.00    -0.037 C 
ATOM     19  H   UNL     1       1.881  -3.234  -4.371  0.00  0.00    -0.081 HD
ENDROOT
BRANCH  12  20
ATOM     20  C   UNL     1      -7.229   0.437  -3.775  0.00  0.00    +0.030 A 
ATOM     21  C   UNL     1      -7.791   1.198  -2.758  0.00  0.00    +0.026 A 
ATOM     22  C   UNL     1      -9.103   1.620  -2.858  0.00  0.00    +0.040 A 
ATOM     23  C   UNL     1      -9.856   1.286  -3.970  0.00  0.00    +0.124 A 
ATOM     24  C   UNL     1      -9.297   0.528  -4.986  0.00  0.00    +0.040 A 
ATOM     25  C   UNL     1      -7.985   0.108  -4.893  0.00  0.00    +0.026 A 
ATOM     26  F   UNL     1     -11.139   1.700  -4.066  0.00  0.00    -0.205 F 
ENDBRANCH  12  20
BRANCH   1  28
ATOM     27  C   UNL     1      -0.378  -0.949   0.584  0.00  0.00    +0.024 C 
ATOM     28  C   UNL     1       0.799  -1.116  -0.379  0.00  0.00    +0.103 C 
ENDBRANCH   1  28
BRANCH  17  29
ATOM     29  C   UNL     1       3.847  -2.699  -4.508  0.00  0.00    -0.039 C 
BRANCH  29  30
ATOM     30  C   UNL     1       4.152  -3.817  -5.472  0.00  0.00    -0.019 A 
ATOM     31  C   UNL     1       4.780  -3.542  -6.673  0.00  0.00    +0.005 A 
ATOM     32  C   UNL     1       5.060  -4.565  -7.559  0.00  0.00    +0.004 A 
ATOM     33  C   UNL     1       4.714  -5.867  -7.249  0.00  0.00    +0.049 A 
ATOM     34  C   UNL     1       4.084  -6.149  -6.048  0.00  0.00    +0.161 A 
ATOM     35  C   UNL     1       3.807  -5.120  -5.152  0.00  0.00    +0.160 A 
BRANCH  35  36
ATOM     36  O   UNL     1       3.194  -5.392  -3.969  0.00  0.00    -0.503 OA
ATOM     37  H   UNL     1       2.229  -5.356  -4.009  0.00  0.00    +0.292 HD
ENDBRANCH  35  36
BRANCH  34  38
ATOM     38  O   UNL     1       3.743  -7.429  -5.741  0.00  0.00    -0.491 OA
ATOM     39  C   UNL     1       4.063  -8.434  -6.705  0.00  0.00    +0.277 C 
ENDBRANCH  34  38
ENDBRANCH  29  30
ENDBRANCH  17  29
TORSDOF 6
