REMARK  Name = ZINC36609352
REMARK  9 active torsions:
REMARK  status: ('A' for Active; 'I' for Inactive)
REMARK    1  A    between atoms: C_1  and  C_2
REMARK    2  A    between atoms: C_7  and  C_8
REMARK    3  A    between atoms: C_8  and  C_10
REMARK    4  A    between atoms: C_8  and  N_19
REMARK    5  A    between atoms: N_12  and  C_13
REMARK    6  A    between atoms: N_19  and  C_20
REMARK    7  A    between atoms: C_26  and  C_28
REMARK    8  A    between atoms: C_30  and  N_35
REMARK    9  A    between atoms: C_33  and  O_34
REMARK                            x       y       z     vdW  Elec       q    Type
REMARK                         _______ _______ _______ _____ _____    ______ ____
ROOT
ATOM      1  N   UNL     1       0.896  -0.138   4.017  0.00  0.00    -0.251 N 
ATOM      2  C   UNL     1       2.071   0.514   3.910  0.00  0.00    +0.255 C 
ATOM      3  O   UNL     1       2.274   1.250   2.963  0.00  0.00    -0.269 OA
ENDROOT
BRANCH   1   4
ATOM      4  C   UNL     1       0.662  -0.982   5.107  0.00  0.00    +0.038 A 
ATOM      5  C   UNL     1       0.683  -0.473   6.399  0.00  0.00    +0.023 A 
ATOM      6  C   UNL     1       0.451  -1.310   7.473  0.00  0.00    +0.002 A 
ATOM      7  C   UNL     1       0.198  -2.653   7.263  0.00  0.00    +0.000 A 
ATOM      8  C   UNL     1       0.177  -3.163   5.978  0.00  0.00    +0.002 A 
ATOM      9  C   UNL     1       0.403  -2.331   4.899  0.00  0.00    +0.023 A 
ENDBRANCH   1   4
BRANCH   2  10
ATOM     10  C   UNL     1       3.111   0.334   4.940  0.00  0.00    +0.081 A 
ATOM     11  C   UNL     1       3.188  -0.862   5.660  0.00  0.00    +0.049 A 
ATOM     12  C   UNL     1       4.162  -1.024   6.621  0.00  0.00    +0.127 A 
ATOM     13  C   UNL     1       5.066  -0.006   6.878  0.00  0.00    +0.036 A 
ATOM     14  C   UNL     1       5.001   1.181   6.176  0.00  0.00    +0.048 A 
ATOM     15  C   UNL     1       4.031   1.359   5.200  0.00  0.00    +0.129 A 
BRANCH  12  16
ATOM     16  N   UNL     1       4.242  -2.291   7.382  0.00  0.00    +0.056 N 
ATOM     17  O   UNL     1       3.517  -3.214   7.097  0.00  0.00    -0.126 OA
ATOM     18  O   UNL     1       5.034  -2.401   8.290  0.00  0.00    -0.126 OA
ENDBRANCH  12  16
BRANCH  15  19
ATOM     19  O   UNL     1       3.970   2.522   4.504  0.00  0.00    -0.506 OA
ATOM     20  H   UNL     1       3.407   3.194   4.912  0.00  0.00    +0.292 HD
ENDBRANCH  15  19
ENDBRANCH   2  10
BRANCH   1  21
ATOM     21  C   UNL     1      -0.136   0.040   2.993  0.00  0.00    +0.198 C 
BRANCH  21  28
ATOM     22  C   UNL     1       1.602  -1.337   1.140  0.00  0.00    +0.044 C 
ATOM     23  C   UNL     1       0.297  -1.965   1.557  0.00  0.00    -0.045 A 
ATOM     24  C   UNL     1      -0.066  -3.202   1.058  0.00  0.00    +0.004 A 
ATOM     25  C   UNL     1      -1.263  -3.777   1.440  0.00  0.00    +0.000 A 
ATOM     26  C   UNL     1      -2.097  -3.116   2.323  0.00  0.00    +0.000 A 
ATOM     27  C   UNL     1      -1.734  -1.880   2.823  0.00  0.00    +0.006 A 
ATOM     28  C   UNL     1      -0.534  -1.306   2.443  0.00  0.00    -0.015 A 
ENDBRANCH  21  28
BRANCH  21  29
ATOM     29  C   UNL     1      -1.340   0.710   3.603  0.00  0.00    +0.239 C 
ATOM     30  O   UNL     1      -1.516   0.666   4.802  0.00  0.00    -0.273 OA
ATOM     31  N   UNL     1      -2.221   1.358   2.816  0.00  0.00    -0.311 N 
ATOM     32  H   UNL     1      -2.123   1.329   1.851  0.00  0.00    +0.149 HD
BRANCH  31  33
ATOM     33  C   UNL     1      -3.328   2.106   3.417  0.00  0.00    +0.073 C 
ATOM     34  C   UNL     1      -4.495   1.156   3.692  0.00  0.00    +0.022 C 
ATOM     35  C   UNL     1      -5.652   1.937   4.320  0.00  0.00    +0.002 C 
ATOM     36  C   UNL     1      -6.105   3.038   3.359  0.00  0.00    +0.000 C 
ATOM     37  C   UNL     1      -4.938   3.988   3.084  0.00  0.00    +0.002 C 
ATOM     38  C   UNL     1      -3.781   3.207   2.456  0.00  0.00    +0.022 C 
ENDBRANCH  31  33
ENDBRANCH  21  29
ENDBRANCH   1  21
TORSDOF 8
