REMARK  Name = ZINC40346836
REMARK  9 active torsions:
REMARK  status: ('A' for Active; 'I' for Inactive)
REMARK    1  A    between atoms: C_1  and  C_2
REMARK    2  A    between atoms: C_2  and  C_3
REMARK    3  A    between atoms: C_2  and  N_4
REMARK    4  A    between atoms: C_5  and  C_7
REMARK    5  A    between atoms: C_7  and  N_8
REMARK    6  A    between atoms: N_8  and  C_9
REMARK    7  A    between atoms: N_8  and  S_10
REMARK    8  A    between atoms: S_10  and  C_13
REMARK    9  A    between atoms: C_16  and  N_20
REMARK                            x       y       z     vdW  Elec       q    Type
REMARK                         _______ _______ _______ _____ _____    ______ ____
ROOT
ATOM      1  S   UNL     1      -3.450  -3.786  -2.670  0.00  0.00    +0.063 S 
ATOM      2  O   UNL     1      -3.946  -5.109  -2.821  0.00  0.00    -0.153 OA
ATOM      3  O   UNL     1      -4.200  -2.642  -3.054  0.00  0.00    -0.153 OA
ENDROOT
BRANCH   1   4
ATOM      4  C   UNL     1      -1.930  -3.713  -3.559  0.00  0.00    +0.133 A 
ATOM      5  C   UNL     1      -1.454  -2.497  -4.015  0.00  0.00    +0.047 A 
ATOM      6  C   UNL     1      -0.263  -2.437  -4.713  0.00  0.00    +0.040 A 
ATOM      7  C   UNL     1       0.457  -3.599  -4.956  0.00  0.00    +0.027 A 
ATOM      8  C   UNL     1      -0.022  -4.819  -4.496  0.00  0.00    +0.040 A 
ATOM      9  C   UNL     1      -1.212  -4.872  -3.794  0.00  0.00    +0.047 A 
ATOM     10 BR   UNL     1      -1.863  -6.531  -3.162  0.00  0.00    -0.048 Br
ATOM     11 BR   UNL     1      -2.435  -0.914  -3.683  0.00  0.00    -0.048 Br
BRANCH   7  12
ATOM     12  N   UNL     1       1.661  -3.542  -5.661  0.00  0.00    -0.358 N 
ATOM     13  H   UNL     1       1.996  -2.690  -5.982  0.00  0.00    +0.142 HD
ATOM     14  H   UNL     1       2.164  -4.355  -5.830  0.00  0.00    +0.142 HD
ENDBRANCH   7  12
ENDBRANCH   1   4
BRANCH   1  15
ATOM     15  N   UNL     1      -3.087  -3.596  -1.065  0.00  0.00    -0.171 NA
ATOM     16  C   UNL     1      -2.798  -4.769  -0.236  0.00  0.00    +0.132 C 
BRANCH  15  17
ATOM     17  C   UNL     1      -3.057  -2.256  -0.474  0.00  0.00    +0.204 C 
BRANCH  17  19
ATOM     18  N   UNL     1      -1.372  -0.511   0.012  0.00  0.00    -0.312 N 
ATOM     19  C   UNL     1      -1.643  -1.734  -0.485  0.00  0.00    +0.229 C 
ATOM     20  O   UNL     1      -0.749  -2.415  -0.941  0.00  0.00    -0.274 OA
ATOM     21  H   UNL     1      -2.087   0.033   0.377  0.00  0.00    +0.149 HD
BRANCH  18  23
ATOM     22  C   UNL     1      -0.019   1.526   0.010  0.00  0.00    +0.027 C 
ATOM     23  C   UNL     1       0.002  -0.004   0.002  0.00  0.00    +0.067 C 
ATOM     24  C   UNL     1       0.742  -0.511   1.242  0.00  0.00    +0.027 C 
ENDBRANCH  18  23
ENDBRANCH  17  19
ENDBRANCH  15  17
ENDBRANCH   1  15
TORSDOF 6
