REMARK  Name = ZINC04014926
REMARK  9 active torsions:
REMARK  status: ('A' for Active; 'I' for Inactive)
REMARK    1  A    between atoms: C_1  and  C_2
REMARK    2  A    between atoms: C_15  and  O_34
REMARK    3  A    between atoms: C_18  and  C_33
REMARK    4  A    between atoms: C_23  and  C_24
REMARK    5  A    between atoms: C_23  and  O_32
REMARK    6  A    between atoms: C_24  and  C_26
REMARK    7  A    between atoms: C_26  and  O_27
REMARK    8  A    between atoms: O_27  and  C_28
REMARK    9  A    between atoms: C_28  and  C_30
REMARK                            x       y       z     vdW  Elec       q    Type
REMARK                         _______ _______ _______ _____ _____    ______ ____
ROOT
ATOM      1  C   UNL     1      -9.717   5.231  -1.695  0.00  0.00    +0.016 C 
ATOM      2  C   UNL     1      -8.303   5.811  -1.477  0.00  0.00    -0.005 C 
ATOM      3  C   UNL     1      -7.945   6.467  -2.798  0.00  0.00    +0.019 C 
ATOM      4  C   UNL     1      -8.831   7.679  -3.095  0.00  0.00    +0.080 C 
ATOM      5  C   UNL     1      -8.660   8.663  -1.958  0.00  0.00    +0.156 C 
ATOM      6  O   UNL     1      -8.573   9.858  -2.166  0.00  0.00    -0.293 OA
ATOM      7  C   UNL     1      -8.604   8.121  -0.600  0.00  0.00    +0.046 C 
ATOM      8  C   UNL     1      -8.471   6.812  -0.380  0.00  0.00    -0.060 C 
ATOM      9  C   UNL     1      -8.493   6.346   1.062  0.00  0.00    +0.032 C 
ATOM     10  C   UNL     1      -7.324   5.392   1.264  0.00  0.00    +0.008 C 
ATOM     11  C   UNL     1      -7.441   4.198   0.319  0.00  0.00    -0.001 C 
ATOM     12  C   UNL     1      -7.463   4.612  -1.143  0.00  0.00    +0.031 C 
ATOM     13  C   UNL     1      -6.081   4.510  -1.755  0.00  0.00    +0.119 C 
ATOM     14  C   UNL     1      -5.639   3.030  -1.833  0.00  0.00    +0.041 C 
ATOM     15  C   UNL     1      -6.027   2.308  -0.574  0.00  0.00    +0.009 C 
ATOM     16  C   UNL     1      -6.229   3.311   0.578  0.00  0.00    +0.002 C 
ATOM     17  C   UNL     1      -6.399   2.385   1.794  0.00  0.00    +0.008 C 
ATOM     18  C   UNL     1      -5.468   1.181   1.494  0.00  0.00    +0.043 C 
ATOM     19  C   UNL     1      -4.981   1.361   0.033  0.00  0.00    +0.133 C 
ATOM     20  C   UNL     1      -7.303   1.481  -0.811  0.00  0.00    +0.015 C 
ENDROOT
BRANCH  19  21
ATOM     21  C   UNL     1      -3.600   1.954   0.030  0.00  0.00    +0.202 C 
ATOM     22  O   UNL     1      -3.458   3.153   0.036  0.00  0.00    -0.291 OA
BRANCH  21  23
ATOM     23  C   UNL     1      -2.393   1.052   0.019  0.00  0.00    +0.309 C 
BRANCH  23  24
ATOM     24  O   UNL     1      -1.186   1.859   0.018  0.00  0.00    -0.456 OA
BRANCH  24  25
ATOM     25  C   UNL     1      -0.014   1.204   0.009  0.00  0.00    +0.322 C 
ATOM     26  O   UNL     1       0.002  -0.004   0.002  0.00  0.00    -0.250 OA
BRANCH  25  27
ATOM     27  C   UNL     1       1.280   1.975   0.000  0.00  0.00    +0.229 C 
ATOM     28 CL   UNL     1       2.667   0.822  -0.019  0.00  0.00    -0.114 Cl
ENDBRANCH  25  27
ENDBRANCH  24  25
ENDBRANCH  23  24
ENDBRANCH  21  23
ENDBRANCH  19  21
BRANCH  19  29
ATOM     29  O   UNL     1      -4.995   0.109  -0.650  0.00  0.00    -0.380 OA
ATOM     30  H   UNL     1      -4.402  -0.554  -0.269  0.00  0.00    +0.211 HD
ENDBRANCH  19  29
BRANCH  13  31
ATOM     31  O   UNL     1      -6.024   5.011  -3.092  0.00  0.00    -0.391 OA
ATOM     32  H   UNL     1      -5.147   4.953  -3.496  0.00  0.00    +0.210 HD
ENDBRANCH  13  31
TORSDOF 7
