REMARK  Name = ZINC02973542
REMARK  10 active torsions:
REMARK  status: ('A' for Active; 'I' for Inactive)
REMARK    1  A    between atoms: C_4  and  C_7
REMARK    2  A    between atoms: C_7  and  N_8
REMARK    3  A    between atoms: C_9  and  C_11
REMARK    4  A    between atoms: C_11  and  C_12
REMARK    5  A    between atoms: C_12  and  C_13
REMARK    6  A    between atoms: C_13  and  N_14
REMARK    7  A    between atoms: C_24  and  S_25
REMARK    8  A    between atoms: S_25  and  C_26
REMARK    9  A    between atoms: C_26  and  C_27
REMARK   10  A    between atoms: C_31  and  N_33
REMARK                            x       y       z     vdW  Elec       q    Type
REMARK                         _______ _______ _______ _____ _____    ______ ____
ROOT
ATOM      1  N   UNL     1      -0.132   8.540  -2.448  0.00  0.00    -0.287 N 
ATOM      2  C   UNL     1      -0.154   9.880  -2.266  0.00  0.00    +0.262 A 
ATOM      3  O   UNL     1      -0.174  10.647  -3.211  0.00  0.00    -0.267 OA
ATOM      4  C   UNL     1      -0.148  10.377  -0.883  0.00  0.00    +0.065 A 
ATOM      5  C   UNL     1      -0.164  11.739  -0.589  0.00  0.00    +0.015 A 
ATOM      6  C   UNL     1      -0.158  12.147   0.716  0.00  0.00    +0.001 A 
ATOM      7  C   UNL     1      -0.135  11.220   1.750  0.00  0.00    +0.002 A 
ATOM      8  C   UNL     1      -0.119   9.878   1.490  0.00  0.00    +0.028 A 
ATOM      9  C   UNL     1      -0.125   9.430   0.166  0.00  0.00    +0.079 A 
ATOM     10  N   UNL     1      -0.110   8.115  -0.135  0.00  0.00    -0.223 NA
ATOM     11  C   UNL     1      -0.116   7.695  -1.375  0.00  0.00    +0.172 A 
ENDROOT
BRANCH   1  12
ATOM     12  C   UNL     1      -0.132   7.990  -3.807  0.00  0.00    +0.128 C 
BRANCH  12  13
ATOM     13  C   UNL     1      -1.574   7.781  -4.272  0.00  0.00    +0.031 C 
BRANCH  13  14
ATOM     14  C   UNL     1      -1.573   7.207  -5.691  0.00  0.00    +0.097 C 
BRANCH  14  16
ATOM     15  N   UNL     1      -3.240   6.501  -7.377  0.00  0.00    -0.311 N 
ATOM     16  C   UNL     1      -2.994   7.001  -6.149  0.00  0.00    +0.213 C 
ATOM     17  O   UNL     1      -3.916   7.285  -5.414  0.00  0.00    -0.276 OA
ATOM     18  H   UNL     1      -2.404   6.244  -8.044  0.00  0.00    +0.149 HD
BRANCH  15  19
ATOM     19  C   UNL     1      -4.621   6.300  -7.823  0.00  0.00    +0.139 C 
BRANCH  19  23
ATOM     20  C   UNL     1      -4.620   4.699 -11.783  0.00  0.00    +0.000 A 
ATOM     21  C   UNL     1      -4.604   3.849 -10.694  0.00  0.00    +0.000 A 
ATOM     22  C   UNL     1      -4.604   4.367  -9.412  0.00  0.00    +0.005 A 
ATOM     23  C   UNL     1      -4.621   5.736  -9.220  0.00  0.00    -0.030 A 
ATOM     24  C   UNL     1      -4.643   6.586 -10.309  0.00  0.00    +0.005 A 
ATOM     25  C   UNL     1      -4.638   6.068 -11.591  0.00  0.00    +0.000 A 
ENDBRANCH  19  23
ENDBRANCH  15  19
ENDBRANCH  14  16
ENDBRANCH  13  14
ENDBRANCH  12  13
ENDBRANCH   1  12
BRANCH  11  26
ATOM     26  S   UNL     1      -0.095   5.958  -1.674  0.00  0.00    -0.083 S 
BRANCH  26  27
ATOM     27  C   UNL     1      -0.070   5.347   0.030  0.00  0.00    +0.112 C 
BRANCH  27  28
ATOM     28  C   UNL     1      -0.050   3.840   0.022  0.00  0.00    -0.035 A 
ATOM     29  C   UNL     1       1.157   3.165   0.008  0.00  0.00    +0.004 A 
ATOM     30  C   UNL     1       1.175   1.783   0.000  0.00  0.00    +0.003 A 
ATOM     31  C   UNL     1      -0.013   1.076   0.008  0.00  0.00    +0.033 A 
ATOM     32  C   UNL     1      -1.219   1.750   0.017  0.00  0.00    +0.126 A 
ATOM     33  C   UNL     1      -1.238   3.133   0.030  0.00  0.00    +0.037 A 
BRANCH  32  34
ATOM     34  N   UNL     1      -2.490   0.993   0.019  0.00  0.00    +0.056 N 
ATOM     35  O   UNL     1      -2.474  -0.225   0.013  0.00  0.00    -0.126 OA
ATOM     36  O   UNL     1      -3.554   1.588   0.028  0.00  0.00    -0.126 OA
ENDBRANCH  32  34
ENDBRANCH  27  28
ENDBRANCH  26  27
ENDBRANCH  11  26
TORSDOF 10
