REMARK  Name = ZINC06653137
REMARK  5 active torsions:
REMARK  status: ('A' for Active; 'I' for Inactive)
REMARK    1  A    between atoms: C_10  and  N_11
REMARK    2  A    between atoms: N_11  and  C_12
REMARK    3  A    between atoms: C_12  and  N_14
REMARK    4  A    between atoms: N_14  and  C_15
REMARK    5  A    between atoms: C_18  and  N_22
REMARK                            x       y       z     vdW  Elec       q    Type
REMARK                         _______ _______ _______ _____ _____    ______ ____
ROOT
ATOM      1  C   UNL     1       3.592   1.733   0.162  0.00  0.00    +0.139 C 
ATOM      2  S   UNL     1       3.602   3.403   0.539  0.00  0.00    -0.018 S 
ENDROOT
BRANCH   1   3
ATOM      3  N   UNL     1       4.726   1.126  -0.239  0.00  0.00    -0.296 N 
ATOM      4  H   UNL     1       4.706   0.199  -0.523  0.00  0.00    +0.154 HD
BRANCH   3  14
ATOM      5  C   UNL     1       9.377   0.235   1.506  0.00  0.00    +0.001 A 
ATOM      6  C   UNL     1       8.185  -0.486   1.525  0.00  0.00    +0.001 A 
ATOM      7  C   UNL     1       7.053   0.016   0.960  0.00  0.00    +0.010 A 
ATOM      8  C   UNL     1       7.082   1.282   0.354  0.00  0.00    +0.003 A 
ATOM      9  C   UNL     1       8.295   2.014   0.329  0.00  0.00    -0.016 A 
ATOM     10  C   UNL     1       9.444   1.463   0.922  0.00  0.00    +0.008 A 
ATOM     11  C   UNL     1       8.327   3.279  -0.283  0.00  0.00    +0.008 A 
ATOM     12  C   UNL     1       7.199   3.788  -0.851  0.00  0.00    +0.002 A 
ATOM     13  C   UNL     1       6.003   3.076  -0.837  0.00  0.00    +0.024 A 
ATOM     14  C   UNL     1       5.930   1.832  -0.247  0.00  0.00    +0.040 A 
ENDBRANCH   3  14
ENDBRANCH   1   3
BRANCH   1  15
ATOM     15  N   UNL     1       2.450   1.025   0.267  0.00  0.00    -0.297 N 
ATOM     16  H   UNL     1       2.457   0.068   0.114  0.00  0.00    +0.154 HD
BRANCH  15  17
ATOM     17  C   UNL     1       1.252   1.673   0.598  0.00  0.00    +0.035 A 
ATOM     18  C   UNL     1       0.092   1.391  -0.111  0.00  0.00    +0.045 A 
ATOM     19  C   UNL     1      -1.088   2.033   0.212  0.00  0.00    +0.065 A 
ATOM     20  C   UNL     1      -1.116   2.954   1.252  0.00  0.00    +0.062 A 
ATOM     21  C   UNL     1       0.045   3.235   1.961  0.00  0.00    +0.065 A 
ATOM     22  C   UNL     1       1.226   2.596   1.635  0.00  0.00    +0.045 A 
ATOM     23 CL   UNL     1       0.012   4.390   3.257  0.00  0.00    -0.082 Cl
ATOM     24 CL   UNL     1      -2.537   1.685  -0.679  0.00  0.00    -0.082 Cl
BRANCH  20  25
ATOM     25  N   UNL     1      -2.313   3.601   1.582  0.00  0.00    -0.356 N 
ATOM     26  H   UNL     1      -2.332   4.247   2.306  0.00  0.00    +0.142 HD
ATOM     27  H   UNL     1      -3.124   3.405   1.087  0.00  0.00    +0.142 HD
ENDBRANCH  20  25
ENDBRANCH  15  17
ENDBRANCH   1  15
TORSDOF 5
