REMARK  Name = ZINC36093617
REMARK  9 active torsions:
REMARK  status: ('A' for Active; 'I' for Inactive)
REMARK    1  A    between atoms: C_1  and  C_2
REMARK    2  A    between atoms: C_2  and  O_3
REMARK    3  A    between atoms: O_3  and  C_4
REMARK    4  A    between atoms: C_6  and  C_20
REMARK    5  A    between atoms: C_9  and  O_10
REMARK    6  A    between atoms: O_10  and  C_11
REMARK    7  A    between atoms: C_11  and  C_13
REMARK    8  A    between atoms: N_29  and  C_32
REMARK    9  A    between atoms: C_33  and  O_35
REMARK                            x       y       z     vdW  Elec       q    Type
REMARK                         _______ _______ _______ _____ _____    ______ ____
ROOT
ATOM      1  C   UNL     1      -1.497  -1.835   0.038  0.00  0.00    +0.163 A 
ATOM      2  C   UNL     1      -0.382  -2.659   0.030  0.00  0.00    +0.056 A 
ATOM      3  C   UNL     1      -0.538  -4.032  -0.004  0.00  0.00    -0.002 A 
ATOM      4  C   UNL     1      -1.804  -4.586  -0.029  0.00  0.00    +0.011 A 
ATOM      5  C   UNL     1      -2.920  -3.771  -0.021  0.00  0.00    +0.050 A 
ATOM      6  C   UNL     1      -2.771  -2.393   0.017  0.00  0.00    +0.173 A 
ENDROOT
BRANCH   3   7
ATOM      7  C   UNL     1       0.675  -4.926  -0.013  0.00  0.00    +0.224 C 
ATOM      8  N   UNL     1       0.332  -6.208   0.629  0.00  0.00    -0.313 N 
ATOM      9  C   UNL     1       0.399  -6.238   2.004  0.00  0.00    +0.080 A 
ATOM     10  C   UNL     1       1.218  -5.360   2.725  0.00  0.00    +0.067 A 
ATOM     11  C   UNL     1       1.171  -5.504   4.166  0.00  0.00    -0.027 A 
ATOM     12  C   UNL     1       0.343  -6.480   4.610  0.00  0.00    -0.021 A 
ATOM     13  S   UNL     1      -0.355  -7.181   3.142  0.00  0.00    -0.080 S 
ATOM     14  C   UNL     1       0.102  -6.853   6.038  0.00  0.00    -0.036 C 
ATOM     15  N   UNL     1       1.175  -6.263   6.859  0.00  0.00    +0.381 N 
ATOM     16  C   UNL     1       1.311  -4.836   6.540  0.00  0.00    -0.074 C 
ATOM     17  C   UNL     1       1.958  -4.662   5.161  0.00  0.00    +0.018 C 
ATOM     18  C   UNL     1       0.842  -6.416   8.282  0.00  0.00    -0.096 C 
ATOM     19  C   UNL     1       2.038  -4.396   1.948  0.00  0.00    +0.220 C 
ATOM     20  N   UNL     1       1.766  -4.254   0.681  0.00  0.00    -0.223 NA
ATOM     21  H   UNL     1       0.075  -6.987   0.112  0.00  0.00    +0.149 HD
ATOM     22  H   UNL     1       2.045  -6.735   6.665  0.00  0.00    -0.082 HD
BRANCH  19  23
ATOM     23  O   UNL     1       3.032  -3.690   2.535  0.00  0.00    -0.492 OA
ATOM     24  H   UNL     1       3.499  -3.094   1.934  0.00  0.00    +0.294 HD
ENDBRANCH  19  23
ENDBRANCH   3   7
BRANCH   1  25
ATOM     25  O   UNL     1      -1.345  -0.484   0.071  0.00  0.00    -0.489 OA
BRANCH  25  27
ATOM     26  C   UNL     1      -0.038   1.548   0.128  0.00  0.00    +0.048 C 
ATOM     27  C   UNL     1      -0.008   0.019   0.091  0.00  0.00    +0.226 C 
ENDBRANCH  25  27
ENDBRANCH   1  25
BRANCH   6  28
ATOM     28  O   UNL     1      -3.868  -1.589   0.030  0.00  0.00    -0.419 OA
BRANCH  28  29
ATOM     29  C   UNL     1      -4.261  -1.037  -1.134  0.00  0.00    +0.345 C 
ATOM     30  O   UNL     1      -3.701  -1.339  -2.170  0.00  0.00    -0.245 OA
BRANCH  29  31
ATOM     31  C   UNL     1      -5.371  -0.064  -1.152  0.00  0.00    +0.060 A 
ATOM     32  C   UNL     1      -6.012   0.290   0.038  0.00  0.00    +0.018 A 
ATOM     33  C   UNL     1      -7.048   1.199   0.015  0.00  0.00    +0.039 A 
ATOM     34  C   UNL     1      -7.453   1.762  -1.185  0.00  0.00    +0.123 A 
ATOM     35  C   UNL     1      -6.820   1.415  -2.369  0.00  0.00    +0.039 A 
ATOM     36  C   UNL     1      -5.780   0.510  -2.358  0.00  0.00    +0.018 A 
ATOM     37  F   UNL     1      -8.469   2.652  -1.202  0.00  0.00    -0.205 F 
ENDBRANCH  29  31
ENDBRANCH  28  29
ENDBRANCH   6  28
TORSDOF 7
