REMARK  Name = ZINC40303101
REMARK  8 active torsions:
REMARK  status: ('A' for Active; 'I' for Inactive)
REMARK    1  A    between atoms: C_1  and  C_2
REMARK    2  A    between atoms: C_2  and  C_4
REMARK    3  A    between atoms: C_2  and  N_8
REMARK    4  A    between atoms: C_4  and  C_5
REMARK    5  A    between atoms: C_5  and  C_6
REMARK    6  A    between atoms: C_5  and  C_7
REMARK    7  A    between atoms: C_9  and  C_11
REMARK    8  A    between atoms: C_19  and  N_21
REMARK                            x       y       z     vdW  Elec       q    Type
REMARK                         _______ _______ _______ _____ _____    ______ ____
ROOT
ATOM      1  C   UNL     1      -3.407  -1.164   1.191  0.00  0.00    +0.062 A 
ATOM      2  C   UNL     1      -4.148  -1.535   0.109  0.00  0.00    +0.096 A 
ATOM      3  N   UNL     1      -5.373  -1.952   0.513  0.00  0.00    -0.360 N 
ATOM      4  H   UNL     1      -6.074  -2.266  -0.080  0.00  0.00    +0.165 HD
ATOM      5  C   UNL     1      -5.481  -1.869   1.885  0.00  0.00    +0.049 A 
ATOM      6  C   UNL     1      -4.260  -1.379   2.376  0.00  0.00    +0.012 A 
ATOM      7  C   UNL     1      -4.077  -1.195   3.744  0.00  0.00    +0.012 A 
ATOM      8  C   UNL     1      -5.089  -1.496   4.613  0.00  0.00    +0.023 A 
ATOM      9  C   UNL     1      -6.303  -1.986   4.137  0.00  0.00    +0.027 A 
ATOM     10  C   UNL     1      -6.503  -2.167   2.779  0.00  0.00    +0.049 A 
ENDROOT
BRANCH   1  12
ATOM     11  N   UNL     1      -1.372  -0.511   0.012  0.00  0.00    -0.309 N 
ATOM     12  C   UNL     1      -2.029  -0.655   1.181  0.00  0.00    +0.246 C 
ATOM     13  O   UNL     1      -1.480  -0.364   2.227  0.00  0.00    -0.270 OA
ATOM     14  H   UNL     1      -1.810  -0.743  -0.822  0.00  0.00    +0.149 HD
BRANCH  11  16
ATOM     15  C   UNL     1      -0.019   1.526   0.010  0.00  0.00    +0.028 C 
ATOM     16  C   UNL     1       0.002  -0.004   0.002  0.00  0.00    +0.070 C 
BRANCH  16  17
ATOM     17  C   UNL     1       0.718  -0.497  -1.257  0.00  0.00    +0.025 C 
BRANCH  17  18
ATOM     18  C   UNL     1       0.849  -2.021  -1.205  0.00  0.00    -0.015 C 
ATOM     19  C   UNL     1       1.452  -2.526  -2.517  0.00  0.00    +0.007 C 
ATOM     20  C   UNL     1       1.760  -2.415  -0.040  0.00  0.00    +0.007 C 
ENDBRANCH  17  18
ENDBRANCH  16  17
ENDBRANCH  11  16
ENDBRANCH   1  12
BRANCH   9  21
ATOM     21  N   UNL     1      -7.329  -2.289   5.037  0.00  0.00    -0.358 N 
ATOM     22  H   UNL     1      -7.194  -2.159   5.989  0.00  0.00    +0.142 HD
ATOM     23  H   UNL     1      -8.176  -2.631   4.710  0.00  0.00    +0.142 HD
ENDBRANCH   9  21
TORSDOF 5
