REMARK  Name = ZINC38619367
REMARK  13 active torsions:
REMARK  status: ('A' for Active; 'I' for Inactive)
REMARK    1  A    between atoms: C_1  and  C_2
REMARK    2  A    between atoms: C_2  and  O_3
REMARK    3  A    between atoms: O_3  and  C_4
REMARK    4  A    between atoms: C_7  and  C_36
REMARK    5  A    between atoms: C_9  and  S_10
REMARK    6  A    between atoms: S_10  and  N_13
REMARK    7  A    between atoms: N_13  and  C_14
REMARK    8  A    between atoms: C_14  and  C_15
REMARK    9  A    between atoms: C_15  and  C_17
REMARK   10  A    between atoms: C_15  and  N_22
REMARK   11  A    between atoms: N_25  and  C_28
REMARK   12  A    between atoms: C_31  and  O_34
REMARK   13  A    between atoms: O_34  and  C_35
REMARK                            x       y       z     vdW  Elec       q    Type
REMARK                         _______ _______ _______ _____ _____    ______ ____
ROOT
ATOM      1  C   UNL     1      -0.806   1.385  -4.445  0.00  0.00    +0.139 C 
ENDROOT
BRANCH   1   2
ATOM      2  N   UNL     1       0.063   2.064  -5.415  0.00  0.00    -0.289 NA
ATOM      3  C   UNL     1       1.051   2.911  -4.735  0.00  0.00    +0.104 C 
ATOM      4  C   UNL     1       2.048   3.455  -5.763  0.00  0.00    +0.120 C 
ATOM      5  N   UNL     1       1.294   4.120  -6.838  0.00  0.00    -0.327 N 
ATOM      6  C   UNL     1       0.195   3.380  -7.476  0.00  0.00    +0.120 C 
ATOM      7  C   UNL     1      -0.729   2.839  -6.380  0.00  0.00    +0.104 C 
BRANCH   5   8
ATOM      8  C   UNL     1       1.614   5.421  -7.241  0.00  0.00    +0.030 A 
ATOM      9  C   UNL     1       2.579   6.144  -6.553  0.00  0.00    +0.027 A 
ATOM     10  C   UNL     1       2.895   7.428  -6.952  0.00  0.00    +0.047 A 
ATOM     11  C   UNL     1       2.249   7.995  -8.041  0.00  0.00    +0.120 A 
ATOM     12  C   UNL     1       1.284   7.273  -8.729  0.00  0.00    +0.047 A 
ATOM     13  C   UNL     1       0.972   5.987  -8.334  0.00  0.00    +0.027 A 
BRANCH  11  14
ATOM     14  O   UNL     1       2.560   9.259  -8.433  0.00  0.00    -0.495 OA
ATOM     15  C   UNL     1       1.856   9.780  -9.562  0.00  0.00    +0.277 C 
ENDBRANCH  11  14
ENDBRANCH   5   8
ENDBRANCH   1   2
BRANCH   1  16
ATOM     16  C   UNL     1      -1.524   2.413  -3.609  0.00  0.00    +0.123 A 
ATOM     17  C   UNL     1      -2.807   2.345  -3.210  0.00  0.00    +0.046 A 
ATOM     18  C   UNL     1      -3.062   3.511  -2.453  0.00  0.00    +0.041 A 
ATOM     19  C   UNL     1      -1.920   4.221  -2.433  0.00  0.00    +0.195 A 
ATOM     20  O   UNL     1      -0.990   3.548  -3.131  0.00  0.00    -0.466 OA
ENDBRANCH   1  16
BRANCH   1  21
ATOM     21  C   UNL     1       0.042   0.492  -3.538  0.00  0.00    +0.132 C 
BRANCH  21  22
ATOM     22  N   UNL     1       0.832  -0.429  -4.359  0.00  0.00    -0.188 NA
ATOM     23  H   UNL     1       0.609  -0.557  -5.294  0.00  0.00    +0.148 HD
BRANCH  22  24
ATOM     24  S   UNL     1       2.105  -1.251  -3.691  0.00  0.00    +0.062 S 
ATOM     25  O   UNL     1       2.887  -0.291  -2.994  0.00  0.00    -0.153 OA
ATOM     26  O   UNL     1       2.643  -2.071  -4.719  0.00  0.00    -0.153 OA
BRANCH  24  32
ATOM     27  C   UNL     1       0.818  -1.824  -1.347  0.00  0.00    +0.147 A 
ATOM     28  C   UNL     1       0.292  -2.683  -0.394  0.00  0.00    +0.048 A 
ATOM     29  C   UNL     1       0.394  -4.050  -0.566  0.00  0.00    +0.007 A 
ATOM     30  C   UNL     1       1.019  -4.562  -1.688  0.00  0.00    -0.048 A 
ATOM     31  C   UNL     1       1.545  -3.707  -2.640  0.00  0.00    +0.035 A 
ATOM     32  C   UNL     1       1.441  -2.339  -2.474  0.00  0.00    +0.147 A 
ATOM     33  C   UNL     1       1.129  -6.053  -1.874  0.00  0.00    +0.044 C 
BRANCH  27  34
ATOM     34  O   UNL     1       0.719  -0.479  -1.180  0.00  0.00    -0.490 OA
BRANCH  34  36
ATOM     35  C   UNL     1       0.050   1.511   0.018  0.00  0.00    +0.048 C 
ATOM     36  C   UNL     1       0.065  -0.019   0.005  0.00  0.00    +0.226 C 
ENDBRANCH  34  36
ENDBRANCH  27  34
ENDBRANCH  24  32
ENDBRANCH  22  24
ENDBRANCH  21  22
ENDBRANCH   1  21
TORSDOF 10
