REMARK  Name = ZINC06271555
REMARK  9 active torsions:
REMARK  status: ('A' for Active; 'I' for Inactive)
REMARK    1  A    between atoms: C_1  and  C_2
REMARK    2  A    between atoms: C_5  and  O_28
REMARK    3  A    between atoms: C_6  and  N_8
REMARK    4  A    between atoms: N_9  and  C_10
REMARK    5  A    between atoms: C_13  and  S_16
REMARK    6  A    between atoms: S_16  and  N_19
REMARK    7  A    between atoms: N_19  and  C_20
REMARK    8  A    between atoms: N_19  and  C_21
REMARK    9  A    between atoms: C_21  and  C_22
REMARK                            x       y       z     vdW  Elec       q    Type
REMARK                         _______ _______ _______ _____ _____    ______ ____
ROOT
ATOM      1  C   UNL     1      -0.223  -2.789   4.817  0.00  0.00    +0.086 A 
ATOM      2  C   UNL     1      -0.152  -4.184   4.770  0.00  0.00    +0.031 A 
ATOM      3  C   UNL     1      -0.059  -4.907   5.940  0.00  0.00    +0.030 A 
ATOM      4  C   UNL     1      -0.036  -4.254   7.160  0.00  0.00    +0.106 A 
ATOM      5  C   UNL     1      -0.106  -2.873   7.216  0.00  0.00    +0.030 A 
ATOM      6  C   UNL     1      -0.193  -2.137   6.053  0.00  0.00    +0.031 A 
ENDROOT
BRANCH   4   7
ATOM      7  S   UNL     1       0.083  -5.186   8.651  0.00  0.00    +0.061 S 
ATOM      8  O   UNL     1      -0.356  -4.334   9.700  0.00  0.00    -0.153 OA
ATOM      9  O   UNL     1      -0.519  -6.447   8.391  0.00  0.00    -0.153 OA
BRANCH   7  10
ATOM     10  N   UNL     1       1.691  -5.477   8.920  0.00  0.00    -0.175 NA
ATOM     11  C   UNL     1       2.348  -6.617   8.274  0.00  0.00    +0.132 C 
BRANCH  10  12
ATOM     12  C   UNL     1       2.458  -4.595   9.803  0.00  0.00    +0.144 C 
BRANCH  12  13
ATOM     13  C   UNL     1       2.511  -5.192  11.186  0.00  0.00    -0.032 A 
ATOM     14  C   UNL     1       1.584  -4.814  12.139  0.00  0.00    +0.005 A 
ATOM     15  C   UNL     1       1.634  -5.362  13.407  0.00  0.00    +0.000 A 
ATOM     16  C   UNL     1       2.610  -6.288  13.722  0.00  0.00    +0.000 A 
ATOM     17  C   UNL     1       3.536  -6.668  12.769  0.00  0.00    +0.000 A 
ATOM     18  C   UNL     1       3.484  -6.123  11.499  0.00  0.00    +0.005 A 
ENDBRANCH  12  13
ENDBRANCH  10  12
ENDBRANCH   7  10
ENDBRANCH   4   7
BRANCH   1  20
ATOM     19  N   UNL     1      -0.344  -2.671   2.522  0.00  0.00    -0.146 NA
ATOM     20  N   UNL     1      -0.316  -2.066   3.661  0.00  0.00    -0.149 NA
BRANCH  19  26
ATOM     21  C   UNL     1      -0.665   1.673   0.296  0.00  0.00    +0.044 C 
ATOM     22  C   UNL     1      -0.595   0.169   0.245  0.00  0.00    -0.048 A 
ATOM     23  C   UNL     1      -0.625  -0.481  -0.978  0.00  0.00    +0.007 A 
ATOM     24  C   UNL     1      -0.561  -1.860  -1.039  0.00  0.00    +0.048 A 
ATOM     25  C   UNL     1      -0.467  -2.603   0.127  0.00  0.00    +0.144 A 
ATOM     26  C   UNL     1      -0.436  -1.950   1.368  0.00  0.00    +0.128 A 
ATOM     27  C   UNL     1      -0.496  -0.553   1.414  0.00  0.00    +0.036 A 
BRANCH  25  28
ATOM     28  O   UNL     1      -0.405  -3.958   0.069  0.00  0.00    -0.505 OA
ATOM     29  H   UNL     1       0.495  -4.309   0.007  0.00  0.00    +0.292 HD
ENDBRANCH  25  28
ENDBRANCH  19  26
ENDBRANCH   1  20
TORSDOF 7
