REMARK  Name = ZINC40755119
REMARK  6 active torsions:
REMARK  status: ('A' for Active; 'I' for Inactive)
REMARK    1  A    between atoms: C_1  and  C_2
REMARK    2  A    between atoms: C_6  and  N_9
REMARK    3  A    between atoms: C_7  and  C_8
REMARK    4  A    between atoms: C_11  and  N_27
REMARK    5  A    between atoms: C_12  and  N_16
REMARK    6  A    between atoms: C_20  and  C_26
REMARK                            x       y       z     vdW  Elec       q    Type
REMARK                         _______ _______ _______ _____ _____    ______ ____
ROOT
ATOM      1  N   UNL     1       0.051  -2.797   2.391  0.00  0.00    -0.298 N 
ATOM      2  C   UNL     1      -0.036  -4.184   2.383  0.00  0.00    +0.149 A 
ATOM      3  C   UNL     1      -0.133  -4.896   3.582  0.00  0.00    +0.106 A 
ATOM      4  C   UNL     1      -0.218  -6.287   3.517  0.00  0.00    +0.150 A 
ATOM      5  N   UNL     1      -0.203  -6.879   2.325  0.00  0.00    -0.219 NA
ATOM      6  C   UNL     1      -0.111  -6.171   1.218  0.00  0.00    +0.225 A 
ATOM      7  N   UNL     1      -0.034  -4.856   1.234  0.00  0.00    -0.219 NA
ATOM      8  H   UNL     1       0.132  -2.321   3.232  0.00  0.00    +0.154 HD
ENDROOT
BRANCH   4   9
ATOM      9  N   UNL     1      -0.315  -7.044   4.681  0.00  0.00    -0.277 N 
ATOM     10  C   UNL     1      -0.399  -8.421   4.604  0.00  0.00    +0.165 A 
ATOM     11  N   UNL     1      -0.501  -9.296   5.579  0.00  0.00    -0.224 NA
ATOM     12  C   UNL     1      -0.575 -10.626   5.355  0.00  0.00    +0.083 A 
ATOM     13  C   UNL     1      -0.686 -11.666   6.306  0.00  0.00    -0.024 A 
ATOM     14  C   UNL     1      -0.749 -12.976   5.908  0.00  0.00    +0.005 A 
ATOM     15  C   UNL     1      -0.707 -13.328   4.567  0.00  0.00    +0.001 A 
ATOM     16  C   UNL     1      -0.599 -12.336   3.609  0.00  0.00    +0.017 A 
ATOM     17  C   UNL     1      -0.535 -11.022   3.999  0.00  0.00    +0.041 A 
ATOM     18  S   UNL     1      -0.403  -9.465   3.153  0.00  0.00    -0.052 S 
ATOM     19  C   UNL     1      -0.735 -11.331   7.775  0.00  0.00    +0.046 C 
ATOM     20  H   UNL     1      -0.325  -6.605   5.545  0.00  0.00    +0.156 HD
ENDBRANCH   4   9
BRANCH   1  26
ATOM     21  C   UNL     1       1.194   1.238  -0.173  0.00  0.00    +0.044 C 
ATOM     22  C   UNL     1       0.567  -0.130  -0.085  0.00  0.00    -0.046 A 
ATOM     23  C   UNL     1      -0.038  -0.685  -1.197  0.00  0.00    +0.004 A 
ATOM     24  C   UNL     1      -0.615  -1.940  -1.121  0.00  0.00    +0.002 A 
ATOM     25  C   UNL     1      -0.587  -2.643   0.068  0.00  0.00    +0.023 A 
ATOM     26  C   UNL     1       0.021  -2.088   1.187  0.00  0.00    +0.036 A 
ATOM     27  C   UNL     1       0.604  -0.830   1.105  0.00  0.00    -0.026 A 
ATOM     28  C   UNL     1       1.270  -0.227   2.315  0.00  0.00    +0.046 C 
ENDBRANCH   1  26
BRANCH   3  29
ATOM     29  N   UNL     1      -0.144  -4.229   4.817  0.00  0.00    -0.353 N 
ATOM     30  H   UNL     1      -0.084  -3.262   4.846  0.00  0.00    +0.143 HD
ATOM     31  H   UNL     1      -0.212  -4.737   5.641  0.00  0.00    +0.143 HD
ENDBRANCH   3  29
TORSDOF 3
