REMARK  Name = ZINC26634286
REMARK  10 active torsions:
REMARK  status: ('A' for Active; 'I' for Inactive)
REMARK    1  A    between atoms: C_1  and  C_2
REMARK    2  A    between atoms: C_2  and  C_4
REMARK    3  A    between atoms: C_2  and  O_22
REMARK    4  A    between atoms: N_6  and  N_7
REMARK    5  A    between atoms: C_8  and  C_10
REMARK    6  A    between atoms: C_12  and  S_18
REMARK    7  A    between atoms: C_15  and  O_16
REMARK    8  A    between atoms: O_16  and  C_17
REMARK    9  A    between atoms: S_18  and  N_21
REMARK   10  A    between atoms: O_22  and  C_23
REMARK                            x       y       z     vdW  Elec       q    Type
REMARK                         _______ _______ _______ _____ _____    ______ ____
ROOT
ATOM      1  N   UNL     1       2.375   5.352  -0.519  0.00  0.00    -0.230 N 
ATOM      2  C   UNL     1       2.384   4.005  -0.566  0.00  0.00    +0.264 C 
ATOM      3  O   UNL     1       3.425   3.397  -0.410  0.00  0.00    -0.269 OA
ATOM      4  H   UNL     1       1.433   5.901  -0.661  0.00  0.00    +0.173 HD
ENDROOT
BRANCH   2   5
ATOM      5  C   UNL     1       1.129   3.268  -0.808  0.00  0.00    +0.082 A 
ATOM      6  C   UNL     1      -0.070   3.962  -0.989  0.00  0.00    +0.045 A 
ATOM      7  C   UNL     1      -1.239   3.267  -1.215  0.00  0.00    +0.106 A 
ATOM      8  C   UNL     1      -1.230   1.883  -1.269  0.00  0.00    +0.032 A 
ATOM      9  C   UNL     1      -0.053   1.184  -1.087  0.00  0.00    +0.048 A 
ATOM     10  C   UNL     1       1.133   1.867  -0.858  0.00  0.00    +0.132 A 
BRANCH   7  11
ATOM     11  S   UNL     1      -2.750   4.144  -1.443  0.00  0.00    +0.056 S 
ATOM     12  O   UNL     1      -3.796   3.247  -1.096  0.00  0.00    -0.153 OA
ATOM     13  O   UNL     1      -2.587   5.406  -0.809  0.00  0.00    -0.153 OA
BRANCH  11  14
ATOM     14  N   UNL     1      -2.902   4.444  -3.064  0.00  0.00    -0.204 NA
ATOM     15  H   UNL     1      -3.838   4.993  -3.249  0.00  0.00    +0.144 HD
ATOM     16  H   UNL     1      -2.921   3.492  -3.613  0.00  0.00    +0.144 HD
ENDBRANCH  11  14
ENDBRANCH   7  11
BRANCH  10  17
ATOM     17  O   UNL     1       2.291   1.182  -0.684  0.00  0.00    -0.494 OA
ATOM     18  C   UNL     1       2.217  -0.243  -0.749  0.00  0.00    +0.277 C 
ENDBRANCH  10  17
ENDBRANCH   2   5
BRANCH   1  21
ATOM     19  C   UNL     1       3.559   7.399  -0.242  0.00  0.00    +0.270 C 
ATOM     20  O   UNL     1       2.520   8.005  -0.398  0.00  0.00    -0.270 OA
ATOM     21  N   UNL     1       3.567   6.052  -0.289  0.00  0.00    -0.231 N 
ATOM     22  H   UNL     1       4.509   5.502  -0.148  0.00  0.00    +0.173 HD
BRANCH  19  24
ATOM     23  C   UNL     1       5.799   7.926  -1.166  0.00  0.00    +0.062 C 
ATOM     24  C   UNL     1       4.841   8.152   0.005  0.00  0.00    +0.257 C 
BRANCH  24  25
ATOM     25  O   UNL     1       4.557   9.547   0.126  0.00  0.00    -0.480 OA
BRANCH  25  26
ATOM     26  C   UNL     1       5.442  10.297   0.835  0.00  0.00    +0.123 A 
ATOM     27  C   UNL     1       6.612   9.725   1.313  0.00  0.00    +0.046 A 
ATOM     28  C   UNL     1       7.511  10.489   2.030  0.00  0.00    +0.005 A 
ATOM     29  C   UNL     1       7.243  11.822   2.280  0.00  0.00    +0.015 A 
ATOM     30  C   UNL     1       6.074  12.395   1.809  0.00  0.00    +0.021 A 
ATOM     31  C   UNL     1       5.173  11.634   1.087  0.00  0.00    +0.061 A 
ATOM     32 BR   UNL     1       5.710  14.218   2.154  0.00  0.00    -0.050 Br
ENDBRANCH  25  26
ENDBRANCH  24  25
ENDBRANCH  19  24
ENDBRANCH   1  21
TORSDOF 8
