REMARK  Name = ZINC39161245
REMARK  6 active torsions:
REMARK  status: ('A' for Active; 'I' for Inactive)
REMARK    1  A    between atoms: C_1  and  C_2
REMARK    2  A    between atoms: C_4  and  C_27
REMARK    3  A    between atoms: C_7  and  N_14
REMARK    4  A    between atoms: C_9  and  C_11
REMARK    5  A    between atoms: C_15  and  C_17
REMARK    6  A    between atoms: C_17  and  C_18
REMARK                            x       y       z     vdW  Elec       q    Type
REMARK                         _______ _______ _______ _____ _____    ______ ____
ROOT
ATOM      1  N   UNL     1       0.301  -1.242   3.495  0.00  0.00    -0.303 N 
ATOM      2  C   UNL     1      -0.733  -1.076   4.345  0.00  0.00    +0.218 C 
ATOM      3  O   UNL     1      -1.870  -1.240   3.955  0.00  0.00    -0.275 OA
ATOM      4  H   UNL     1       1.212  -1.183   3.823  0.00  0.00    +0.150 HD
ENDROOT
BRANCH   1   9
ATOM      5  C   UNL     1       3.016  -2.472   0.226  0.00  0.00    +0.009 C 
ATOM      6  C   UNL     1       1.488  -2.439   0.162  0.00  0.00    +0.013 C 
ATOM      7  C   UNL     1       1.049  -1.101  -0.475  0.00  0.00    +0.049 C 
ATOM      8  S   UNL     1       0.627  -0.110   1.024  0.00  0.00    -0.134 S 
ATOM      9  C   UNL     1       0.048  -1.510   2.078  0.00  0.00    +0.143 C 
ATOM     10  C   UNL     1       0.938  -2.659   1.563  0.00  0.00    +0.109 C 
ATOM     11  C   UNL     1       2.200  -0.460  -1.254  0.00  0.00    +0.019 C 
BRANCH  10  12
ATOM     12  C   UNL     1       2.096  -2.831   2.512  0.00  0.00    +0.216 C 
ATOM     13  O   UNL     1       2.800  -1.882   2.788  0.00  0.00    -0.276 OA
ATOM     14  N   UNL     1       2.350  -4.038   3.055  0.00  0.00    -0.329 N 
ATOM     15  H   UNL     1       1.745  -4.779   2.893  0.00  0.00    +0.145 HD
ATOM     16  H   UNL     1       3.136  -4.166   3.608  0.00  0.00    +0.145 HD
ENDBRANCH  10  12
ENDBRANCH   1   9
BRANCH   2  17
ATOM     17  C   UNL     1      -0.475  -0.689   5.778  0.00  0.00    +0.133 C 
BRANCH  17  18
ATOM     18  C   UNL     1      -1.788  -0.569   6.509  0.00  0.00    -0.014 A 
ATOM     19  C   UNL     1      -2.535  -1.659   7.142  0.00  0.00    +0.003 A 
ATOM     20  C   UNL     1      -2.322  -3.032   7.276  0.00  0.00    +0.010 A 
ATOM     21  C   UNL     1      -3.235  -3.798   7.944  0.00  0.00    +0.001 A 
ATOM     22  C   UNL     1      -4.374  -3.223   8.490  0.00  0.00    +0.002 A 
ATOM     23  C   UNL     1      -4.604  -1.870   8.369  0.00  0.00    +0.026 A 
ATOM     24  C   UNL     1      -3.688  -1.071   7.694  0.00  0.00    +0.047 A 
ATOM     25  N   UNL     1      -3.632   0.276   7.410  0.00  0.00    -0.360 N 
ATOM     26  C   UNL     1      -2.491   0.557   6.710  0.00  0.00    +0.087 A 
ATOM     27  H   UNL     1      -4.300   0.929   7.672  0.00  0.00    +0.165 HD
ENDBRANCH  17  18
ENDBRANCH   2  17
TORSDOF 4
