REMARK  Name = ZINC09426184
REMARK  11 active torsions:
REMARK  status: ('A' for Active; 'I' for Inactive)
REMARK    1  A    between atoms: C_1  and  C_2
REMARK    2  A    between atoms: C_5  and  S_8
REMARK    3  A    between atoms: S_8  and  N_11
REMARK    4  A    between atoms: C_12  and  C_13
REMARK    5  A    between atoms: C_13  and  N_72
REMARK    6  A    between atoms: N_21  and  S_27
REMARK    7  A    between atoms: C_22  and  C_24
REMARK    8  A    between atoms: C_24  and  C_25
REMARK    9  A    between atoms: C_24  and  C_26
REMARK   10  A    between atoms: S_27  and  C_30
REMARK   11  A    between atoms: C_33  and  C_36
REMARK                            x       y       z     vdW  Elec       q    Type
REMARK                         _______ _______ _______ _____ _____    ______ ____
ROOT
ATOM      1  N   UNL     1       1.845   0.255   3.904  0.00  0.00    -0.120 NA
ATOM      2  C   UNL     1       0.714   0.863   4.061  0.00  0.00    +0.104 C 
ATOM      3  N   UNL     1       0.429   1.487   5.247  0.00  0.00    -0.300 N 
ATOM      4  C   UNL     1       1.365   1.700   6.364  0.00  0.00    +0.125 C 
ATOM      5  C   UNL     1       0.470   2.025   7.576  0.00  0.00    +0.130 C 
ATOM      6  N   UNL     1      -0.734   2.636   6.982  0.00  0.00    -0.154 NA
ATOM      7  C   UNL     1      -0.862   2.070   5.632  0.00  0.00    +0.169 C 
ENDROOT
BRANCH   1   8
ATOM      8  S   UNL     1       2.668  -0.314   5.224  0.00  0.00    +0.100 S 
ATOM      9  O   UNL     1       3.513   0.741   5.662  0.00  0.00    -0.146 OA
ATOM     10  O   UNL     1       1.704  -0.921   6.073  0.00  0.00    -0.146 OA
BRANCH   8  15
ATOM     11  C   UNL     1       6.292  -4.735   3.293  0.00  0.00    +0.044 C 
ATOM     12  C   UNL     1       5.387  -3.631   3.776  0.00  0.00    -0.050 A 
ATOM     13  C   UNL     1       5.873  -2.342   3.897  0.00  0.00    +0.005 A 
ATOM     14  C   UNL     1       5.043  -1.329   4.339  0.00  0.00    +0.029 A 
ATOM     15  C   UNL     1       3.726  -1.605   4.660  0.00  0.00    +0.113 A 
ATOM     16  C   UNL     1       3.242  -2.895   4.543  0.00  0.00    +0.029 A 
ATOM     17  C   UNL     1       4.071  -3.906   4.096  0.00  0.00    +0.005 A 
ENDBRANCH   8  15
ENDBRANCH   1   8
BRANCH   7  18
ATOM     18  C   UNL     1      -1.246   3.171   4.642  0.00  0.00    +0.020 C 
ATOM     19  C   UNL     1      -2.694   3.599   4.892  0.00  0.00    +0.010 C 
ATOM     20  C   UNL     1      -0.319   4.374   4.832  0.00  0.00    +0.010 C 
ENDBRANCH   7  18
BRANCH   6  21
ATOM     21  S   UNL     1      -1.738   3.745   7.692  0.00  0.00    +0.063 S 
ATOM     22  O   UNL     1      -3.005   3.607   7.062  0.00  0.00    -0.153 OA
ATOM     23  O   UNL     1      -1.566   3.609   9.096  0.00  0.00    -0.153 OA
BRANCH  21  24
ATOM     24  C   UNL     1      -1.135   5.344   7.263  0.00  0.00    +0.106 A 
ATOM     25  C   UNL     1       0.182   5.676   7.517  0.00  0.00    +0.029 A 
ATOM     26  C   UNL     1       0.657   6.929   7.176  0.00  0.00    +0.005 A 
ATOM     27  C   UNL     1      -0.189   7.853   6.590  0.00  0.00    -0.050 A 
ATOM     28  C   UNL     1      -1.507   7.522   6.341  0.00  0.00    +0.005 A 
ATOM     29  C   UNL     1      -1.980   6.268   6.677  0.00  0.00    +0.029 A 
ATOM     30  C   UNL     1       0.327   9.221   6.224  0.00  0.00    +0.044 C 
ENDBRANCH  21  24
ENDBRANCH   6  21
BRANCH   2  31
ATOM     31  C   UNL     1      -0.291   0.884   2.938  0.00  0.00    -0.004 C 
BRANCH  31  36
ATOM     32  C   UNL     1      -0.995  -0.289   0.930  0.00  0.00    -0.078 C 
ATOM     33  C   UNL     1      -0.984  -1.769   0.505  0.00  0.00    -0.020 C 
ATOM     34  C   UNL     1       0.144  -2.420   1.338  0.00  0.00    -0.020 C 
ATOM     35  C   UNL     1       0.292  -1.451   2.538  0.00  0.00    -0.078 C 
ATOM     36  N   UNL     1       0.084  -0.138   1.912  0.00  0.00    +0.384 N 
ATOM     37  H   UNL     1       0.945   0.161   1.439  0.00  0.00    -0.081 HD
ENDBRANCH  31  36
ENDBRANCH   2  31
TORSDOF 7
