REMARK  Name = ZINC03433159
REMARK  10 active torsions:
REMARK  status: ('A' for Active; 'I' for Inactive)
REMARK    1  A    between atoms: C_1  and  C_2
REMARK    2  A    between atoms: C_9  and  C_11
REMARK    3  A    between atoms: C_14  and  N_17
REMARK    4  A    between atoms: C_18  and  C_20
REMARK    5  A    between atoms: C_20  and  N_56
REMARK    6  A    between atoms: C_21  and  N_56
REMARK    7  A    between atoms: C_22  and  C_23
REMARK    8  A    between atoms: C_22  and  N_56
REMARK    9  A    between atoms: C_28  and  O_29
REMARK   10  A    between atoms: O_29  and  C_30
REMARK                            x       y       z     vdW  Elec       q    Type
REMARK                         _______ _______ _______ _____ _____    ______ ____
ROOT
ATOM      1  N   UNL     1       6.202   4.769  -3.005  0.00  0.00    -0.287 N 
ATOM      2  C   UNL     1       4.896   4.501  -2.812  0.00  0.00    +0.201 C 
ATOM      3  O   UNL     1       4.212   4.120  -3.738  0.00  0.00    -0.278 OA
ATOM      4  H   UNL     1       6.732   5.146  -2.285  0.00  0.00    +0.155 HD
ENDROOT
BRANCH   1   8
ATOM      5  C   UNL     1       7.970   3.973  -6.694  0.00  0.00    +0.007 A 
ATOM      6  C   UNL     1       8.401   5.061  -5.933  0.00  0.00    +0.012 A 
ATOM      7  C   UNL     1       7.814   5.322  -4.714  0.00  0.00    +0.024 A 
ATOM      8  C   UNL     1       6.795   4.502  -4.242  0.00  0.00    +0.033 A 
ATOM      9  C   UNL     1       6.367   3.415  -4.995  0.00  0.00    +0.024 A 
ATOM     10  C   UNL     1       6.946   3.152  -6.218  0.00  0.00    +0.012 A 
BRANCH   5  19
ATOM     11  C   UNL     1      11.258   2.411 -13.658  0.00  0.00    +0.044 C 
ATOM     12  C   UNL     1      10.827   2.945 -12.316  0.00  0.00    -0.049 A 
ATOM     13  C   UNL     1      11.440   4.070 -11.780  0.00  0.00    +0.005 A 
ATOM     14  C   UNL     1      11.072   4.576 -10.573  0.00  0.00    +0.029 A 
ATOM     15  C   UNL     1      10.044   3.968  -9.814  0.00  0.00    +0.079 A 
ATOM     16  C   UNL     1       9.439   2.824 -10.387  0.00  0.00    +0.040 A 
ATOM     17  C   UNL     1       9.818   2.321 -11.607  0.00  0.00    +0.020 A 
ATOM     18  S   UNL     1       8.236   2.377  -9.159  0.00  0.00    -0.067 S 
ATOM     19  C   UNL     1       8.598   3.690  -8.002  0.00  0.00    +0.109 A 
ATOM     20  N   UNL     1       9.561   4.345  -8.614  0.00  0.00    -0.239 NA
ENDBRANCH   5  19
ENDBRANCH   1   8
BRANCH   2  21
ATOM     21  C   UNL     1       4.285   4.676  -1.446  0.00  0.00    +0.019 C 
BRANCH  21  23
ATOM     22  C   UNL     1       2.113   5.269  -2.338  0.00  0.00    -0.095 C 
ATOM     23  N   UNL     1       2.857   4.297  -1.510  0.00  0.00    +0.386 N 
ATOM     24  H   UNL     1       2.778   3.366  -1.935  0.00  0.00    -0.081 HD
BRANCH  23  25
ATOM     25  C   UNL     1       2.285   4.252  -0.147  0.00  0.00    -0.039 C 
BRANCH  25  26
ATOM     26  C   UNL     1       0.904   3.654  -0.220  0.00  0.00    -0.021 A 
ATOM     27  C   UNL     1      -0.207   4.474  -0.186  0.00  0.00    +0.020 A 
ATOM     28  C   UNL     1      -1.476   3.926  -0.254  0.00  0.00    +0.018 A 
ATOM     29  C   UNL     1      -1.634   2.556  -0.360  0.00  0.00    +0.019 A 
ATOM     30  C   UNL     1      -0.526   1.732  -0.389  0.00  0.00    +0.047 A 
ATOM     31  C   UNL     1       0.747   2.280  -0.322  0.00  0.00    +0.121 A 
ATOM     32 BR   UNL     1      -2.994   5.052  -0.208  0.00  0.00    -0.050 Br
BRANCH  31  33
ATOM     33  O   UNL     1       1.839   1.471  -0.355  0.00  0.00    -0.495 OA
ATOM     34  C   UNL     1       1.602   0.066  -0.461  0.00  0.00    +0.277 C 
ENDBRANCH  31  33
ENDBRANCH  25  26
ENDBRANCH  23  25
ENDBRANCH  21  23
ENDBRANCH   2  21
TORSDOF 7
