REMARK  Name = ZINC13495223
REMARK  14 active torsions:
REMARK  status: ('A' for Active; 'I' for Inactive)
REMARK    1  A    between atoms: C_1  and  C_2
REMARK    2  A    between atoms: C_2  and  C_3
REMARK    3  A    between atoms: C_3  and  C_5
REMARK    4  A    between atoms: C_3  and  N_15
REMARK    5  A    between atoms: N_9  and  C_10
REMARK    6  A    between atoms: C_10  and  C_11
REMARK    7  A    between atoms: C_10  and  C_12
REMARK    8  A    between atoms: C_10  and  C_13
REMARK    9  A    between atoms: C_13  and  C_14
REMARK   10  A    between atoms: N_15  and  C_16
REMARK   11  A    between atoms: N_15  and  C_26
REMARK   12  A    between atoms: C_16  and  C_17
REMARK   13  A    between atoms: C_26  and  C_27
REMARK   14  A    between atoms: C_31  and  C_39
REMARK                            x       y       z     vdW  Elec       q    Type
REMARK                         _______ _______ _______ _____ _____    ______ ____
ROOT
ATOM      1  N   UNL     1       1.778  -0.076  -1.230  0.00  0.00    -0.284 NA
ENDROOT
BRANCH   1   2
ATOM      2  C   UNL     1       0.470  -0.625  -0.849  0.00  0.00    +0.127 C 
BRANCH   2   3
ATOM      3  C   UNL     1       0.490  -2.124  -1.001  0.00  0.00    +0.169 A 
ATOM      4  N   UNL     1       1.445  -2.936  -0.620  0.00  0.00    -0.112 NA
ATOM      5  N   UNL     1       1.091  -4.137  -0.924  0.00  0.00    -0.023 NA
ATOM      6  N   UNL     1      -0.065  -4.112  -1.489  0.00  0.00    -0.043 NA
ATOM      7  N   UNL     1      -0.471  -2.889  -1.551  0.00  0.00    -0.222 N 
BRANCH   7   8
ATOM      8  C   UNL     1      -1.739  -2.421  -2.115  0.00  0.00    +0.061 C 
ATOM      9  C   UNL     1      -2.489  -1.594  -1.069  0.00  0.00    +0.036 C 
ATOM     10  C   UNL     1      -1.461  -1.555  -3.346  0.00  0.00    +0.036 C 
BRANCH   8  11
ATOM     11  C   UNL     1      -2.592  -3.624  -2.521  0.00  0.00    +0.026 C 
ATOM     12  C   UNL     1      -3.917  -3.135  -3.111  0.00  0.00    +0.006 C 
ENDBRANCH   8  11
ENDBRANCH   7   8
ENDBRANCH   2   3
BRANCH   2  14
ATOM     13  C   UNL     1       0.008   1.252   0.735  0.00  0.00    +0.006 C 
ATOM     14  C   UNL     1       0.170  -0.264   0.608  0.00  0.00    +0.023 C 
ENDBRANCH   2  14
ENDBRANCH   1   2
BRANCH   1  15
ATOM     15  C   UNL     1       2.749  -0.221  -0.137  0.00  0.00    +0.120 C 
BRANCH  15  16
ATOM     16  C   UNL     1       4.143  -0.028  -0.674  0.00  0.00    -0.030 A 
ATOM     17  C   UNL     1       4.813  -1.091  -1.252  0.00  0.00    +0.009 A 
ATOM     18  C   UNL     1       6.092  -0.918  -1.747  0.00  0.00    +0.050 A 
ATOM     19  C   UNL     1       6.707   0.321  -1.664  0.00  0.00    +0.166 A 
ATOM     20  C   UNL     1       6.032   1.391  -1.081  0.00  0.00    +0.167 A 
ATOM     21  C   UNL     1       4.748   1.212  -0.593  0.00  0.00    +0.054 A 
ATOM     22  O   UNL     1       6.841   2.489  -1.120  0.00  0.00    -0.453 OA
ATOM     23  C   UNL     1       8.167   1.982  -1.360  0.00  0.00    +0.466 C 
ATOM     24  O   UNL     1       7.938   0.749  -2.067  0.00  0.00    -0.453 OA
ENDBRANCH  15  16
ENDBRANCH   1  15
BRANCH   1  25
ATOM     25  C   UNL     1       1.659   1.328  -1.645  0.00  0.00    +0.126 C 
BRANCH  25  26
ATOM     26  C   UNL     1       1.095   1.393  -3.041  0.00  0.00    +0.031 A 
ATOM     27  C   UNL     1      -0.236   1.575  -3.224  0.00  0.00    +0.020 A 
ATOM     28  C   UNL     1      -0.752   1.634  -4.593  0.00  0.00    -0.001 A 
ATOM     29  C   UNL     1      -2.115   1.820  -4.845  0.00  0.00    +0.013 A 
ATOM     30  C   UNL     1      -2.565   1.871  -6.134  0.00  0.00    -0.050 A 
ATOM     31  C   UNL     1      -1.681   1.740  -7.196  0.00  0.00    +0.005 A 
ATOM     32  C   UNL     1      -0.334   1.556  -6.971  0.00  0.00    +0.026 A 
ATOM     33  C   UNL     1       0.148   1.502  -5.667  0.00  0.00    +0.049 A 
ATOM     34  N   UNL     1       1.490   1.319  -5.413  0.00  0.00    -0.322 N 
ATOM     35  H   UNL     1       2.109   1.228  -6.155  0.00  0.00    +0.169 HD
ATOM     36  C   UNL     1       1.956   1.272  -4.153  0.00  0.00    +0.254 A 
ATOM     37  O   UNL     1       3.150   1.114  -3.966  0.00  0.00    -0.268 OA
ATOM     38  C   UNL     1      -4.034   2.071  -6.405  0.00  0.00    +0.044 C 
ENDBRANCH  25  26
ENDBRANCH   1  25
TORSDOF 9
