REMARK  Name = ZINC09909331
REMARK  6 active torsions:
REMARK  status: ('A' for Active; 'I' for Inactive)
REMARK    1  A    between atoms: C_4  and  C_7
REMARK    2  A    between atoms: C_8  and  C_9
REMARK    3  A    between atoms: C_8  and  C_14
REMARK    4  A    between atoms: C_14  and  O_16
REMARK    5  A    between atoms: O_16  and  C_17
REMARK    6  A    between atoms: C_17  and  C_18
REMARK                            x       y       z     vdW  Elec       q    Type
REMARK                         _______ _______ _______ _____ _____    ______ ____
ROOT
ATOM      1  C   UNL     1       6.102   1.217  -0.167  0.00  0.00    +0.024 C 
ATOM      2  C   UNL     1       4.830   0.734  -0.263  0.00  0.00    +0.073 C 
ENDROOT
BRANCH   1   6
ATOM      3  C   UNL     1       9.400  -1.333  -0.931  0.00  0.00    +0.000 A 
ATOM      4  C   UNL     1       9.457  -0.003  -1.309  0.00  0.00    +0.001 A 
ATOM      5  C   UNL     1       8.389   0.834  -1.065  0.00  0.00    +0.008 A 
ATOM      6  C   UNL     1       7.244   0.334  -0.431  0.00  0.00    -0.024 A 
ATOM      7  C   UNL     1       7.198  -1.011  -0.046  0.00  0.00    +0.008 A 
ATOM      8  C   UNL     1       8.273  -1.835  -0.304  0.00  0.00    +0.001 A 
ENDBRANCH   1   6
BRANCH   2   9
ATOM      9  C   UNL     1       4.596  -0.627  -0.778  0.00  0.00    +0.026 A 
ATOM     10  C   UNL     1       4.070  -1.717  -0.133  0.00  0.00    +0.016 A 
ATOM     11  C   UNL     1       3.945  -2.900  -0.826  0.00  0.00    +0.008 A 
ATOM     12  C   UNL     1       4.344  -2.952  -2.124  0.00  0.00    +0.046 A 
ATOM     13  S   UNL     1       4.916  -1.285  -2.407  0.00  0.00    -0.096 S 
ENDBRANCH   2   9
BRANCH   2  14
ATOM     14  C   UNL     1       3.692   1.573   0.146  0.00  0.00    +0.341 C 
ATOM     15  O   UNL     1       3.885   2.695   0.571  0.00  0.00    -0.245 OA
BRANCH  14  16
ATOM     16  O   UNL     1       2.435   1.095   0.051  0.00  0.00    -0.452 OA
BRANCH  16  17
ATOM     17  C   UNL     1       1.361   1.977   0.473  0.00  0.00    +0.328 C 
BRANCH  17  18
ATOM     18  C   UNL     1       0.038   1.278   0.295  0.00  0.00    +0.261 C 
ATOM     19  O   UNL     1       0.003   0.148  -0.144  0.00  0.00    -0.271 OA
ATOM     20  N   UNL     1      -1.107   1.910   0.619  0.00  0.00    -0.222 N 
ATOM     21  C   UNL     1      -2.459   1.348   0.483  0.00  0.00    +0.137 C 
ATOM     22  C   UNL     1      -3.381   2.474   0.992  0.00  0.00    +0.125 C 
ATOM     23  N   UNL     1      -2.450   3.555   1.351  0.00  0.00    -0.297 N 
ATOM     24  C   UNL     1      -1.195   3.154   1.110  0.00  0.00    +0.309 C 
ATOM     25  O   UNL     1      -0.224   3.854   1.318  0.00  0.00    -0.252 OA
ATOM     26  H   UNL     1      -2.705   4.421   1.706  0.00  0.00    +0.150 HD
ENDBRANCH  17  18
ENDBRANCH  16  17
ENDBRANCH  14  16
ENDBRANCH   2  14
TORSDOF 6
