REMARK  Name = ZINC40742396
REMARK  14 active torsions:
REMARK  status: ('A' for Active; 'I' for Inactive)
REMARK    1  A    between atoms: C_1  and  C_2
REMARK    2  A    between atoms: C_6  and  C_8
REMARK    3  A    between atoms: C_8  and  O_9
REMARK    4  A    between atoms: O_9  and  C_10
REMARK    5  A    between atoms: C_11  and  O_34
REMARK    6  A    between atoms: C_13  and  C_17
REMARK    7  A    between atoms: C_17  and  N_18
REMARK    8  A    between atoms: N_18  and  C_19
REMARK    9  A    between atoms: C_19  and  C_20
REMARK   10  A    between atoms: C_20  and  C_21
REMARK   11  A    between atoms: C_21  and  S_22
REMARK   12  A    between atoms: S_22  and  C_23
REMARK   13  A    between atoms: N_27  and  C_28
REMARK   14  A    between atoms: O_34  and  C_35
REMARK                            x       y       z     vdW  Elec       q    Type
REMARK                         _______ _______ _______ _____ _____    ______ ____
ROOT
ATOM      1  C   UNL     1       2.207  -5.881   7.712  0.00  0.00    -0.047 C 
ENDROOT
BRANCH   1   5
ATOM      2  C   UNL     1       1.599  -3.746   4.056  0.00  0.00    +0.181 A 
ATOM      3  C   UNL     1       1.682  -3.054   5.261  0.00  0.00    +0.163 A 
ATOM      4  C   UNL     1       1.879  -3.750   6.443  0.00  0.00    +0.051 A 
ATOM      5  C   UNL     1       1.993  -5.128   6.425  0.00  0.00    -0.059 A 
ATOM      6  C   UNL     1       1.911  -5.815   5.228  0.00  0.00    +0.025 A 
ATOM      7  C   UNL     1       1.708  -5.128   4.045  0.00  0.00    +0.086 A 
ATOM      8 CL   UNL     1       1.598  -5.995   2.545  0.00  0.00    -0.080 Cl
BRANCH   3   9
ATOM      9  O   UNL     1       1.571  -1.699   5.278  0.00  0.00    -0.491 OA
ATOM     10  C   UNL     1       1.665  -1.056   6.550  0.00  0.00    +0.277 C 
ENDBRANCH   3   9
BRANCH   2  11
ATOM     11  O   UNL     1       1.406  -3.067   2.893  0.00  0.00    -0.482 OA
BRANCH  11  12
ATOM     12  C   UNL     1       0.054  -2.845   2.489  0.00  0.00    +0.264 C 
BRANCH  12  18
ATOM     13  C   UNL     1      -0.018   1.503   0.010  0.00  0.00    +0.044 C 
ATOM     14  C   UNL     1       0.002  -0.004   0.002  0.00  0.00    -0.050 A 
ATOM     15  C   UNL     1       0.006  -0.689  -1.199  0.00  0.00    +0.003 A 
ATOM     16  C   UNL     1       0.025  -2.071  -1.207  0.00  0.00    +0.001 A 
ATOM     17  C   UNL     1       0.040  -2.768  -0.013  0.00  0.00    +0.007 A 
ATOM     18  C   UNL     1       0.037  -2.084   1.188  0.00  0.00    -0.010 A 
ATOM     19  C   UNL     1       0.023  -0.702   1.195  0.00  0.00    +0.010 A 
ENDBRANCH  12  18
ENDBRANCH  11  12
ENDBRANCH   2  11
ENDBRANCH   1   5
BRANCH   1  20
ATOM     20  N   UNL     1       0.906  -6.242   8.290  0.00  0.00    +0.382 N 
ATOM     21  H   UNL     1       0.376  -5.403   8.476  0.00  0.00    -0.085 HD
ATOM     22  H   UNL     1       0.398  -6.823   7.641  0.00  0.00    -0.085 HD
BRANCH  20  23
ATOM     23  C   UNL     1       1.115  -6.977   9.545  0.00  0.00    -0.081 C 
BRANCH  23  24
ATOM     24  C   UNL     1      -0.240  -7.352  10.148  0.00  0.00    -0.008 C 
BRANCH  24  25
ATOM     25  C   UNL     1      -0.023  -8.118  11.455  0.00  0.00    +0.075 C 
BRANCH  25  26
ATOM     26  S   UNL     1      -1.629  -8.563  12.170  0.00  0.00    -0.084 S 
BRANCH  26  27
ATOM     27  C   UNL     1      -1.214  -9.426  13.648  0.00  0.00    +0.214 A 
ATOM     28  N   UNL     1      -0.001  -9.666  14.099  0.00  0.00    -0.101 NA
ATOM     29  N   UNL     1      -0.053 -10.319  15.204  0.00  0.00    -0.022 NA
ATOM     30  N   UNL     1      -1.278 -10.541  15.538  0.00  0.00    -0.038 NA
ATOM     31  N   UNL     1      -2.083  -9.964  14.540  0.00  0.00    -0.187 N 
BRANCH  31  32
ATOM     32  C   UNL     1      -3.484  -9.950  14.479  0.00  0.00    +0.070 A 
ATOM     33  C   UNL     1      -4.146  -8.852  13.945  0.00  0.00    +0.028 A 
ATOM     34  C   UNL     1      -5.526  -8.841  13.886  0.00  0.00    +0.002 A 
ATOM     35  C   UNL     1      -6.248  -9.921  14.357  0.00  0.00    +0.000 A 
ATOM     36  C   UNL     1      -5.592 -11.016  14.889  0.00  0.00    +0.002 A 
ATOM     37  C   UNL     1      -4.212 -11.036  14.946  0.00  0.00    +0.028 A 
ENDBRANCH  31  32
ENDBRANCH  26  27
ENDBRANCH  25  26
ENDBRANCH  24  25
ENDBRANCH  23  24
ENDBRANCH  20  23
ENDBRANCH   1  20
TORSDOF 12
