REMARK  Name = ZINC11526064
REMARK  8 active torsions:
REMARK  status: ('A' for Active; 'I' for Inactive)
REMARK    1  A    between atoms: C_4  and  N_7
REMARK    2  A    between atoms: C_8  and  C_10
REMARK    3  A    between atoms: C_10  and  N_64
REMARK    4  A    between atoms: C_13  and  N_16
REMARK    5  A    between atoms: C_17  and  C_19
REMARK    6  A    between atoms: C_19  and  C_21
REMARK    7  A    between atoms: C_19  and  N_32
REMARK    8  A    between atoms: C_21  and  C_22
REMARK                            x       y       z     vdW  Elec       q    Type
REMARK                         _______ _______ _______ _____ _____    ______ ____
ROOT
ATOM      1  N   UNL     1       0.191   5.444  -1.675  0.00  0.00    -0.311 N 
ATOM      2  C   UNL     1       0.020   6.086  -2.848  0.00  0.00    +0.234 C 
ATOM      3  O   UNL     1       0.000   5.458  -3.885  0.00  0.00    -0.274 OA
ATOM      4  H   UNL     1       0.207   5.945  -0.845  0.00  0.00    +0.149 HD
ENDROOT
BRANCH   1   7
ATOM      5  C   UNL     1      -0.850   1.802  -1.559  0.00  0.00    -0.076 C 
ATOM      6  C   UNL     1      -1.025   3.320  -1.642  0.00  0.00    +0.003 C 
ATOM      7  C   UNL     1       0.353   3.988  -1.654  0.00  0.00    +0.069 C 
ATOM      8  C   UNL     1       1.121   3.576  -0.395  0.00  0.00    +0.003 C 
ATOM      9  C   UNL     1       1.234   2.051  -0.348  0.00  0.00    -0.076 C 
ATOM     10  N   UNL     1      -0.125   1.470  -0.314  0.00  0.00    +0.386 N 
ATOM     11  H   UNL     1      -0.636   1.865   0.484  0.00  0.00    -0.081 HD
BRANCH  10  12
ATOM     12  C   UNL     1      -0.043   0.004  -0.153  0.00  0.00    +0.019 C 
BRANCH  12  14
ATOM     13  N   UNL     1      -1.612  -1.855   0.297  0.00  0.00    -0.287 N 
ATOM     14  C   UNL     1      -1.428  -0.535   0.098  0.00  0.00    +0.201 C 
ATOM     15  O   UNL     1      -2.377   0.220   0.121  0.00  0.00    -0.278 OA
ATOM     16  H   UNL     1      -0.866  -2.468   0.203  0.00  0.00    +0.155 HD
BRANCH  13  20
ATOM     17  C   UNL     1      -5.383  -3.303   1.315  0.00  0.00    +0.000 A 
ATOM     18  C   UNL     1      -4.535  -4.073   0.540  0.00  0.00    +0.002 A 
ATOM     19  C   UNL     1      -3.284  -3.596   0.201  0.00  0.00    +0.023 A 
ATOM     20  C   UNL     1      -2.879  -2.342   0.639  0.00  0.00    +0.033 A 
ATOM     21  C   UNL     1      -3.731  -1.574   1.421  0.00  0.00    +0.023 A 
ATOM     22  C   UNL     1      -4.983  -2.054   1.752  0.00  0.00    +0.002 A 
ENDBRANCH  13  20
ENDBRANCH  12  14
ENDBRANCH  10  12
ENDBRANCH   1   7
BRANCH   2  23
ATOM     23  C   UNL     1      -0.146   7.583  -2.869  0.00  0.00    +0.165 C 
BRANCH  23  24
ATOM     24  N   UNL     1      -0.775   7.987  -4.130  0.00  0.00    -0.288 N 
ATOM     25  C   UNL     1      -0.173   7.709  -5.303  0.00  0.00    +0.298 C 
ATOM     26  O   UNL     1       0.893   7.124  -5.315  0.00  0.00    -0.253 OA
ATOM     27  N   UNL     1      -0.751   8.080  -6.462  0.00  0.00    -0.313 N 
ATOM     28  H   UNL     1      -1.626   8.453  -4.120  0.00  0.00    +0.151 HD
ATOM     29  H   UNL     1      -1.602   8.547  -6.452  0.00  0.00    +0.146 HD
ATOM     30  H   UNL     1      -0.318   7.880  -7.306  0.00  0.00    +0.146 HD
ENDBRANCH  23  24
BRANCH  23  31
ATOM     31  C   UNL     1       1.225   8.251  -2.748  0.00  0.00    +0.069 C 
BRANCH  31  32
ATOM     32  C   UNL     1       1.050   9.744  -2.646  0.00  0.00    -0.020 A 
ATOM     33  C   UNL     1       1.106  10.625  -3.657  0.00  0.00    +0.087 A 
ATOM     34  N   UNL     1       0.899  11.892  -3.183  0.00  0.00    -0.360 N 
ATOM     35  H   UNL     1       0.894  12.696  -3.726  0.00  0.00    +0.165 HD
ATOM     36  C   UNL     1       0.700  11.856  -1.821  0.00  0.00    +0.047 A 
ATOM     37  C   UNL     1       0.779  10.508  -1.426  0.00  0.00    +0.003 A 
ATOM     38  C   UNL     1       0.620  10.166  -0.082  0.00  0.00    +0.010 A 
ATOM     39  C   UNL     1       0.377  11.143   0.843  0.00  0.00    +0.001 A 
ATOM     40  C   UNL     1       0.291  12.473   0.457  0.00  0.00    +0.002 A 
ATOM     41  C   UNL     1       0.451  12.834  -0.864  0.00  0.00    +0.026 A 
ENDBRANCH  31  32
ENDBRANCH  23  31
ENDBRANCH   2  23
TORSDOF 8
