REMARK  Name = ZINC04795083
REMARK  8 active torsions:
REMARK  status: ('A' for Active; 'I' for Inactive)
REMARK    1  A    between atoms: C_1  and  C_2
REMARK    2  A    between atoms: C_5  and  S_8
REMARK    3  A    between atoms: S_8  and  N_11
REMARK    4  A    between atoms: N_11  and  C_12
REMARK    5  A    between atoms: C_17  and  C_18
REMARK    6  A    between atoms: N_19  and  N_20
REMARK    7  A    between atoms: C_21  and  C_23
REMARK    8  A    between atoms: C_28  and  O_29
REMARK                            x       y       z     vdW  Elec       q    Type
REMARK                         _______ _______ _______ _____ _____    ______ ____
ROOT
ATOM      1  C   UNL     1      -0.135   3.868  -0.140  0.00  0.00    +0.057 A 
ATOM      2  C   UNL     1       1.012   3.091  -0.222  0.00  0.00    +0.025 A 
ATOM      3  C   UNL     1       0.912   1.724  -0.392  0.00  0.00    +0.002 A 
ATOM      4  C   UNL     1      -0.330   1.118  -0.482  0.00  0.00    +0.001 A 
ATOM      5  C   UNL     1      -1.481   1.874  -0.410  0.00  0.00    +0.011 A 
ATOM      6  C   UNL     1      -1.395   3.257  -0.232  0.00  0.00    +0.017 A 
ENDROOT
BRANCH   1   7
ATOM      7  N   UNL     1      -0.036   5.247   0.032  0.00  0.00    -0.216 N 
ATOM      8  H   UNL     1      -0.688   5.716   0.576  0.00  0.00    +0.174 HD
BRANCH   7   9
ATOM      9  S   UNL     1       1.195   6.085  -0.692  0.00  0.00    +0.072 S 
ATOM     10  O   UNL     1       0.952   7.462  -0.438  0.00  0.00    -0.150 OA
ATOM     11  O   UNL     1       2.403   5.442  -0.311  0.00  0.00    -0.150 OA
BRANCH   9  16
ATOM     12  C   UNL     1       0.626   5.304  -6.648  0.00  0.00    +0.044 C 
ATOM     13  C   UNL     1       0.768   5.499  -5.160  0.00  0.00    -0.050 A 
ATOM     14  C   UNL     1       0.135   6.559  -4.539  0.00  0.00    +0.005 A 
ATOM     15  C   UNL     1       0.266   6.739  -3.174  0.00  0.00    +0.029 A 
ATOM     16  C   UNL     1       1.029   5.857  -2.431  0.00  0.00    +0.109 A 
ATOM     17  C   UNL     1       1.665   4.800  -3.053  0.00  0.00    +0.029 A 
ATOM     18  C   UNL     1       1.532   4.618  -4.417  0.00  0.00    +0.005 A 
ENDBRANCH   9  16
ENDBRANCH   7   9
ENDBRANCH   1   7
BRANCH   6  19
ATOM     19  C   UNL     1      -2.621   4.071  -0.147  0.00  0.00    +0.140 C 
ATOM     20  N   UNL     1      -2.537   5.356   0.012  0.00  0.00    -0.187 NA
BRANCH  20  21
ATOM     21  N   UNL     1      -3.702   6.130   0.093  0.00  0.00    -0.203 N 
ATOM     22  C   UNL     1      -3.615   7.465   0.258  0.00  0.00    +0.267 C 
ATOM     23  O   UNL     1      -2.524   7.997   0.338  0.00  0.00    -0.268 OA
ATOM     24  H   UNL     1      -4.572   5.705   0.029  0.00  0.00    +0.178 HD
BRANCH  22  25
ATOM     25  C   UNL     1      -4.841   8.279   0.343  0.00  0.00    +0.080 A 
ATOM     26  C   UNL     1      -6.096   7.672   0.246  0.00  0.00    +0.017 A 
ATOM     27  C   UNL     1      -7.238   8.437   0.332  0.00  0.00    +0.001 A 
ATOM     28  C   UNL     1      -7.149   9.809   0.502  0.00  0.00    +0.004 A 
ATOM     29  C   UNL     1      -5.916  10.423   0.594  0.00  0.00    +0.046 A 
ATOM     30  C   UNL     1      -4.755   9.667   0.515  0.00  0.00    +0.129 A 
BRANCH  30  31
ATOM     31  O   UNL     1      -3.543  10.269   0.605  0.00  0.00    -0.506 OA
ATOM     32  H   UNL     1      -3.180  10.552  -0.246  0.00  0.00    +0.292 HD
ENDBRANCH  30  31
ENDBRANCH  22  25
ENDBRANCH  20  21
ENDBRANCH   6  19
TORSDOF 7
