REMARK  Name = ZINC20713114
REMARK  4 active torsions:
REMARK  status: ('A' for Active; 'I' for Inactive)
REMARK    1  A    between atoms: N_9  and  S_10
REMARK    2  A    between atoms: S_10  and  C_13
REMARK    3  A    between atoms: C_26  and  C_29
REMARK    4  A    between atoms: C_34  and  N_35
REMARK                            x       y       z     vdW  Elec       q    Type
REMARK                         _______ _______ _______ _____ _____    ______ ____
ROOT
ATOM      1  C   UNL     1      -0.221   4.976  -1.652  0.00  0.00    +0.109 A 
ATOM      2  C   UNL     1       0.440   5.996  -2.312  0.00  0.00    +0.030 A 
ATOM      3  C   UNL     1       0.141   6.277  -3.629  0.00  0.00    +0.025 A 
ATOM      4  C   UNL     1      -0.833   5.547  -4.299  0.00  0.00    +0.031 A 
ATOM      5  C   UNL     1      -1.511   4.529  -3.620  0.00  0.00    -0.018 A 
ATOM      6  C   UNL     1      -1.196   4.247  -2.308  0.00  0.00    +0.034 A 
ATOM      7  C   UNL     1      -2.568   3.803  -4.356  0.00  0.00    +0.049 C 
ATOM      8  C   UNL     1      -2.979   2.405  -4.025  0.00  0.00    -0.023 C 
ATOM      9  C   UNL     1      -3.352   1.784  -5.138  0.00  0.00    -0.030 C 
ATOM     10  C   UNL     1      -3.212   2.727  -6.334  0.00  0.00    +0.033 C 
ATOM     11  C   UNL     1      -2.122   3.688  -5.844  0.00  0.00    +0.029 C 
ATOM     12  C   UNL     1      -2.152   5.106  -6.387  0.00  0.00    +0.107 C 
ATOM     13  N   UNL     1      -1.109   5.841  -5.640  0.00  0.00    -0.336 N 
ATOM     14  H   UNL     1      -0.532   6.635  -6.138  0.00  0.00    +0.147 HD
ENDROOT
BRANCH  12  15
ATOM     15  C   UNL     1      -3.503   5.730  -6.146  0.00  0.00    +0.003 A 
ATOM     16  C   UNL     1      -3.705   6.532  -5.038  0.00  0.00    +0.008 A 
ATOM     17  C   UNL     1      -4.942   7.108  -4.819  0.00  0.00    +0.000 A 
ATOM     18  C   UNL     1      -5.980   6.873  -5.702  0.00  0.00    +0.002 A 
ATOM     19  C   UNL     1      -5.779   6.067  -6.806  0.00  0.00    +0.033 A 
ATOM     20  C   UNL     1      -4.540   5.495  -7.028  0.00  0.00    +0.131 A 
BRANCH  20  21
ATOM     21  N   UNL     1      -4.325   4.631  -8.211  0.00  0.00    +0.057 N 
ATOM     22  O   UNL     1      -5.239   4.425  -8.988  0.00  0.00    -0.126 OA
ATOM     23  O   UNL     1      -3.233   4.127  -8.406  0.00  0.00    -0.126 OA
ENDBRANCH  20  21
ENDBRANCH  12  15
BRANCH   1  24
ATOM     24  S   UNL     1       0.174   4.610   0.026  0.00  0.00    +0.075 S 
ATOM     25  O   UNL     1      -0.970   3.977   0.584  0.00  0.00    -0.150 OA
ATOM     26  O   UNL     1       0.736   5.793   0.578  0.00  0.00    -0.150 OA
BRANCH  24  35
ATOM     27  C   UNL     1       1.206  -0.684  -0.013  0.00  0.00    +0.000 A 
ATOM     28  C   UNL     1       0.002  -0.004   0.002  0.00  0.00    +0.002 A 
ATOM     29  C   UNL     1      -0.017   1.374   0.010  0.00  0.00    +0.025 A 
ATOM     30  C   UNL     1       1.180   2.095   0.002  0.00  0.00    +0.054 A 
ATOM     31  C   UNL     1       2.381   1.404  -0.013  0.00  0.00    -0.023 A 
ATOM     32  C   UNL     1       2.395   0.022  -0.021  0.00  0.00    +0.005 A 
ATOM     33  C   UNL     1       3.513   2.407  -0.018  0.00  0.00    +0.058 C 
ATOM     34  C   UNL     1       2.815   3.776  -0.003  0.00  0.00    +0.136 C 
ATOM     35  N   UNL     1       1.381   3.476   0.008  0.00  0.00    -0.202 N 
ENDBRANCH  24  35
ENDBRANCH   1  24
TORSDOF 4
