REMARK  Name = ZINC05389757
REMARK  4 active torsions:
REMARK  status: ('A' for Active; 'I' for Inactive)
REMARK    1  A    between atoms: N_7  and  C_10
REMARK    2  A    between atoms: C_14  and  O_21
REMARK    3  A    between atoms: C_16  and  C_19
REMARK    4  A    between atoms: C_19  and  O_20
REMARK                            x       y       z     vdW  Elec       q    Type
REMARK                         _______ _______ _______ _____ _____    ______ ____
ROOT
ATOM      1  C   UNL     1      -2.284   6.212  -3.392  0.00  0.00    +0.225 A 
ATOM      2  N   UNL     1      -1.867   7.371  -2.917  0.00  0.00    -0.219 NA
ATOM      3  C   UNL     1      -1.393   7.478  -1.679  0.00  0.00    +0.147 A 
ATOM      4  C   UNL     1      -1.345   6.324  -0.879  0.00  0.00    +0.147 A 
ATOM      5  C   UNL     1      -1.802   5.115  -1.430  0.00  0.00    +0.167 A 
ATOM      6  N   UNL     1      -2.258   5.106  -2.679  0.00  0.00    -0.216 NA
ATOM      7  N   UNL     1      -1.645   4.168  -0.449  0.00  0.00    -0.287 N 
ATOM      8  C   UNL     1      -1.121   4.795   0.642  0.00  0.00    +0.203 A 
ATOM      9  N   UNL     1      -0.941   6.058   0.386  0.00  0.00    -0.231 NA
ATOM     10  N   UNL     1      -0.958   8.697  -1.191  0.00  0.00    -0.341 N 
ATOM     11  H   UNL     1      -0.208   9.035  -1.759  0.00  0.00    +0.144 HD
ATOM     12  H   UNL     1      -0.614   8.762  -0.286  0.00  0.00    +0.144 HD
ENDROOT
BRANCH   7  13
ATOM     13  C   UNL     1      -1.984   2.747  -0.554  0.00  0.00    +0.238 C 
ATOM     14  C   UNL     1      -0.821   1.964  -1.210  0.00  0.00    +0.137 C 
ATOM     15  C   UNL     1      -0.012   1.425  -0.009  0.00  0.00    +0.163 C 
ATOM     16  C   UNL     1      -0.777   1.946   1.227  0.00  0.00    +0.176 C 
ATOM     17  O   UNL     1      -2.126   2.166   0.761  0.00  0.00    -0.347 OA
ATOM     18 BR   UNL     1       0.288   3.162  -2.306  0.00  0.00    -0.081 Br
BRANCH  15  19
ATOM     19  O   UNL     1       0.008  -0.004  -0.020  0.00  0.00    -0.388 OA
ATOM     20  H   UNL     1       0.451  -0.385  -0.791  0.00  0.00    +0.210 HD
ENDBRANCH  15  19
BRANCH  16  21
ATOM     21  C   UNL     1      -0.761   0.900   2.344  0.00  0.00    +0.190 C 
BRANCH  21  22
ATOM     22  O   UNL     1      -1.371   1.444   3.515  0.00  0.00    -0.392 OA
ATOM     23  H   UNL     1      -1.396   0.834   4.266  0.00  0.00    +0.210 HD
ENDBRANCH  21  22
ENDBRANCH  16  21
ENDBRANCH   7  13
TORSDOF 4
