REMARK  Name = ZINC35689722
REMARK  12 active torsions:
REMARK  status: ('A' for Active; 'I' for Inactive)
REMARK    1  A    between atoms: C_1  and  C_2
REMARK    2  A    between atoms: C_2  and  C_3
REMARK    3  A    between atoms: C_2  and  C_4
REMARK    4  A    between atoms: C_4  and  N_5
REMARK    5  A    between atoms: N_5  and  C_6
REMARK    6  A    between atoms: C_6  and  C_7
REMARK    7  A    between atoms: C_7  and  C_9
REMARK    8  A    between atoms: C_10  and  C_21
REMARK    9  A    between atoms: N_12  and  C_15
REMARK   10  A    between atoms: C_13  and  O_14
REMARK   11  A    between atoms: C_27  and  C_29
REMARK   12  A    between atoms: C_32  and  N_35
REMARK                            x       y       z     vdW  Elec       q    Type
REMARK                         _______ _______ _______ _____ _____    ______ ____
ROOT
ATOM      1  C   UNL     1      -0.539  -2.072   3.589  0.00  0.00    +0.188 C 
ATOM      2  O   UNL     1       0.667  -2.211   3.594  0.00  0.00    -0.290 OA
ENDROOT
BRANCH   1   3
ATOM      3  C   UNL     1      -1.366  -3.044   4.202  0.00  0.00    +0.108 A 
ATOM      4  C   UNL     1      -0.928  -4.224   4.962  0.00  0.00    +0.107 A 
ATOM      5  N   UNL     1      -2.011  -4.854   5.353  0.00  0.00    -0.162 NA
ATOM      6  N   UNL     1      -3.139  -4.167   4.900  0.00  0.00    -0.199 N 
ATOM      7  C   UNL     1      -2.760  -3.072   4.211  0.00  0.00    +0.227 A 
BRANCH   6   8
ATOM      8  C   UNL     1      -4.466  -4.553   5.132  0.00  0.00    +0.069 A 
ATOM      9  C   UNL     1      -5.449  -3.591   5.317  0.00  0.00    +0.028 A 
ATOM     10  C   UNL     1      -6.756  -3.975   5.545  0.00  0.00    +0.002 A 
ATOM     11  C   UNL     1      -7.086  -5.317   5.589  0.00  0.00    +0.000 A 
ATOM     12  C   UNL     1      -6.109  -6.279   5.405  0.00  0.00    +0.002 A 
ATOM     13  C   UNL     1      -4.801  -5.900   5.171  0.00  0.00    +0.028 A 
ENDBRANCH   6   8
BRANCH   4  14
ATOM     14  C   UNL     1       0.472  -4.626   5.234  0.00  0.00    +0.003 A 
ATOM     15  C   UNL     1       1.410  -3.672   5.627  0.00  0.00    +0.010 A 
ATOM     16  C   UNL     1       2.712  -4.053   5.880  0.00  0.00    +0.001 A 
ATOM     17  C   UNL     1       3.088  -5.377   5.744  0.00  0.00    +0.000 A 
ATOM     18  C   UNL     1       2.161  -6.328   5.354  0.00  0.00    +0.001 A 
ATOM     19  C   UNL     1       0.855  -5.961   5.105  0.00  0.00    +0.010 A 
ENDBRANCH   4  14
BRANCH   7  20
ATOM     20  O   UNL     1      -3.581  -2.167   3.632  0.00  0.00    -0.492 OA
ATOM     21  H   UNL     1      -3.816  -2.377   2.718  0.00  0.00    +0.294 HD
ENDBRANCH   7  20
ENDBRANCH   1   3
BRANCH   1  22
ATOM     22  C   UNL     1      -1.155  -0.865   2.931  0.00  0.00    +0.187 C 
BRANCH  22  23
ATOM     23  N   UNL     1      -0.097  -0.018   2.376  0.00  0.00    -0.290 N 
ATOM     24  C   UNL     1       0.320   1.070   3.053  0.00  0.00    +0.247 C 
ATOM     25  O   UNL     1       1.185   1.784   2.584  0.00  0.00    -0.270 OA
BRANCH  24  26
ATOM     26  C   UNL     1      -0.275   1.396   4.367  0.00  0.00    +0.037 A 
ATOM     27  C   UNL     1      -0.881   0.396   5.129  0.00  0.00    +0.015 A 
ATOM     28  C   UNL     1      -1.434   0.707   6.355  0.00  0.00    +0.033 A 
ATOM     29  C   UNL     1      -1.389   2.006   6.828  0.00  0.00    +0.126 A 
ATOM     30  C   UNL     1      -0.789   3.002   6.078  0.00  0.00    +0.033 A 
ATOM     31  C   UNL     1      -0.228   2.703   4.854  0.00  0.00    +0.015 A 
BRANCH  29  32
ATOM     32  N   UNL     1      -1.984   2.332   8.144  0.00  0.00    +0.056 N 
ATOM     33  O   UNL     1      -2.508   1.463   8.802  0.00  0.00    -0.126 OA
ATOM     34  O   UNL     1      -1.946   3.466   8.560  0.00  0.00    -0.126 OA
ENDBRANCH  29  32
ENDBRANCH  24  26
BRANCH  23  35
ATOM     35  C   UNL     1       0.508  -0.353   1.085  0.00  0.00    +0.111 C 
BRANCH  35  37
ATOM     36  C   UNL     1      -0.321   1.748   0.016  0.00  0.00    +0.009 C 
ATOM     37  C   UNL     1      -0.351   0.219  -0.045  0.00  0.00    +0.000 C 
ATOM     38  C   UNL     1       0.202  -0.249  -1.393  0.00  0.00    +0.009 C 
ENDBRANCH  35  37
ENDBRANCH  23  35
ENDBRANCH  22  23
ENDBRANCH   1  22
TORSDOF 10
