REMARK  Name = ZINC34145556
REMARK  9 active torsions:
REMARK  status: ('A' for Active; 'I' for Inactive)
REMARK    1  A    between atoms: C_1  and  C_2
REMARK    2  A    between atoms: C_2  and  C_3
REMARK    3  A    between atoms: C_3  and  C_5
REMARK    4  A    between atoms: C_3  and  N_6
REMARK    5  A    between atoms: C_7  and  C_9
REMARK    6  A    between atoms: C_9  and  S_10
REMARK    7  A    between atoms: S_10  and  C_11
REMARK    8  A    between atoms: C_15  and  C_19
REMARK    9  A    between atoms: N_22  and  C_23
REMARK                            x       y       z     vdW  Elec       q    Type
REMARK                         _______ _______ _______ _____ _____    ______ ____
ROOT
ATOM      1  C   UNL     1      -6.513   0.845   3.974  0.00  0.00    +0.177 A 
ATOM      2  N   UNL     1      -5.648   1.043   4.943  0.00  0.00    -0.201 NA
ATOM      3  C   UNL     1      -6.058   1.393   6.179  0.00  0.00    +0.187 A 
ATOM      4  C   UNL     1      -7.506   1.546   6.407  0.00  0.00    +0.079 A 
ATOM      5  C   UNL     1      -7.661   1.902   7.728  0.00  0.00    +0.046 A 
ATOM      6  N   UNL     1      -6.442   1.967   8.280  0.00  0.00    -0.279 N 
ATOM      7  N   UNL     1      -5.468   1.654   7.324  0.00  0.00    -0.153 NA
ATOM      8  H   UNL     1      -6.260   2.198   9.205  0.00  0.00    +0.189 HD
ATOM      9  C   UNL     1      -8.968   2.170   8.428  0.00  0.00    +0.066 C 
ATOM     10  C   UNL     1      -8.396   1.306   5.274  0.00  0.00    +0.115 A 
ATOM     11  N   UNL     1      -9.760   1.428   5.401  0.00  0.00    -0.344 N 
ATOM     12  N   UNL     1      -7.838   0.972   4.111  0.00  0.00    -0.277 N 
ATOM     13  H   UNL     1     -10.148   1.677   6.255  0.00  0.00    +0.144 HD
ATOM     14  H   UNL     1     -10.335   1.265   4.637  0.00  0.00    +0.144 HD
ENDROOT
BRANCH  12  15
ATOM     15  C   UNL     1      -8.649   0.744   3.019  0.00  0.00    +0.050 A 
ATOM     16  C   UNL     1      -9.394   1.787   2.472  0.00  0.00    +0.027 A 
ATOM     17  C   UNL     1     -10.204   1.554   1.379  0.00  0.00    +0.017 A 
ATOM     18  C   UNL     1     -10.278   0.287   0.827  0.00  0.00    +0.018 A 
ATOM     19  C   UNL     1      -9.540  -0.752   1.367  0.00  0.00    +0.017 A 
ATOM     20  C   UNL     1      -8.722  -0.529   2.456  0.00  0.00    +0.027 A 
ATOM     21 BR   UNL     1     -11.390  -0.025  -0.669  0.00  0.00    -0.050 Br
ENDBRANCH  12  15
BRANCH   1  22
ATOM     22  S   UNL     1      -5.887   0.391   2.391  0.00  0.00    -0.078 S 
BRANCH  22  23
ATOM     23  C   UNL     1      -4.090   0.329   2.630  0.00  0.00    +0.173 C 
BRANCH  23  25
ATOM     24  N   UNL     1      -2.082  -0.162   1.273  0.00  0.00    -0.312 N 
ATOM     25  C   UNL     1      -3.424  -0.053   1.334  0.00  0.00    +0.224 C 
ATOM     26  O   UNL     1      -4.095  -0.264   0.346  0.00  0.00    -0.275 OA
ATOM     27  H   UNL     1      -1.545   0.006   2.063  0.00  0.00    +0.149 HD
BRANCH  24  28
ATOM     28  C   UNL     1      -1.433  -0.534   0.013  0.00  0.00    +0.070 C 
ATOM     29  C   UNL     1      -1.416  -2.058  -0.121  0.00  0.00    +0.028 C 
BRANCH  28  31
ATOM     30  C   UNL     1      -0.019   1.526   0.010  0.00  0.00    +0.005 C 
ATOM     31  C   UNL     1       0.002  -0.004   0.002  0.00  0.00    +0.018 C 
ENDBRANCH  28  31
ENDBRANCH  24  28
ENDBRANCH  23  25
ENDBRANCH  22  23
ENDBRANCH   1  22
TORSDOF 6
