REMARK  Name = ZINC35730336
REMARK  13 active torsions:
REMARK  status: ('A' for Active; 'I' for Inactive)
REMARK    1  A    between atoms: N_9  and  C_26
REMARK    2  A    between atoms: C_10  and  S_12
REMARK    3  A    between atoms: S_12  and  C_13
REMARK    4  A    between atoms: C_13  and  C_14
REMARK    5  A    between atoms: C_14  and  C_15
REMARK    6  A    between atoms: C_15  and  C_16
REMARK    7  A    between atoms: N_18  and  C_19
REMARK    8  A    between atoms: C_19  and  C_20
REMARK    9  A    between atoms: C_20  and  C_21
REMARK   10  A    between atoms: C_21  and  C_22
REMARK   11  A    between atoms: C_22  and  C_23
REMARK   12  A    between atoms: C_23  and  C_24
REMARK   13  A    between atoms: C_24  and  N_25
REMARK                            x       y       z     vdW  Elec       q    Type
REMARK                         _______ _______ _______ _____ _____    ______ ____
ROOT
ATOM      1  C   UNL     1       0.382   1.393   1.241  0.00  0.00    +0.001 A 
ATOM      2  C   UNL     1       1.336   2.102   0.522  0.00  0.00    +0.002 A 
ATOM      3  C   UNL     1       2.336   1.455  -0.147  0.00  0.00    +0.028 A 
ATOM      4  C   UNL     1       2.403   0.059  -0.109  0.00  0.00    +0.079 A 
ATOM      5  C   UNL     1       1.430  -0.659   0.623  0.00  0.00    +0.065 A 
ATOM      6  C   UNL     1       0.421   0.028   1.297  0.00  0.00    +0.015 A 
ATOM      7  C   UNL     1       1.522  -2.125   0.648  0.00  0.00    +0.267 A 
ATOM      8  O   UNL     1       0.713  -2.797   1.261  0.00  0.00    -0.267 OA
ATOM      9  N   UNL     1       2.538  -2.699  -0.036  0.00  0.00    -0.255 N 
ATOM     10  C   UNL     1       3.437  -1.927  -0.720  0.00  0.00    +0.177 A 
ATOM     11  N   UNL     1       3.374  -0.619  -0.754  0.00  0.00    -0.223 NA
ENDROOT
BRANCH   9  12
ATOM     12  C   UNL     1       2.670  -4.094  -0.045  0.00  0.00    +0.053 A 
ATOM     13  C   UNL     1       2.045  -4.846  -1.031  0.00  0.00    +0.028 A 
ATOM     14  C   UNL     1       2.177  -6.221  -1.038  0.00  0.00    +0.023 A 
ATOM     15  C   UNL     1       2.931  -6.850  -0.064  0.00  0.00    +0.059 A 
ATOM     16  C   UNL     1       3.556  -6.103   0.921  0.00  0.00    +0.061 A 
ATOM     17  C   UNL     1       3.431  -4.726   0.929  0.00  0.00    +0.047 A 
ATOM     18 CL   UNL     1       4.501  -6.896   2.142  0.00  0.00    -0.082 Cl
ATOM     19 CL   UNL     1       3.095  -8.578  -0.076  0.00  0.00    -0.082 Cl
ENDBRANCH   9  12
BRANCH  10  20
ATOM     20  S   UNL     1       4.740  -2.729  -1.592  0.00  0.00    -0.087 S 
BRANCH  20  21
ATOM     21  C   UNL     1       5.675  -1.364  -2.337  0.00  0.00    +0.078 C 
BRANCH  21  22
ATOM     22  C   UNL     1       6.852  -1.927  -3.135  0.00  0.00    +0.020 C 
BRANCH  22  23
ATOM     23  C   UNL     1       7.640  -0.776  -3.763  0.00  0.00    +0.096 C 
BRANCH  23  24
ATOM     24  C   UNL     1       8.800  -1.331  -4.549  0.00  0.00    +0.213 C 
ATOM     25  O   UNL     1       8.979  -2.530  -4.602  0.00  0.00    -0.276 OA
ATOM     26  N   UNL     1       9.639  -0.496  -5.193  0.00  0.00    -0.315 N 
ATOM     27  H   UNL     1       9.496   0.463  -5.151  0.00  0.00    +0.149 HD
BRANCH  26  28
ATOM     28  C   UNL     1      10.766  -1.035  -5.958  0.00  0.00    +0.104 C 
BRANCH  28  29
ATOM     29  C   UNL     1      11.554   0.116  -6.585  0.00  0.00    +0.019 C 
BRANCH  29  30
ATOM     30  C   UNL     1      12.732  -0.447  -7.384  0.00  0.00    +0.001 C 
BRANCH  30  31
ATOM     31  C   UNL     1      13.520   0.704  -8.011  0.00  0.00    -0.002 C 
BRANCH  31  32
ATOM     32  C   UNL     1      14.697   0.141  -8.810  0.00  0.00    -0.020 C 
BRANCH  32  33
ATOM     33  C   UNL     1      15.485   1.292  -9.438  0.00  0.00    -0.086 C 
BRANCH  33  34
ATOM     34  N   UNL     1      16.616   0.751 -10.204  0.00  0.00    +0.378 N 
ATOM     35  H   UNL     1      17.219   0.227  -9.588  0.00  0.00    -0.090 HD
ATOM     36  H   UNL     1      16.269   0.145 -10.932  0.00  0.00    -0.090 HD
ATOM     37  H   UNL     1      17.135   1.510 -10.618  0.00  0.00    -0.090 HD
ENDBRANCH  33  34
ENDBRANCH  32  33
ENDBRANCH  31  32
ENDBRANCH  30  31
ENDBRANCH  29  30
ENDBRANCH  28  29
ENDBRANCH  26  28
ENDBRANCH  23  24
ENDBRANCH  22  23
ENDBRANCH  21  22
ENDBRANCH  20  21
ENDBRANCH  10  20
TORSDOF 13
