REMARK  Name = ZINC35245623
REMARK  11 active torsions:
REMARK  status: ('A' for Active; 'I' for Inactive)
REMARK    1  A    between atoms: C_1  and  C_2
REMARK    2  A    between atoms: C_7  and  C_8
REMARK    3  A    between atoms: C_8  and  S_9
REMARK    4  A    between atoms: S_9  and  C_10
REMARK    5  A    between atoms: C_13  and  C_24
REMARK    6  A    between atoms: N_14  and  C_15
REMARK    7  A    between atoms: C_18  and  N_21
REMARK    8  A    between atoms: C_24  and  C_26
REMARK    9  A    between atoms: C_24  and  N_27
REMARK   10  A    between atoms: C_28  and  C_30
REMARK   11  A    between atoms: C_35  and  C_36
REMARK                            x       y       z     vdW  Elec       q    Type
REMARK                         _______ _______ _______ _____ _____    ______ ____
ROOT
ATOM      1  C   UNL     1      -2.013  -0.205   4.818  0.00  0.00    +0.196 A 
ATOM      2  N   UNL     1      -0.863   0.268   5.241  0.00  0.00    -0.122 NA
ATOM      3  N   UNL     1      -1.055   1.068   6.228  0.00  0.00    -0.131 NA
ATOM      4  C   UNL     1      -2.328   1.156   6.494  0.00  0.00    +0.159 A 
ATOM      5  N   UNL     1      -2.986   0.352   5.602  0.00  0.00    -0.273 N 
ENDROOT
BRANCH   5   6
ATOM      6  C   UNL     1      -4.370   0.141   5.512  0.00  0.00    +0.050 A 
ATOM      7  C   UNL     1      -5.211   1.187   5.156  0.00  0.00    +0.028 A 
ATOM      8  C   UNL     1      -6.573   0.977   5.068  0.00  0.00    +0.035 A 
ATOM      9  C   UNL     1      -7.100  -0.274   5.335  0.00  0.00    +0.126 A 
ATOM     10  C   UNL     1      -6.265  -1.317   5.689  0.00  0.00    +0.035 A 
ATOM     11  C   UNL     1      -4.901  -1.115   5.772  0.00  0.00    +0.028 A 
BRANCH   9  12
ATOM     12  N   UNL     1      -8.560  -0.495   5.240  0.00  0.00    +0.056 N 
ATOM     13  O   UNL     1      -9.291   0.416   4.931  0.00  0.00    -0.126 OA
ATOM     14  O   UNL     1      -9.022  -1.588   5.473  0.00  0.00    -0.126 OA
ENDBRANCH   9  12
ENDBRANCH   5   6
BRANCH   4  15
ATOM     15  C   UNL     1      -2.958   1.990   7.579  0.00  0.00    +0.139 C 
ATOM     16  C   UNL     1      -2.947   3.462   7.161  0.00  0.00    +0.036 C 
BRANCH  15  17
ATOM     17  N   UNL     1      -2.200   1.829   8.822  0.00  0.00    -0.302 N 
ATOM     18  C   UNL     1      -2.801   2.037  10.010  0.00  0.00    +0.245 C 
ATOM     19  O   UNL     1      -3.973   2.358  10.050  0.00  0.00    -0.270 OA
ATOM     20  H   UNL     1      -1.265   1.573   8.790  0.00  0.00    +0.150 HD
BRANCH  18  21
ATOM     21  C   UNL     1      -2.036   1.875  11.264  0.00  0.00    +0.040 A 
ATOM     22  C   UNL     1      -0.730   1.382  11.230  0.00  0.00    +0.013 A 
ATOM     23  C   UNL     1      -0.021   1.233  12.404  0.00  0.00    +0.001 A 
ATOM     24  C   UNL     1      -0.602   1.572  13.614  0.00  0.00    +0.000 A 
ATOM     25  C   UNL     1      -1.895   2.061  13.655  0.00  0.00    +0.004 A 
ATOM     26  C   UNL     1      -2.613   2.220  12.487  0.00  0.00    -0.038 A 
ATOM     27  C   UNL     1      -4.020   2.759  12.533  0.00  0.00    +0.044 C 
ENDBRANCH  18  21
ENDBRANCH  15  17
ENDBRANCH   4  15
BRANCH   1  28
ATOM     28  S   UNL     1      -2.256  -1.336   3.489  0.00  0.00    -0.081 S 
BRANCH  28  29
ATOM     29  C   UNL     1      -0.579  -1.673   2.887  0.00  0.00    +0.112 C 
BRANCH  29  36
ATOM     30  C   UNL     1      -0.830  -0.683   0.184  0.00  0.00    +0.044 C 
ATOM     31  C   UNL     1      -0.764  -2.167   0.440  0.00  0.00    -0.046 A 
ATOM     32  C   UNL     1      -0.818  -3.054  -0.619  0.00  0.00    +0.003 A 
ATOM     33  C   UNL     1      -0.758  -4.415  -0.384  0.00  0.00    +0.000 A 
ATOM     34  C   UNL     1      -0.643  -4.888   0.910  0.00  0.00    +0.000 A 
ATOM     35  C   UNL     1      -0.588  -4.001   1.969  0.00  0.00    +0.005 A 
ATOM     36  C   UNL     1      -0.644  -2.640   1.733  0.00  0.00    -0.034 A 
ENDBRANCH  29  36
ENDBRANCH  28  29
ENDBRANCH   1  28
TORSDOF 8
