REMARK  Name = ZINC47137389
REMARK  8 active torsions:
REMARK  status: ('A' for Active; 'I' for Inactive)
REMARK    1  A    between atoms: C_1  and  C_2
REMARK    2  A    between atoms: C_2  and  C_10
REMARK    3  A    between atoms: C_3  and  C_4
REMARK    4  A    between atoms: N_14  and  C_27
REMARK    5  A    between atoms: N_16  and  N_17
REMARK    6  A    between atoms: C_18  and  C_19
REMARK    7  A    between atoms: C_22  and  O_25
REMARK    8  A    between atoms: C_27  and  C_28
REMARK                            x       y       z     vdW  Elec       q    Type
REMARK                         _______ _______ _______ _____ _____    ______ ____
ROOT
ATOM      1  C   UNL     1      -0.082   1.641  -1.390  0.00  0.00    +0.023 C 
ATOM      2  C   UNL     1       0.291   1.702  -2.702  0.00  0.00    +0.078 C 
ATOM      3  C   UNL     1       0.348   0.627  -3.709  0.00  0.00    +0.259 C 
ATOM      4  O   UNL     1       0.038  -0.518  -3.435  0.00  0.00    -0.269 OA
ATOM      5  N   UNL     1       0.750   0.962  -4.923  0.00  0.00    -0.237 N 
ATOM      6  C   UNL     1       1.096   2.264  -5.214  0.00  0.00    +0.190 C 
ATOM      7  N   UNL     1       1.514   2.765  -6.359  0.00  0.00    -0.126 NA
ATOM      8  S   UNL     1       0.835   3.107  -3.662  0.00  0.00    -0.047 S 
ENDROOT
BRANCH   1  10
ATOM      9  C   UNL     1       0.763   4.000  -1.085  0.00  0.00    +0.044 C 
ATOM     10  C   UNL     1       0.070   2.769  -0.562  0.00  0.00    -0.049 C 
ATOM     11  C   UNL     1      -0.408   2.748   0.706  0.00  0.00    +0.011 C 
BRANCH  11  12
ATOM     12  C   UNL     1      -0.405   3.977   1.513  0.00  0.00    -0.025 A 
ATOM     13  C   UNL     1      -0.712   5.208   0.922  0.00  0.00    +0.008 A 
ATOM     14  C   UNL     1      -0.707   6.355   1.686  0.00  0.00    +0.001 A 
ATOM     15  C   UNL     1      -0.400   6.292   3.034  0.00  0.00    +0.000 A 
ATOM     16  C   UNL     1      -0.095   5.079   3.626  0.00  0.00    +0.001 A 
ATOM     17  C   UNL     1      -0.100   3.921   2.877  0.00  0.00    +0.008 A 
ENDBRANCH  11  12
ENDBRANCH   1  10
BRANCH   7  18
ATOM     18  N   UNL     1       1.641   1.999  -7.390  0.00  0.00    -0.155 NA
ATOM     19  C   UNL     1       2.054   2.496  -8.526  0.00  0.00    +0.143 C 
BRANCH  19  20
ATOM     20  C   UNL     1       2.544   3.881  -8.588  0.00  0.00    -0.005 A 
ATOM     21  C   UNL     1       2.812   4.477  -9.825  0.00  0.00    +0.013 A 
ATOM     22  C   UNL     1       3.270   5.775  -9.877  0.00  0.00    +0.046 A 
ATOM     23  C   UNL     1       3.467   6.493  -8.704  0.00  0.00    +0.117 A 
ATOM     24  C   UNL     1       3.203   5.906  -7.473  0.00  0.00    +0.046 A 
ATOM     25  C   UNL     1       2.738   4.611  -7.409  0.00  0.00    +0.013 A 
BRANCH  23  26
ATOM     26  O   UNL     1       3.919   7.772  -8.761  0.00  0.00    -0.507 OA
ATOM     27  H   UNL     1       3.217   8.435  -8.817  0.00  0.00    +0.292 HD
ENDBRANCH  23  26
ENDBRANCH  19  20
ENDBRANCH   7  18
BRANCH   5  28
ATOM     28  C   UNL     1       0.828  -0.060  -5.970  0.00  0.00    +0.190 C 
BRANCH  28  29
ATOM     29  C   UNL     1      -0.489  -0.135  -6.698  0.00  0.00    +0.123 A 
ATOM     30  C   UNL     1      -0.826   0.574  -7.790  0.00  0.00    +0.046 A 
ATOM     31  C   UNL     1      -2.143   0.192  -8.136  0.00  0.00    +0.041 A 
ATOM     32  C   UNL     1      -2.532  -0.728  -7.235  0.00  0.00    +0.195 A 
ATOM     33  O   UNL     1      -1.524  -0.926  -6.369  0.00  0.00    -0.466 OA
ENDBRANCH  28  29
ENDBRANCH   5  28
TORSDOF 7
