REMARK  Name = ZINC38595812
REMARK  10 active torsions:
REMARK  status: ('A' for Active; 'I' for Inactive)
REMARK    1  A    between atoms: C_1  and  C_2
REMARK    2  A    between atoms: C_3  and  C_11
REMARK    3  A    between atoms: C_7  and  N_8
REMARK    4  A    between atoms: N_13  and  C_14
REMARK    5  A    between atoms: C_14  and  C_16
REMARK    6  A    between atoms: C_14  and  C_17
REMARK    7  A    between atoms: C_17  and  C_19
REMARK    8  A    between atoms: C_17  and  N_24
REMARK    9  A    between atoms: N_27  and  C_30
REMARK   10  A    between atoms: C_30  and  C_31
REMARK                            x       y       z     vdW  Elec       q    Type
REMARK                         _______ _______ _______ _____ _____    ______ ____
ROOT
ATOM      1  C   UNL     1       2.111  -1.005  -2.791  0.00  0.00    +0.113 C 
ENDROOT
BRANCH   1   2
ATOM      2  N   UNL     1       1.337  -1.001  -4.039  0.00  0.00    -0.297 NA
ATOM      3  C   UNL     1      -0.051  -0.582  -3.797  0.00  0.00    +0.066 C 
ATOM      4  C   UNL     1      -0.805  -0.533  -5.128  0.00  0.00    -0.063 C 
ATOM      5  N   UNL     1      -0.779  -1.861  -5.755  0.00  0.00    +0.384 N 
ATOM      6  C   UNL     1       0.612  -2.255  -6.013  0.00  0.00    -0.063 C 
ATOM      7  C   UNL     1       1.379  -2.318  -4.690  0.00  0.00    +0.066 C 
ATOM      8  H   UNL     1      -1.209  -2.533  -5.137  0.00  0.00    -0.081 HD
BRANCH   5   9
ATOM      9  C   UNL     1      -1.519  -1.819  -7.023  0.00  0.00    -0.043 C 
BRANCH   9  10
ATOM     10  C   UNL     1      -1.597  -3.206  -7.606  0.00  0.00    -0.064 A 
ATOM     11  C   UNL     1      -0.606  -3.654  -8.460  0.00  0.00    +0.002 A 
ATOM     12  C   UNL     1      -0.678  -4.927  -8.994  0.00  0.00    +0.000 A 
ATOM     13  C   UNL     1      -1.740  -5.752  -8.675  0.00  0.00    +0.000 A 
ATOM     14  C   UNL     1      -2.731  -5.304  -7.821  0.00  0.00    +0.000 A 
ATOM     15  C   UNL     1      -2.657  -4.033  -7.283  0.00  0.00    +0.002 A 
ENDBRANCH   9  10
ENDBRANCH   5   9
ENDBRANCH   1   2
BRANCH   1  16
ATOM     16  C   UNL     1       3.455  -1.642  -3.035  0.00  0.00    +0.009 A 
ATOM     17  C   UNL     1       4.152  -2.495  -2.245  0.00  0.00    +0.013 A 
ATOM     18  C   UNL     1       5.380  -2.958  -2.678  0.00  0.00    +0.008 A 
ATOM     19  C   UNL     1       5.851  -2.546  -3.880  0.00  0.00    +0.045 A 
ATOM     20  S   UNL     1       4.538  -1.476  -4.444  0.00  0.00    -0.100 S 
ENDBRANCH   1  16
BRANCH   1  21
ATOM     21  C   UNL     1       2.308   0.433  -2.308  0.00  0.00    +0.092 C 
ATOM     22  C   UNL     1       2.955   0.421  -0.921  0.00  0.00    +0.030 C 
BRANCH  21  25
ATOM     23  C   UNL     1       3.105   2.490  -3.343  0.00  0.00    +0.245 C 
ATOM     24  O   UNL     1       2.318   3.108  -2.652  0.00  0.00    -0.270 OA
ATOM     25  N   UNL     1       3.178   1.148  -3.246  0.00  0.00    -0.307 N 
ATOM     26  H   UNL     1       3.806   0.655  -3.797  0.00  0.00    +0.149 HD
BRANCH  23  29
ATOM     27  C   UNL     1       3.030   5.381  -3.444  0.00  0.00    +0.047 C 
ATOM     28  C   UNL     1       3.955   4.606  -4.346  0.00  0.00    -0.008 A 
ATOM     29  C   UNL     1       3.982   3.212  -4.289  0.00  0.00    +0.042 A 
ATOM     30  C   UNL     1       4.842   2.501  -5.129  0.00  0.00    +0.013 A 
ATOM     31  C   UNL     1       5.658   3.181  -6.009  0.00  0.00    +0.003 A 
ATOM     32  C   UNL     1       5.626   4.563  -6.061  0.00  0.00    +0.033 A 
ATOM     33  C   UNL     1       4.772   5.273  -5.235  0.00  0.00    +0.130 A 
BRANCH  33  34
ATOM     34  N   UNL     1       4.740   6.751  -5.302  0.00  0.00    +0.057 N 
ATOM     35  O   UNL     1       5.763   7.371  -5.478  0.00  0.00    -0.126 OA
ATOM     36  O   UNL     1       3.691   7.339  -5.181  0.00  0.00    -0.126 OA
ENDBRANCH  33  34
ENDBRANCH  23  29
ENDBRANCH  21  25
ENDBRANCH   1  21
TORSDOF 8
