REMARK  Name = ZINC38670655
REMARK  12 active torsions:
REMARK  status: ('A' for Active; 'I' for Inactive)
REMARK    1  A    between atoms: C_1  and  C_2
REMARK    2  A    between atoms: C_3  and  C_34
REMARK    3  A    between atoms: C_4  and  C_33
REMARK    4  A    between atoms: C_5  and  S_10
REMARK    5  A    between atoms: C_6  and  C_9
REMARK    6  A    between atoms: C_7  and  C_8
REMARK    7  A    between atoms: S_10  and  N_13
REMARK    8  A    between atoms: N_13  and  C_14
REMARK    9  A    between atoms: C_14  and  C_15
REMARK   10  A    between atoms: C_15  and  C_17
REMARK   11  A    between atoms: C_15  and  N_28
REMARK   12  A    between atoms: N_26  and  C_27
REMARK                            x       y       z     vdW  Elec       q    Type
REMARK                         _______ _______ _______ _____ _____    ______ ____
ROOT
ATOM      1  C   UNL     1       3.994  -3.719   2.592  0.00  0.00    -0.022 C 
ENDROOT
BRANCH   1   2
ATOM      2  C   UNL     1       4.353  -3.109   3.923  0.00  0.00    -0.059 A 
ATOM      3  C   UNL     1       4.760  -1.789   3.989  0.00  0.00    +0.004 A 
ATOM      4  C   UNL     1       5.090  -1.231   5.208  0.00  0.00    +0.023 A 
ATOM      5  C   UNL     1       5.012  -1.995   6.367  0.00  0.00    +0.033 A 
ATOM      6  C   UNL     1       4.601  -3.317   6.300  0.00  0.00    -0.026 A 
ATOM      7  C   UNL     1       4.269  -3.868   5.074  0.00  0.00    +0.007 A 
ATOM      8  C   UNL     1       4.496  -4.172   7.536  0.00  0.00    +0.038 C 
ATOM      9  C   UNL     1       5.346  -3.589   8.664  0.00  0.00    +0.024 C 
ATOM     10  C   UNL     1       4.994  -2.106   8.835  0.00  0.00    +0.105 C 
ATOM     11  N   UNL     1       5.356  -1.412   7.592  0.00  0.00    -0.333 N 
ATOM     12  C   UNL     1       6.065  -0.131   7.633  0.00  0.00    +0.129 C 
ENDBRANCH   1   2
BRANCH   1  13
ATOM     13  N   UNL     1       4.942  -3.256   1.570  0.00  0.00    +0.385 N 
ATOM     14  C   UNL     1       6.304  -3.770   1.864  0.00  0.00    -0.078 C 
ATOM     15  C   UNL     1       7.014  -3.700   0.488  0.00  0.00    -0.020 C 
ATOM     16  C   UNL     1       5.893  -4.097  -0.500  0.00  0.00    -0.020 C 
ATOM     17  C   UNL     1       4.578  -3.811   0.248  0.00  0.00    -0.078 C 
ATOM     18  H   UNL     1       4.950  -2.248   1.534  0.00  0.00    -0.081 HD
ENDBRANCH   1  13
BRANCH   1  19
ATOM     19  C   UNL     1       2.576  -3.295   2.203  0.00  0.00    +0.095 C 
BRANCH  19  20
ATOM     20  N   UNL     1       1.617  -3.873   3.148  0.00  0.00    -0.191 NA
ATOM     21  H   UNL     1       1.893  -4.586   3.744  0.00  0.00    +0.148 HD
BRANCH  20  22
ATOM     22  S   UNL     1       0.061  -3.308   3.198  0.00  0.00    +0.059 S 
ATOM     23  O   UNL     1       0.146  -1.891   3.262  0.00  0.00    -0.153 OA
ATOM     24  O   UNL     1      -0.618  -4.075   4.182  0.00  0.00    -0.153 OA
BRANCH  22  29
ATOM     25  C   UNL     1      -2.491  -4.646  -2.103  0.00  0.00    +0.044 C 
ATOM     26  C   UNL     1      -1.854  -4.312  -0.779  0.00  0.00    -0.044 A 
ATOM     27  C   UNL     1      -1.225  -3.094  -0.603  0.00  0.00    -0.043 A 
ATOM     28  C   UNL     1      -0.640  -2.787   0.612  0.00  0.00    -0.021 A 
ATOM     29  C   UNL     1      -0.685  -3.698   1.650  0.00  0.00    +0.112 A 
ATOM     30  C   UNL     1      -1.314  -4.916   1.474  0.00  0.00    -0.021 A 
ATOM     31  C   UNL     1      -1.903  -5.221   0.261  0.00  0.00    -0.043 A 
ATOM     32  C   UNL     1      -2.593  -6.547   0.071  0.00  0.00    +0.044 C 
ATOM     33  C   UNL     1      -1.362  -5.910   2.606  0.00  0.00    +0.046 C 
ATOM     34  C   UNL     1       0.046  -1.459   0.804  0.00  0.00    +0.046 C 
ATOM     35  C   UNL     1      -1.177  -2.100  -1.735  0.00  0.00    +0.044 C 
ENDBRANCH  22  29
ENDBRANCH  20  22
ENDBRANCH  19  20
ENDBRANCH   1  19
TORSDOF 6
