REMARK  Name = ZINC16047906
REMARK  11 active torsions:
REMARK  status: ('A' for Active; 'I' for Inactive)
REMARK    1  A    between atoms: C_1  and  C_2
REMARK    2  A    between atoms: C_2  and  C_3
REMARK    3  A    between atoms: C_3  and  C_4
REMARK    4  A    between atoms: C_3  and  C_6
REMARK    5  A    between atoms: C_4  and  C_5
REMARK    6  A    between atoms: C_12  and  S_14
REMARK    7  A    between atoms: S_14  and  C_15
REMARK    8  A    between atoms: C_15  and  C_16
REMARK    9  A    between atoms: C_20  and  O_23
REMARK   10  A    between atoms: O_23  and  C_24
REMARK   11  A    between atoms: C_24  and  C_26
REMARK                            x       y       z     vdW  Elec       q    Type
REMARK                         _______ _______ _______ _____ _____    ______ ____
ROOT
ATOM      1  C   UNL     1      -9.435   2.316   0.181  0.00  0.00    +0.119 A 
ATOM      2  C   UNL     1      -8.816   3.514   0.191  0.00  0.00    +0.097 A 
ATOM      3  C   UNL     1      -7.399   3.555   0.189  0.00  0.00    +0.227 A 
ATOM      4  O   UNL     1      -6.801   4.620   0.197  0.00  0.00    -0.284 OA
ATOM      5  C   UNL     1      -6.692   2.320   0.176  0.00  0.00    +0.213 A 
ATOM      6  C   UNL     1      -7.394   1.166   0.161  0.00  0.00    +0.245 A 
ATOM      7  O   UNL     1      -8.734   1.177   0.170  0.00  0.00    -0.463 OA
ENDROOT
BRANCH   1   8
ATOM      8  C   UNL     1     -10.941   2.260   0.184  0.00  0.00    +0.150 C 
BRANCH   8   9
ATOM      9  S   UNL     1     -11.549   2.253  -1.525  0.00  0.00    -0.089 S 
BRANCH   9  16
ATOM     10  C   UNL     1     -18.203   1.999  -0.698  0.00  0.00    +0.222 C 
ATOM     11  O   UNL     1     -17.798   2.003   0.445  0.00  0.00    -0.275 OA
ATOM     12  N   UNL     1     -17.328   2.041  -1.723  0.00  0.00    -0.263 N 
ATOM     13  C   UNL     1     -15.960   2.089  -1.469  0.00  0.00    +0.189 A 
ATOM     14  N   UNL     1     -15.309   2.103  -0.317  0.00  0.00    -0.125 NA
ATOM     15  N   UNL     1     -14.050   2.150  -0.262  0.00  0.00    -0.133 NA
ATOM     16  C   UNL     1     -13.301   2.187  -1.354  0.00  0.00    +0.160 A 
ATOM     17  S   UNL     1     -14.580   2.159  -2.607  0.00  0.00    -0.024 S 
ATOM     18  H   UNL     1     -17.652   2.037  -2.637  0.00  0.00    +0.157 HD
BRANCH  10  19
ATOM     19  C   UNL     1     -19.684   1.946  -0.973  0.00  0.00    +0.075 C 
BRANCH  19  21
ATOM     20  C   UNL     1     -19.683  -0.552  -0.957  0.00  0.00    +0.004 C 
ATOM     21  C   UNL     1     -20.007   0.692  -1.787  0.00  0.00    +0.009 C 
ENDBRANCH  19  21
BRANCH  19  22
ATOM     22  C   UNL     1     -20.447   1.906   0.352  0.00  0.00    +0.009 C 
ATOM     23  C   UNL     1     -21.951   1.962   0.076  0.00  0.00    +0.004 C 
ENDBRANCH  19  22
ENDBRANCH  10  19
ENDBRANCH   9  16
ENDBRANCH   8   9
ENDBRANCH   1   8
BRANCH   5  24
ATOM     24  O   UNL     1      -5.331   2.302   0.173  0.00  0.00    -0.413 OA
BRANCH  24  25
ATOM     25  C   UNL     1      -4.715   2.379   1.370  0.00  0.00    +0.380 C 
ATOM     26  O   UNL     1      -5.370   2.553   2.380  0.00  0.00    -0.241 OA
BRANCH  25  27
ATOM     27  C   UNL     1      -3.255   2.252   1.454  0.00  0.00    +0.213 A 
ATOM     28  C   UNL     1      -2.530   2.313   2.601  0.00  0.00    +0.065 A 
ATOM     29  C   UNL     1      -1.133   2.138   2.206  0.00  0.00    +0.021 A 
ATOM     30  C   UNL     1       0.079   2.103   2.901  0.00  0.00    +0.011 A 
ATOM     31  C   UNL     1       1.246   1.913   2.218  0.00  0.00    +0.001 A 
ATOM     32  C   UNL     1       1.237   1.759   0.838  0.00  0.00    +0.004 A 
ATOM     33  C   UNL     1       0.053   1.796   0.133  0.00  0.00    +0.047 A 
ATOM     34  C   UNL     1      -1.147   1.989   0.807  0.00  0.00    +0.136 A 
ATOM     35  O   UNL     1      -2.430   2.068   0.402  0.00  0.00    -0.448 OA
ENDBRANCH  25  27
ENDBRANCH  24  25
ENDBRANCH   5  24
TORSDOF 9
