REMARK  Name = ZINC24841318
REMARK  13 active torsions:
REMARK  status: ('A' for Active; 'I' for Inactive)
REMARK    1  A    between atoms: C_1  and  C_2
REMARK    2  A    between atoms: C_2  and  O_3
REMARK    3  A    between atoms: O_3  and  C_4
REMARK    4  A    between atoms: C_4  and  C_6
REMARK    5  A    between atoms: C_10  and  N_11
REMARK    6  A    between atoms: C_12  and  C_14
REMARK    7  A    between atoms: C_14  and  C_15
REMARK    8  A    between atoms: C_14  and  N_16
REMARK    9  A    between atoms: N_19  and  C_22
REMARK   10  A    between atoms: C_22  and  C_23
REMARK   11  A    between atoms: C_25  and  C_28
REMARK   12  A    between atoms: C_28  and  C_29
REMARK   13  A    between atoms: C_28  and  C_30
REMARK                            x       y       z     vdW  Elec       q    Type
REMARK                         _______ _______ _______ _____ _____    ______ ____
ROOT
ATOM      1  N   UNL     1      -0.604  -2.455  -3.925  0.00  0.00    -0.278 N 
ATOM      2  C   UNL     1      -1.119  -2.783  -5.126  0.00  0.00    +0.235 C 
ATOM      3  O   UNL     1      -0.397  -3.225  -5.995  0.00  0.00    -0.274 OA
ATOM      4  H   UNL     1      -1.181  -2.102  -3.230  0.00  0.00    +0.155 HD
ENDROOT
BRANCH   1   9
ATOM      5  C   UNL     1       1.449  -2.344  -2.516  0.00  0.00    +0.091 A 
ATOM      6  C   UNL     1       2.876  -2.619  -2.515  0.00  0.00    -0.021 A 
ATOM      7  C   UNL     1       3.343  -3.117  -3.680  0.00  0.00    -0.004 A 
ATOM      8  S   UNL     1       1.922  -3.212  -4.730  0.00  0.00    -0.077 S 
ATOM      9  C   UNL     1       0.750  -2.624  -3.681  0.00  0.00    +0.086 A 
ATOM     10  C   UNL     1       4.757  -3.498  -3.993  0.00  0.00    +0.043 C 
ATOM     11  C   UNL     1       5.669  -2.887  -2.920  0.00  0.00    +0.005 C 
ATOM     12  C   UNL     1       5.082  -3.191  -1.538  0.00  0.00    +0.005 C 
ATOM     13  C   UNL     1       3.799  -2.383  -1.329  0.00  0.00    +0.037 C 
BRANCH   5  14
ATOM     14  C   UNL     1       0.776  -1.800  -1.335  0.00  0.00    +0.342 C 
ATOM     15  O   UNL     1       0.312  -2.552  -0.499  0.00  0.00    -0.245 OA
BRANCH  14  16
ATOM     16  O   UNL     1       0.671  -0.465  -1.174  0.00  0.00    -0.461 OA
BRANCH  16  18
ATOM     17  C   UNL     1      -0.019   1.526   0.010  0.00  0.00    +0.048 C 
ATOM     18  C   UNL     1       0.002  -0.004   0.002  0.00  0.00    +0.229 C 
ENDBRANCH  16  18
ENDBRANCH  14  16
ENDBRANCH   5  14
ENDBRANCH   1   9
BRANCH   2  19
ATOM     19  C   UNL     1      -2.591  -2.599  -5.391  0.00  0.00    +0.140 C 
ATOM     20  C   UNL     1      -3.396  -3.444  -4.401  0.00  0.00    +0.034 C 
BRANCH  19  21
ATOM     21  N   UNL     1      -2.899  -3.026  -6.763  0.00  0.00    -0.295 NA
ATOM     22  C   UNL     1      -2.698  -4.473  -6.922  0.00  0.00    +0.066 C 
ATOM     23  C   UNL     1      -2.971  -4.865  -8.376  0.00  0.00    -0.063 C 
ATOM     24  N   UNL     1      -4.349  -4.503  -8.730  0.00  0.00    +0.387 N 
ATOM     25  C   UNL     1      -4.528  -3.052  -8.590  0.00  0.00    -0.063 C 
ATOM     26  C   UNL     1      -4.268  -2.644  -7.138  0.00  0.00    +0.066 C 
ATOM     27  H   UNL     1      -4.991  -4.982  -8.116  0.00  0.00    -0.081 HD
BRANCH  24  28
ATOM     28  C   UNL     1      -4.617  -4.896 -10.120  0.00  0.00    +0.022 C 
BRANCH  28  29
ATOM     29  C   UNL     1      -6.065  -4.638 -10.446  0.00  0.00    +0.211 A 
ATOM     30  N   UNL     1      -6.552  -3.533 -10.939  0.00  0.00    -0.197 NA
ATOM     31  C   UNL     1      -7.875  -3.647 -11.104  0.00  0.00    +0.174 A 
ATOM     32  N   UNL     1      -8.247  -4.833 -10.715  0.00  0.00    -0.061 NA
ATOM     33  O   UNL     1      -7.073  -5.504 -10.283  0.00  0.00    -0.340 OA
BRANCH  31  34
ATOM     34  C   UNL     1      -8.785  -2.578 -11.650  0.00  0.00    +0.054 C 
ATOM     35  C   UNL     1      -9.476  -3.094 -12.914  0.00  0.00    +0.015 C 
ATOM     36  C   UNL     1      -9.840  -2.222 -10.601  0.00  0.00    +0.015 C 
ENDBRANCH  31  34
ENDBRANCH  28  29
ENDBRANCH  24  28
ENDBRANCH  19  21
ENDBRANCH   2  19
TORSDOF 9
