REMARK  Name = ZINC06885702
REMARK  4 active torsions:
REMARK  status: ('A' for Active; 'I' for Inactive)
REMARK    1  A    between atoms: C_4  and  C_7
REMARK    2  A    between atoms: C_10  and  C_12
REMARK    3  A    between atoms: C_25  and  N_29
REMARK    4  A    between atoms: C_26  and  C_27
REMARK                            x       y       z     vdW  Elec       q    Type
REMARK                         _______ _______ _______ _____ _____    ______ ____
ROOT
ATOM      1  C   UNL     1      -0.013   1.086   0.008  0.00  0.00    +0.141 C 
ATOM      2  C   UNL     1      -0.735   1.581  -1.215  0.00  0.00    +0.092 A 
ATOM      3  C   UNL     1      -0.486   0.982  -2.464  0.00  0.00    +0.260 A 
ATOM      4  O   UNL     1       0.310   0.064  -2.557  0.00  0.00    -0.267 OA
ATOM      5  N   UNL     1      -1.136   1.430  -3.557  0.00  0.00    -0.302 N 
ATOM      6  H   UNL     1      -0.968   1.020  -4.420  0.00  0.00    +0.171 HD
ATOM      7  C   UNL     1      -2.016   2.443  -3.458  0.00  0.00    +0.161 A 
ATOM      8  S   UNL     1      -2.828   2.995  -4.860  0.00  0.00    -0.013 S 
ATOM      9  N   UNL     1      -2.268   3.029  -2.273  0.00  0.00    -0.306 N 
ATOM     10  H   UNL     1      -2.926   3.780  -2.221  0.00  0.00    +0.171 HD
ATOM     11  C   UNL     1      -1.628   2.603  -1.134  0.00  0.00    +0.212 A 
ATOM     12  O   UNL     1      -1.895   3.205   0.041  0.00  0.00    -0.425 OA
ATOM     13  C   UNL     1      -1.599   2.588   1.198  0.00  0.00    +0.200 C 
ATOM     14  C   UNL     1      -0.711   1.568   1.249  0.00  0.00    +0.101 C 
ENDROOT
BRANCH   1  18
ATOM     15  C   UNL     1       3.105   2.990  -0.010  0.00  0.00    +0.135 A 
ATOM     16  C   UNL     1       3.615   1.730  -0.022  0.00  0.00    +0.050 A 
ATOM     17  C   UNL     1       2.517   0.848  -0.012  0.00  0.00    +0.046 A 
ATOM     18  C   UNL     1       1.402   1.605  -0.003  0.00  0.00    +0.119 A 
ATOM     19  O   UNL     1       1.762   2.899   0.001  0.00  0.00    -0.459 OA
BRANCH  15  23
ATOM     20  C   UNL     1       5.358   6.591  -0.012  0.00  0.00    +0.000 A 
ATOM     21  C   UNL     1       3.975   6.643   0.001  0.00  0.00    +0.001 A 
ATOM     22  C   UNL     1       3.238   5.478   0.002  0.00  0.00    +0.011 A 
ATOM     23  C   UNL     1       3.889   4.243  -0.011  0.00  0.00    +0.017 A 
ATOM     24  C   UNL     1       5.284   4.197  -0.019  0.00  0.00    +0.011 A 
ATOM     25  C   UNL     1       6.010   5.370  -0.024  0.00  0.00    +0.001 A 
ENDBRANCH  15  23
ENDBRANCH   1  18
BRANCH  13  26
ATOM     26  N   UNL     1      -2.215   3.000   2.353  0.00  0.00    -0.328 N 
ATOM     27  H   UNL     1      -2.855   3.729   2.328  0.00  0.00    +0.145 HD
ATOM     28  H   UNL     1      -2.010   2.562   3.194  0.00  0.00    +0.145 HD
ENDBRANCH  13  26
BRANCH  14  29
ATOM     29  C   UNL     1      -0.432   0.942   2.506  0.00  0.00    +0.101 C 
ATOM     30  N   UNL     1      -0.210   0.445   3.503  0.00  0.00    -0.191 NA
ENDBRANCH  14  29
TORSDOF 4
