REMARK  Name = ZINC22344955
REMARK  13 active torsions:
REMARK  status: ('A' for Active; 'I' for Inactive)
REMARK    1  A    between atoms: C_1  and  C_2
REMARK    2  A    between atoms: C_2  and  O_3
REMARK    3  A    between atoms: O_3  and  C_4
REMARK    4  A    between atoms: C_7  and  S_10
REMARK    5  A    between atoms: S_10  and  N_13
REMARK    6  A    between atoms: N_13  and  C_14
REMARK    7  A    between atoms: N_13  and  C_32
REMARK    8  A    between atoms: C_14  and  C_15
REMARK    9  A    between atoms: N_17  and  C_18
REMARK   10  A    between atoms: C_18  and  C_20
REMARK   11  A    between atoms: C_18  and  C_21
REMARK   12  A    between atoms: C_24  and  N_27
REMARK   13  A    between atoms: C_35  and  C_38
REMARK                            x       y       z     vdW  Elec       q    Type
REMARK                         _______ _______ _______ _____ _____    ______ ____
ROOT
ATOM      1  N   UNL     1      -6.132   0.916   3.061  0.00  0.00    -0.194 N 
ENDROOT
BRANCH   1   2
ATOM      2  C   UNL     1      -7.146   0.978   2.102  0.00  0.00    +0.052 A 
ATOM      3  C   UNL     1      -8.457   0.683   2.454  0.00  0.00    +0.025 A 
ATOM      4  C   UNL     1      -9.457   0.750   1.504  0.00  0.00    +0.005 A 
ATOM      5  C   UNL     1      -9.153   1.100   0.201  0.00  0.00    -0.050 A 
ATOM      6  C   UNL     1      -7.848   1.389  -0.154  0.00  0.00    +0.005 A 
ATOM      7  C   UNL     1      -6.844   1.329   0.792  0.00  0.00    +0.025 A 
ATOM      8  C   UNL     1     -10.246   1.167  -0.834  0.00  0.00    +0.044 C 
ENDBRANCH   1   2
BRANCH   1   9
ATOM      9  S   UNL     1      -6.295  -0.079   4.375  0.00  0.00    +0.075 S 
ATOM     10  O   UNL     1      -7.260  -1.062   4.022  0.00  0.00    -0.150 OA
ATOM     11  O   UNL     1      -4.980  -0.419   4.793  0.00  0.00    -0.150 OA
BRANCH   9  15
ATOM     12  C   UNL     1      -8.117   2.387   7.707  0.00  0.00    +0.121 A 
ATOM     13  C   UNL     1      -8.928   1.603   6.899  0.00  0.00    +0.047 A 
ATOM     14  C   UNL     1      -8.370   0.852   5.884  0.00  0.00    +0.032 A 
ATOM     15  C   UNL     1      -7.004   0.880   5.671  0.00  0.00    +0.109 A 
ATOM     16  C   UNL     1      -6.193   1.656   6.478  0.00  0.00    +0.032 A 
ATOM     17  C   UNL     1      -6.746   2.414   7.492  0.00  0.00    +0.047 A 
BRANCH  12  18
ATOM     18  O   UNL     1      -8.663   3.128   8.707  0.00  0.00    -0.492 OA
BRANCH  18  20
ATOM     19  C   UNL     1      -8.560   4.670  10.565  0.00  0.00    +0.048 C 
ATOM     20  C   UNL     1      -7.768   3.911   9.498  0.00  0.00    +0.225 C 
ENDBRANCH  18  20
ENDBRANCH  12  18
ENDBRANCH   9  15
ENDBRANCH   1   9
BRANCH   1  21
ATOM     21  C   UNL     1      -4.925   1.732   2.906  0.00  0.00    +0.227 C 
BRANCH  21  22
ATOM     22  C   UNL     1      -3.939   1.007   2.027  0.00  0.00    +0.233 C 
ATOM     23  O   UNL     1      -4.217  -0.084   1.575  0.00  0.00    -0.274 OA
ATOM     24  N   UNL     1      -2.748   1.571   1.743  0.00  0.00    -0.307 N 
ATOM     25  H   UNL     1      -2.496   2.560   2.153  0.00  0.00    +0.149 HD
BRANCH  24  26
ATOM     26  C   UNL     1      -1.789   0.866   0.888  0.00  0.00    +0.100 C 
ATOM     27  C   UNL     1      -2.109   1.152  -0.580  0.00  0.00    +0.033 C 
BRANCH  26  28
ATOM     28  C   UNL     1      -0.394   1.342   1.200  0.00  0.00    -0.027 A 
ATOM     29  C   UNL     1       0.651   0.437   1.241  0.00  0.00    +0.007 A 
ATOM     30  C   UNL     1       1.932   0.871   1.520  0.00  0.00    +0.023 A 
ATOM     31  C   UNL     1       2.169   2.217   1.766  0.00  0.00    +0.030 A 
ATOM     32  C   UNL     1       1.117   3.123   1.731  0.00  0.00    +0.023 A 
ATOM     33  C   UNL     1      -0.162   2.682   1.451  0.00  0.00    +0.007 A 
BRANCH  31  34
ATOM     34  N   UNL     1       3.464   2.659   2.049  0.00  0.00    -0.330 N 
ATOM     35  C   UNL     1       3.974   2.046   3.302  0.00  0.00    +0.105 C 
ATOM     36  C   UNL     1       5.510   2.205   3.174  0.00  0.00    +0.020 C 
ATOM     37  C   UNL     1       5.758   1.964   1.667  0.00  0.00    +0.020 C 
ATOM     38  C   UNL     1       4.407   2.251   0.986  0.00  0.00    +0.105 C 
ENDBRANCH  31  34
ENDBRANCH  26  28
ENDBRANCH  24  26
ENDBRANCH  21  22
ENDBRANCH   1  21
TORSDOF 10
