REMARK  Name = ZINC06244844
REMARK  6 active torsions:
REMARK  status: ('A' for Active; 'I' for Inactive)
REMARK    1  A    between atoms: C_3  and  S_28
REMARK    2  A    between atoms: C_6  and  C_7
REMARK    3  A    between atoms: C_7  and  N_8
REMARK    4  A    between atoms: C_9  and  C_11
REMARK    5  A    between atoms: C_13  and  C_22
REMARK    6  A    between atoms: S_28  and  N_31
REMARK                            x       y       z     vdW  Elec       q    Type
REMARK                         _______ _______ _______ _____ _____    ______ ____
ROOT
ATOM      1  N   UNL     1      -0.711   1.586  -1.179  0.00  0.00    -0.307 N 
ATOM      2  C   UNL     1      -0.268   1.258  -2.409  0.00  0.00    +0.245 C 
ATOM      3  O   UNL     1       0.719   0.560  -2.534  0.00  0.00    -0.270 OA
ATOM      4  H   UNL     1      -1.499   2.143  -1.079  0.00  0.00    +0.149 HD
ENDROOT
BRANCH   2   5
ATOM      5  C   UNL     1      -0.983   1.748  -3.607  0.00  0.00    +0.048 A 
ATOM      6  C   UNL     1      -2.178   2.443  -3.493  0.00  0.00    +0.042 A 
ATOM      7  C   UNL     1      -2.829   2.894  -4.651  0.00  0.00    +0.072 A 
ATOM      8  N   UNL     1      -2.333   2.673  -5.852  0.00  0.00    -0.247 NA
ATOM      9  C   UNL     1      -1.189   2.011  -6.029  0.00  0.00    +0.072 A 
ATOM     10  C   UNL     1      -0.466   1.527  -4.910  0.00  0.00    +0.014 A 
ATOM     11  C   UNL     1       0.732   0.829  -5.107  0.00  0.00    +0.030 A 
ATOM     12  C   UNL     1       1.197   0.630  -6.373  0.00  0.00    +0.042 A 
ATOM     13  C   UNL     1       0.492   1.109  -7.477  0.00  0.00    +0.022 A 
ATOM     14  C   UNL     1      -0.678   1.786  -7.322  0.00  0.00    +0.030 A 
ATOM     15 CL   UNL     1       2.686  -0.230  -6.615  0.00  0.00    -0.084 Cl
BRANCH   7  16
ATOM     16  C   UNL     1      -4.106   3.637  -4.521  0.00  0.00    +0.003 A 
ATOM     17  C   UNL     1      -4.666   3.886  -3.265  0.00  0.00    +0.030 A 
ATOM     18  C   UNL     1      -5.854   4.585  -3.189  0.00  0.00    +0.111 A 
ATOM     19  N   UNL     1      -6.463   5.007  -4.280  0.00  0.00    -0.263 NA
ATOM     20  C   UNL     1      -5.970   4.789  -5.484  0.00  0.00    +0.111 A 
ATOM     21  C   UNL     1      -4.785   4.102  -5.651  0.00  0.00    +0.030 A 
ENDBRANCH   7  16
ENDBRANCH   2   5
BRANCH   1  22
ATOM     22  C   UNL     1      -0.003   1.101   0.008  0.00  0.00    +0.139 C 
BRANCH  22  28
ATOM     23  C   UNL     1      -0.319   2.811   1.808  0.00  0.00    +0.007 A 
ATOM     24  C   UNL     1      -0.958   3.275   2.942  0.00  0.00    +0.029 A 
ATOM     25  C   UNL     1      -1.966   2.529   3.522  0.00  0.00    +0.105 A 
ATOM     26  C   UNL     1      -2.339   1.319   2.965  0.00  0.00    +0.029 A 
ATOM     27  C   UNL     1      -1.703   0.857   1.828  0.00  0.00    +0.007 A 
ATOM     28  C   UNL     1      -0.695   1.604   1.248  0.00  0.00    -0.030 A 
BRANCH  25  29
ATOM     29  S   UNL     1      -2.777   3.118   4.971  0.00  0.00    +0.056 S 
ATOM     30  O   UNL     1      -2.618   4.530   4.980  0.00  0.00    -0.153 OA
ATOM     31  O   UNL     1      -4.054   2.496   5.003  0.00  0.00    -0.153 OA
BRANCH  29  32
ATOM     32  N   UNL     1      -1.935   2.539   6.274  0.00  0.00    -0.204 NA
ATOM     33  H   UNL     1      -1.152   1.984   6.137  0.00  0.00    +0.144 HD
ATOM     34  H   UNL     1      -2.226   2.754   7.174  0.00  0.00    +0.144 HD
ENDBRANCH  29  32
ENDBRANCH  25  29
ENDBRANCH  22  28
ENDBRANCH   1  22
TORSDOF 6
