REMARK  Name = ZINC00743796
REMARK  15 active torsions:
REMARK  status: ('A' for Active; 'I' for Inactive)
REMARK    1  A    between atoms: C_1  and  C_2
REMARK    2  A    between atoms: C_2  and  C_3
REMARK    3  A    between atoms: C_2  and  C_4
REMARK    4  A    between atoms: C_4  and  N_5
REMARK    5  A    between atoms: N_5  and  C_6
REMARK    6  A    between atoms: C_6  and  C_7
REMARK    7  A    between atoms: N_9  and  C_10
REMARK    8  A    between atoms: C_12  and  C_16
REMARK    9  A    between atoms: N_14  and  C_15
REMARK   10  A    between atoms: C_16  and  C_17
REMARK   11  A    between atoms: C_16  and  C_18
REMARK   12  A    between atoms: C_16  and  C_19
REMARK   13  A    between atoms: C_20  and  C_22
REMARK   14  A    between atoms: C_24  and  C_32
REMARK   15  A    between atoms: C_26  and  C_28
REMARK                            x       y       z     vdW  Elec       q    Type
REMARK                         _______ _______ _______ _____ _____    ______ ____
ROOT
ATOM      1  N   UNL     1       6.879  -1.651  -0.024  0.00  0.00    -0.288 N 
ATOM      2  C   UNL     1       6.591  -2.430   1.037  0.00  0.00    +0.247 C 
ATOM      3  O   UNL     1       6.539  -3.638   0.909  0.00  0.00    -0.270 OA
ENDROOT
BRANCH   2   4
ATOM      4  C   UNL     1       6.338  -1.816   2.358  0.00  0.00    +0.038 A 
ATOM      5  C   UNL     1       5.828  -0.519   2.442  0.00  0.00    +0.025 A 
ATOM      6  C   UNL     1       5.589   0.046   3.677  0.00  0.00    +0.056 A 
ATOM      7  C   UNL     1       5.864  -0.665   4.832  0.00  0.00    +0.024 A 
ATOM      8  C   UNL     1       6.375  -1.948   4.756  0.00  0.00    +0.056 A 
ATOM      9  C   UNL     1       6.613  -2.528   3.526  0.00  0.00    +0.025 A 
BRANCH   8  10
ATOM     10  C   UNL     1       6.671  -2.715   6.019  0.00  0.00    +0.417 C 
ATOM     11  F   UNL     1       7.989  -2.466   6.417  0.00  0.00    -0.166 F 
ATOM     12  F   UNL     1       5.793  -2.308   7.029  0.00  0.00    -0.166 F 
ATOM     13  F   UNL     1       6.507  -4.084   5.782  0.00  0.00    -0.166 F 
ENDBRANCH   8  10
BRANCH   6  14
ATOM     14  C   UNL     1       5.033   1.444   3.769  0.00  0.00    +0.417 C 
ATOM     15  F   UNL     1       4.883   1.798   5.114  0.00  0.00    -0.166 F 
ATOM     16  F   UNL     1       5.912   2.337   3.147  0.00  0.00    -0.166 F 
ATOM     17  F   UNL     1       3.789   1.494   3.132  0.00  0.00    -0.166 F 
ENDBRANCH   6  14
ENDBRANCH   2   4
BRANCH   1  18
ATOM     18  C   UNL     1       7.060  -2.254  -1.347  0.00  0.00    +0.111 C 
BRANCH  18  20
ATOM     19  C   UNL     1       8.650  -3.502  -2.815  0.00  0.00    +0.009 C 
ATOM     20  C   UNL     1       8.496  -2.763  -1.485  0.00  0.00    +0.000 C 
ATOM     21  C   UNL     1       9.463  -1.578  -1.444  0.00  0.00    +0.009 C 
ENDBRANCH  18  20
ENDBRANCH   1  18
BRANCH   1  22
ATOM     22  C   UNL     1       7.012  -0.202   0.145  0.00  0.00    +0.204 C 
BRANCH  22  23
ATOM     23  C   UNL     1       5.799   0.484  -0.428  0.00  0.00    +0.236 C 
ATOM     24  O   UNL     1       4.910  -0.173  -0.928  0.00  0.00    -0.274 OA
ATOM     25  N   UNL     1       5.701   1.827  -0.384  0.00  0.00    -0.269 N 
ATOM     26  H   UNL     1       6.507   2.423   0.070  0.00  0.00    +0.156 HD
BRANCH  25  27
ATOM     27  C   UNL     1       4.578   2.462  -0.914  0.00  0.00    +0.123 A 
ATOM     28  C   UNL     1       3.512   1.853  -1.501  0.00  0.00    +0.069 A 
ATOM     29  C   UNL     1       2.612   2.848  -1.892  0.00  0.00    +0.070 A 
ATOM     30  N   UNL     1       3.112   4.010  -1.556  0.00  0.00    -0.174 NA
ATOM     31  N   UNL     1       4.350   3.795  -0.938  0.00  0.00    -0.253 N 
ATOM     32  C   UNL     1       5.242   4.832  -0.410  0.00  0.00    +0.174 C 
BRANCH  29  33
ATOM     33  C   UNL     1       1.292   2.623  -2.582  0.00  0.00    +0.006 C 
ATOM     34  C   UNL     1       0.272   2.092  -1.572  0.00  0.00    +0.017 C 
ATOM     35  C   UNL     1       0.789   3.944  -3.167  0.00  0.00    +0.017 C 
ATOM     36  C   UNL     1       1.472   1.602  -3.708  0.00  0.00    +0.017 C 
ENDBRANCH  29  33
ENDBRANCH  25  27
ENDBRANCH  22  23
ENDBRANCH   1  22
TORSDOF 9
