REMARK  Name = ZINC36249689
REMARK  15 active torsions:
REMARK  status: ('A' for Active; 'I' for Inactive)
REMARK    1  A    between atoms: C_1  and  C_2
REMARK    2  A    between atoms: C_2  and  C_3
REMARK    3  A    between atoms: C_3  and  C_5
REMARK    4  A    between atoms: C_3  and  N_6
REMARK    5  A    between atoms: N_6  and  C_7
REMARK    6  A    between atoms: N_6  and  C_26
REMARK    7  A    between atoms: C_7  and  C_8
REMARK    8  A    between atoms: C_9  and  C_19
REMARK    9  A    between atoms: C_12  and  N_13
REMARK   10  A    between atoms: C_26  and  C_27
REMARK   11  A    between atoms: C_27  and  C_29
REMARK   12  A    between atoms: C_27  and  O_38
REMARK   13  A    between atoms: C_29  and  O_30
REMARK   14  A    between atoms: O_30  and  C_31
REMARK   15  A    between atoms: C_31  and  C_32
REMARK                            x       y       z     vdW  Elec       q    Type
REMARK                         _______ _______ _______ _____ _____    ______ ____
ROOT
ATOM      1  N   UNL     1       2.166  -0.314  -1.294  0.00  0.00    +0.386 N 
ATOM      2  H   UNL     1       2.623  -0.616  -0.447  0.00  0.00    -0.081 HD
ENDROOT
BRANCH   1   3
ATOM      3  C   UNL     1       0.776  -0.791  -1.296  0.00  0.00    -0.071 C 
ATOM      4  C   UNL     1       0.145  -0.518  -2.663  0.00  0.00    -0.013 C 
BRANCH   3   6
ATOM      5  C   UNL     1       1.293  -2.560   0.391  0.00  0.00    +0.002 C 
ATOM      6  C   UNL     1       0.754  -2.295  -1.016  0.00  0.00    -0.019 C 
ENDBRANCH   3   6
ENDBRANCH   1   3
BRANCH   1   7
ATOM      7  C   UNL     1       2.874  -0.863  -2.457  0.00  0.00    -0.035 C 
BRANCH   7   8
ATOM      8  C   UNL     1       3.291  -2.282  -2.168  0.00  0.00    +0.025 A 
ATOM      9  C   UNL     1       4.167  -2.697  -1.142  0.00  0.00    +0.117 A 
ATOM     10  N   UNL     1       4.280  -4.003  -1.211  0.00  0.00    -0.076 NA
ATOM     11  O   UNL     1       3.477  -4.457  -2.286  0.00  0.00    -0.339 OA
ATOM     12  C   UNL     1       2.885  -3.387  -2.843  0.00  0.00    +0.222 A 
BRANCH   9  13
ATOM     13  C   UNL     1       4.841  -1.812  -0.160  0.00  0.00    +0.004 A 
ATOM     14  C   UNL     1       5.380  -0.595  -0.570  0.00  0.00    +0.013 A 
ATOM     15  C   UNL     1       6.006   0.225   0.346  0.00  0.00    +0.039 A 
ATOM     16  C   UNL     1       6.100  -0.162   1.674  0.00  0.00    +0.123 A 
ATOM     17  C   UNL     1       5.566  -1.373   2.086  0.00  0.00    +0.039 A 
ATOM     18  C   UNL     1       4.933  -2.195   1.177  0.00  0.00    +0.013 A 
ATOM     19  F   UNL     1       6.714   0.643   2.568  0.00  0.00    -0.205 F 
ENDBRANCH   9  13
BRANCH  12  20
ATOM     20  N   UNL     1       2.016  -3.407  -3.919  0.00  0.00    -0.295 N 
ATOM     21  C   UNL     1       2.487  -3.096  -5.279  0.00  0.00    +0.136 C 
ATOM     22  C   UNL     1       2.020  -4.214  -6.219  0.00  0.00    +0.179 C 
ATOM     23  O   UNL     1       0.612  -4.404  -6.062  0.00  0.00    -0.377 OA
ATOM     24  C   UNL     1       0.221  -4.827  -4.754  0.00  0.00    +0.179 C 
ATOM     25  C   UNL     1       0.596  -3.747  -3.740  0.00  0.00    +0.136 C 
ENDBRANCH  12  20
ENDBRANCH   7   8
ENDBRANCH   1   7
BRANCH   1  26
ATOM     26  C   UNL     1       2.179   1.154  -1.360  0.00  0.00    -0.044 C 
BRANCH  26  27
ATOM     27  C   UNL     1       1.622   1.728  -0.056  0.00  0.00    +0.124 C 
BRANCH  27  28
ATOM     28  O   UNL     1       0.219   1.468   0.018  0.00  0.00    -0.391 OA
ATOM     29  H   UNL     1      -0.285   1.810  -0.733  0.00  0.00    +0.210 HD
ENDBRANCH  27  28
BRANCH  27  30
ATOM     30  C   UNL     1       1.863   3.239  -0.021  0.00  0.00    +0.189 C 
BRANCH  30  31
ATOM     31  O   UNL     1       1.449   3.758   1.245  0.00  0.00    -0.373 OA
BRANCH  31  32
ATOM     32  C   UNL     1       1.633   5.168   1.383  0.00  0.00    +0.195 C 
BRANCH  32  33
ATOM     33  C   UNL     1       1.165   5.604   2.748  0.00  0.00    -0.022 A 
ATOM     34  C   UNL     1      -0.150   5.985   2.939  0.00  0.00    +0.006 A 
ATOM     35  C   UNL     1      -0.578   6.385   4.191  0.00  0.00    +0.000 A 
ATOM     36  C   UNL     1       0.308   6.404   5.252  0.00  0.00    +0.000 A 
ATOM     37  C   UNL     1       1.623   6.022   5.060  0.00  0.00    +0.000 A 
ATOM     38  C   UNL     1       2.050   5.618   3.809  0.00  0.00    +0.006 A 
ENDBRANCH  32  33
ENDBRANCH  31  32
ENDBRANCH  30  31
ENDBRANCH  27  30
ENDBRANCH  26  27
ENDBRANCH   1  26
TORSDOF 13
