REMARK  Name = ZINC39387753
REMARK  7 active torsions:
REMARK  status: ('A' for Active; 'I' for Inactive)
REMARK    1  A    between atoms: C_4  and  C_7
REMARK    2  A    between atoms: C_7  and  C_12
REMARK    3  A    between atoms: C_12  and  N_13
REMARK    4  A    between atoms: C_14  and  C_16
REMARK    5  A    between atoms: N_22  and  C_25
REMARK    6  A    between atoms: C_25  and  C_26
REMARK    7  A    between atoms: C_31  and  C_32
REMARK                            x       y       z     vdW  Elec       q    Type
REMARK                         _______ _______ _______ _____ _____    ______ ____
ROOT
ATOM      1  C   UNL     1       5.391   3.069  -2.284  0.00  0.00    +0.082 C 
ATOM      2  C   UNL     1       4.578   3.825  -3.338  0.00  0.00    +0.020 C 
ATOM      3  C   UNL     1       6.082   3.629  -3.526  0.00  0.00    -0.021 C 
ATOM      4  C   UNL     1       6.990   4.850  -3.349  0.00  0.00    -0.011 C 
ATOM      5  C   UNL     1       8.433   4.364  -3.175  0.00  0.00    -0.078 C 
ATOM      6  N   UNL     1       8.812   3.533  -4.323  0.00  0.00    +0.380 N 
ATOM      7  C   UNL     1       8.020   2.297  -4.338  0.00  0.00    -0.078 C 
ATOM      8  C   UNL     1       6.548   2.635  -4.595  0.00  0.00    -0.011 C 
ATOM      9  H   UNL     1       8.647   4.046  -5.176  0.00  0.00    -0.082 HD
ENDROOT
BRANCH   1  11
ATOM     10  N   UNL     1       6.168   0.808  -1.652  0.00  0.00    -0.314 N 
ATOM     11  C   UNL     1       5.208   1.575  -2.204  0.00  0.00    +0.217 C 
ATOM     12  O   UNL     1       4.197   1.064  -2.636  0.00  0.00    -0.275 OA
ATOM     13  H   UNL     1       6.977   1.217  -1.306  0.00  0.00    +0.149 HD
BRANCH  10  14
ATOM     14  C   UNL     1       5.991  -0.644  -1.573  0.00  0.00    +0.115 C 
BRANCH  14  15
ATOM     15  C   UNL     1       7.166  -1.262  -0.813  0.00  0.00    +0.011 C 
ATOM     16  C   UNL     1       8.492  -0.895  -1.502  0.00  0.00    +0.013 C 
ATOM     17  C   UNL     1       9.151  -2.223  -1.927  0.00  0.00    +0.001 C 
ATOM     18  C   UNL     1       7.968  -3.217  -2.031  0.00  0.00    +0.001 C 
ATOM     19  C   UNL     1       7.065  -2.801  -0.843  0.00  0.00    +0.013 C 
BRANCH  15  23
ATOM     20  C   UNL     1       7.186   0.127   3.227  0.00  0.00    +0.000 A 
ATOM     21  C   UNL     1       8.238  -0.634   2.752  0.00  0.00    +0.000 A 
ATOM     22  C   UNL     1       8.232  -1.083   1.445  0.00  0.00    +0.004 A 
ATOM     23  C   UNL     1       7.173  -0.773   0.612  0.00  0.00    -0.040 A 
ATOM     24  C   UNL     1       6.120  -0.013   1.087  0.00  0.00    +0.004 A 
ATOM     25  C   UNL     1       6.127   0.438   2.394  0.00  0.00    +0.000 A 
ENDBRANCH  15  23
ENDBRANCH  14  15
ENDBRANCH  10  14
ENDBRANCH   1  11
BRANCH   6  26
ATOM     26  C   UNL     1      10.239   3.195  -4.230  0.00  0.00    -0.063 C 
BRANCH  26  27
ATOM     27  C   UNL     1      10.666   2.435  -5.487  0.00  0.00    +0.066 C 
ATOM     28  C   UNL     1      10.642   3.347  -6.697  0.00  0.00    +0.115 C 
ATOM     29  N   UNL     1      11.857   3.389  -7.139  0.00  0.00    -0.161 NA
ATOM     30  N   UNL     1      12.727   2.614  -6.380  0.00  0.00    -0.153 NA
ATOM     31  C   UNL     1      12.119   2.014  -5.389  0.00  0.00    +0.077 C 
BRANCH  31  32
ATOM     32  C   UNL     1      12.718   1.119  -4.387  0.00  0.00    -0.001 A 
ATOM     33  C   UNL     1      11.921   0.551  -3.387  0.00  0.00    +0.012 A 
ATOM     34  C   UNL     1      12.489  -0.286  -2.451  0.00  0.00    +0.039 A 
ATOM     35  C   UNL     1      13.846  -0.567  -2.499  0.00  0.00    +0.123 A 
ATOM     36  C   UNL     1      14.641  -0.008  -3.488  0.00  0.00    +0.039 A 
ATOM     37  C   UNL     1      14.085   0.827  -4.433  0.00  0.00    +0.012 A 
ATOM     38  F   UNL     1      14.396  -1.389  -1.579  0.00  0.00    -0.205 F 
ENDBRANCH  31  32
ENDBRANCH  26  27
ENDBRANCH   6  26
TORSDOF 7
