REMARK  Name = ZINC20726987
REMARK  13 active torsions:
REMARK  status: ('A' for Active; 'I' for Inactive)
REMARK    1  A    between atoms: C_1  and  C_2
REMARK    2  A    between atoms: C_2  and  C_3
REMARK    3  A    between atoms: C_3  and  C_4
REMARK    4  A    between atoms: C_4  and  N_5
REMARK    5  A    between atoms: N_5  and  C_6
REMARK    6  A    between atoms: N_5  and  C_31
REMARK    7  A    between atoms: C_6  and  C_7
REMARK    8  A    between atoms: C_7  and  C_8
REMARK    9  A    between atoms: C_8  and  N_9
REMARK   10  A    between atoms: C_10  and  C_12
REMARK   11  A    between atoms: C_12  and  N_13
REMARK   12  A    between atoms: C_22  and  C_23
REMARK   13  A    between atoms: C_31  and  C_32
REMARK                            x       y       z     vdW  Elec       q    Type
REMARK                         _______ _______ _______ _____ _____    ______ ____
ROOT
ATOM      1  N   UNL     1       5.126  -0.977  -0.170  0.00  0.00    -0.314 N 
ATOM      2  C   UNL     1       4.077  -0.355   0.403  0.00  0.00    +0.231 C 
ATOM      3  O   UNL     1       3.137  -0.000  -0.277  0.00  0.00    -0.274 OA
ATOM      4  H   UNL     1       5.978  -1.299   0.447  0.00  0.00    +0.149 HD
ENDROOT
BRANCH   1   5
ATOM      5  C   UNL     1       5.131  -1.226  -1.613  0.00  0.00    +0.102 C 
BRANCH   5   6
ATOM      6  C   UNL     1       6.427  -1.941  -2.003  0.00  0.00    +0.000 C 
BRANCH   6   7
ATOM      7  C   UNL     1       6.433  -2.200  -3.511  0.00  0.00    -0.077 C 
BRANCH   7   8
ATOM      8  N   UNL     1       7.677  -2.887  -3.885  0.00  0.00    +0.382 N 
ATOM      9  H   UNL     1       8.518  -2.306  -3.479  0.00  0.00    -0.081 HD
BRANCH   8  10
ATOM     10  C   UNL     1       7.732  -4.232  -3.298  0.00  0.00    -0.078 C 
BRANCH  10  11
ATOM     11  C   UNL     1       9.167  -4.759  -3.367  0.00  0.00    -0.019 C 
BRANCH  11  13
ATOM     12  C   UNL     1      10.646  -6.718  -2.896  0.00  0.00    +0.004 C 
ATOM     13  C   UNL     1       9.211  -6.190  -2.827  0.00  0.00    -0.005 C 
ENDBRANCH  11  13
ENDBRANCH  10  11
ENDBRANCH   8  10
BRANCH   8  14
ATOM     14  C   UNL     1       7.829  -2.942  -5.345  0.00  0.00    -0.043 C 
BRANCH  14  15
ATOM     15  C   UNL     1       8.250  -1.589  -5.858  0.00  0.00    -0.064 A 
ATOM     16  C   UNL     1       7.301  -0.709  -6.344  0.00  0.00    +0.002 A 
ATOM     17  C   UNL     1       7.687   0.534  -6.811  0.00  0.00    +0.000 A 
ATOM     18  C   UNL     1       9.022   0.893  -6.799  0.00  0.00    +0.000 A 
ATOM     19  C   UNL     1       9.971   0.011  -6.318  0.00  0.00    +0.000 A 
ATOM     20  C   UNL     1       9.585  -1.230  -5.847  0.00  0.00    +0.002 A 
ENDBRANCH  14  15
ENDBRANCH   8  14
ENDBRANCH   7   8
ENDBRANCH   6   7
ENDBRANCH   5   6
ENDBRANCH   1   5
BRANCH   2  21
ATOM     21  C   UNL     1       4.071  -0.099   1.888  0.00  0.00    +0.209 C 
BRANCH  21  22
ATOM     22  N   UNL     1       2.831   0.586   2.261  0.00  0.00    -0.257 N 
ATOM     23  C   UNL     1       2.852   1.974   2.233  0.00  0.00    +0.051 A 
ATOM     24  C   UNL     1       3.834   2.609   1.474  0.00  0.00    +0.024 A 
ATOM     25  C   UNL     1       3.891   3.986   1.416  0.00  0.00    +0.002 A 
ATOM     26  C   UNL     1       2.975   4.757   2.110  0.00  0.00    +0.001 A 
ATOM     27  C   UNL     1       1.996   4.144   2.868  0.00  0.00    +0.017 A 
ATOM     28  C   UNL     1       1.934   2.761   2.931  0.00  0.00    +0.034 A 
ATOM     29  S   UNL     1       0.684   1.977   3.904  0.00  0.00    -0.082 S 
ATOM     30  C   UNL     1       0.533   0.410   3.081  0.00  0.00    +0.076 C 
ATOM     31  C   UNL     1      -0.664  -0.201   2.912  0.00  0.00    +0.028 C 
ATOM     32  C   UNL     1       1.795  -0.190   2.593  0.00  0.00    +0.258 C 
ATOM     33  O   UNL     1       1.888  -1.398   2.490  0.00  0.00    -0.269 OA
BRANCH  31  34
ATOM     34  C   UNL     1      -1.870   0.353   3.546  0.00  0.00    -0.024 A 
ATOM     35  C   UNL     1      -3.119   0.203   2.933  0.00  0.00    +0.008 A 
ATOM     36  C   UNL     1      -4.245   0.721   3.537  0.00  0.00    +0.001 A 
ATOM     37  C   UNL     1      -4.140   1.398   4.740  0.00  0.00    +0.000 A 
ATOM     38  C   UNL     1      -2.908   1.556   5.349  0.00  0.00    +0.001 A 
ATOM     39  C   UNL     1      -1.773   1.039   4.761  0.00  0.00    +0.008 A 
ENDBRANCH  31  34
ENDBRANCH  21  22
ENDBRANCH   2  21
TORSDOF 12
