REMARK  Name = ZINC58279616
REMARK  7 active torsions:
REMARK  status: ('A' for Active; 'I' for Inactive)
REMARK    1  A    between atoms: C_1  and  C_2
REMARK    2  A    between atoms: C_5  and  C_9
REMARK    3  A    between atoms: C_6  and  C_8
REMARK    4  A    between atoms: C_14  and  N_18
REMARK    5  A    between atoms: N_18  and  CA_19
REMARK    6  A    between atoms: CA_19  and  CB_21
REMARK    7  A    between atoms: CA_19  and  C_22
REMARK                            x       y       z     vdW  Elec       q    Type
REMARK                         _______ _______ _______ _____ _____    ______ ____
ROOT
ATOM      1  C   UNK A   0      -0.228  -4.265  -0.422  0.00  0.00    +0.002 A 
ATOM      2  C   UNK A   0       0.678  -4.941  -1.167  0.00  0.00    +0.056 A 
ATOM      3  S   UNK A   0       0.339  -6.649  -0.784  0.00  0.00    -0.076 S 
ATOM      4  C   UNK A   0      -1.000  -6.421   0.356  0.00  0.00    +0.114 A 
ATOM      5  C   UNK A   0      -1.150  -5.020   0.419  0.00  0.00    +0.055 A 
ATOM      6  C   UNK A   0      -2.175  -4.555   1.284  0.00  0.00    +0.131 A 
ATOM      7  N   UNK A   0      -2.900  -5.434   1.959  0.00  0.00    -0.220 NA
ATOM      8  C   UNK A   0      -2.701  -6.735   1.855  0.00  0.00    +0.224 A 
ATOM      9  N   UNK A   0      -1.770  -7.227   1.061  0.00  0.00    -0.228 NA
ENDROOT
BRANCH   1  14
ATOM     10  C   UNK A   0      -0.421   1.488  -0.557  0.00  0.00    +0.044 C 
ATOM     11  C   UNK A   0      -0.370  -0.017  -0.521  0.00  0.00    -0.050 A 
ATOM     12  C   UNK A   0       0.695  -0.657   0.088  0.00  0.00    +0.004 A 
ATOM     13  C   UNK A   0       0.746  -2.035   0.123  0.00  0.00    +0.009 A 
ATOM     14  C   UNK A   0      -0.278  -2.784  -0.457  0.00  0.00    -0.014 A 
ATOM     15  C   UNK A   0      -1.348  -2.134  -1.069  0.00  0.00    -0.042 A 
ATOM     16  C   UNK A   0      -1.391  -0.754  -1.094  0.00  0.00    +0.007 A 
ATOM     17  C   UNK A   0      -2.458  -2.935  -1.698  0.00  0.00    +0.044 C 
ENDBRANCH   1  14
BRANCH   6  18
ATOM     18  N   ALA A   1      -2.414  -3.199   1.421  0.00  0.00    -0.316 N 
ATOM     19  H   ALA A   1      -1.827  -2.558   0.992  0.00  0.00    +0.148 HD
BRANCH  18  20
ATOM     20  CA  ALA A   1      -3.555  -2.732   2.213  0.00  0.00    +0.182 C 
ATOM     21  CB  ALA A   1      -4.811  -2.717   1.340  0.00  0.00    +0.040 C 
BRANCH  20  22
ATOM     22  C   ALA A   1      -3.278  -1.341   2.720  0.00  0.00    +0.376 C 
ATOM     23  O   ALA A   1      -2.572  -0.586   2.074  0.00  0.00    -0.244 OA
ATOM     24  OXT ALA A   1      -3.761  -0.969   3.777  0.00  0.00    -0.244 OA
ENDBRANCH  20  22
ENDBRANCH  18  20
ENDBRANCH   6  18
TORSDOF 4
