REMARK  Name = ZINC00758891
REMARK  6 active torsions:
REMARK  status: ('A' for Active; 'I' for Inactive)
REMARK    1  A    between atoms: C_4  and  C_7
REMARK    2  A    between atoms: C_7  and  C_9
REMARK    3  A    between atoms: C_7  and  N_23
REMARK    4  A    between atoms: C_9  and  C_10
REMARK    5  A    between atoms: C_10  and  C_11
REMARK    6  A    between atoms: C_10  and  C_17
REMARK                            x       y       z     vdW  Elec       q    Type
REMARK                         _______ _______ _______ _____ _____    ______ ____
ROOT
ATOM      1  C   UNL     1       3.836  -0.337   0.589  0.00  0.00    +0.106 C 
ENDROOT
BRANCH   1   2
ATOM      2  N   UNL     1       3.258  -1.450  -0.168  0.00  0.00    -0.293 N 
ATOM      3  C   UNL     1       3.242  -1.412  -1.515  0.00  0.00    +0.298 C 
ATOM      4  O   UNL     1       3.782  -0.496  -2.104  0.00  0.00    -0.253 OA
ATOM      5  N   UNL     1       2.628  -2.391  -2.210  0.00  0.00    -0.313 N 
ATOM      6  H   UNL     1       2.886  -2.214   0.300  0.00  0.00    +0.151 HD
ATOM      7  H   UNL     1       2.197  -3.122  -1.740  0.00  0.00    +0.146 HD
ATOM      8  H   UNL     1       2.617  -2.364  -3.179  0.00  0.00    +0.146 HD
ENDBRANCH   1   2
BRANCH   1  12
ATOM      9  C   UNL     1       0.804   2.564   1.391  0.00  0.00    +0.000 A 
ATOM     10  C   UNL     1       2.059   2.971   0.978  0.00  0.00    +0.000 A 
ATOM     11  C   UNL     1       3.040   2.033   0.719  0.00  0.00    +0.005 A 
ATOM     12  C   UNL     1       2.767   0.686   0.873  0.00  0.00    -0.027 A 
ATOM     13  C   UNL     1       1.512   0.279   1.287  0.00  0.00    +0.005 A 
ATOM     14  C   UNL     1       0.531   1.217   1.545  0.00  0.00    +0.000 A 
ENDBRANCH   1  12
BRANCH   1  15
ATOM     15  C   UNL     1       4.405  -0.860   1.910  0.00  0.00    +0.040 C 
BRANCH  15  16
ATOM     16  C   UNL     1       5.574  -1.804   1.623  0.00  0.00    +0.051 C 
BRANCH  16  17
ATOM     17  C   UNL     1       6.212  -2.223   2.922  0.00  0.00    -0.040 A 
ATOM     18  C   UNL     1       7.577  -2.089   3.097  0.00  0.00    +0.004 A 
ATOM     19  C   UNL     1       8.162  -2.472   4.289  0.00  0.00    +0.000 A 
ATOM     20  C   UNL     1       7.383  -2.990   5.307  0.00  0.00    +0.000 A 
ATOM     21  C   UNL     1       6.018  -3.123   5.133  0.00  0.00    +0.000 A 
ATOM     22  C   UNL     1       5.432  -2.735   3.942  0.00  0.00    +0.004 A 
ENDBRANCH  16  17
BRANCH  16  23
ATOM     23  C   UNL     1       5.068  -3.024   0.897  0.00  0.00    -0.040 A 
ATOM     24  C   UNL     1       4.038  -3.772   1.436  0.00  0.00    +0.004 A 
ATOM     25  C   UNL     1       3.574  -4.891   0.770  0.00  0.00    +0.000 A 
ATOM     26  C   UNL     1       4.139  -5.261  -0.436  0.00  0.00    +0.000 A 
ATOM     27  C   UNL     1       5.167  -4.512  -0.976  0.00  0.00    +0.000 A 
ATOM     28  C   UNL     1       5.629  -3.391  -0.312  0.00  0.00    +0.004 A 
ENDBRANCH  16  23
ENDBRANCH  15  16
ENDBRANCH   1  15
TORSDOF 6
