REMARK  Name = ZINC08920408
REMARK  10 active torsions:
REMARK  status: ('A' for Active; 'I' for Inactive)
REMARK    1  A    between atoms: C_1  and  C_2
REMARK    2  A    between atoms: C_2  and  C_3
REMARK    3  A    between atoms: C_3  and  C_4
REMARK    4  A    between atoms: C_3  and  C_5
REMARK    5  A    between atoms: C_3  and  C_6
REMARK    6  A    between atoms: C_15  and  O_35
REMARK    7  A    between atoms: C_17  and  C_20
REMARK    8  A    between atoms: C_23  and  C_25
REMARK    9  A    between atoms: C_28  and  C_34
REMARK   10  A    between atoms: C_30  and  N_31
REMARK                            x       y       z     vdW  Elec       q    Type
REMARK                         _______ _______ _______ _____ _____    ______ ____
ROOT
ATOM      1  C   UNL     1      -1.413  -2.063   0.004  0.00  0.00    -0.000 C 
ATOM      2  C   UNL     1      -2.848  -2.596   0.009  0.00  0.00    +0.009 C 
ATOM      3  C   UNL     1      -2.842  -4.107   0.249  0.00  0.00    +0.037 C 
ATOM      4  C   UNL     1      -1.895  -4.757  -0.750  0.00  0.00    -0.023 A 
ATOM      5  C   UNL     1      -0.958  -4.030  -1.400  0.00  0.00    -0.004 A 
ATOM      6  S   UNL     1      -0.116  -5.197  -2.434  0.00  0.00    -0.078 S 
ATOM      7  C   UNL     1      -0.950  -6.572  -2.029  0.00  0.00    +0.080 A 
ATOM      8  C   UNL     1      -1.906  -6.168  -1.090  0.00  0.00    +0.068 A 
ATOM      9  C   UNL     1      -2.822  -7.208  -0.553  0.00  0.00    +0.220 C 
ATOM     10  N   UNL     1      -2.526  -8.457  -0.791  0.00  0.00    -0.220 NA
ATOM     11  C   UNL     1      -1.327  -8.903  -1.490  0.00  0.00    +0.260 C 
ATOM     12  N   UNL     1      -0.837  -7.883  -2.435  0.00  0.00    -0.311 N 
ATOM     13  C   UNL     1      -0.700  -2.561  -1.261  0.00  0.00    +0.046 C 
ATOM     14  H   UNL     1      -0.457  -8.122  -3.295  0.00  0.00    +0.149 HD
ENDROOT
BRANCH  11  15
ATOM     15  C   UNL     1      -0.248  -9.195  -0.479  0.00  0.00    +0.148 A 
ATOM     16  C   UNL     1      -0.449  -9.626   0.781  0.00  0.00    +0.049 A 
ATOM     17  C   UNL     1       0.822  -9.769   1.375  0.00  0.00    +0.050 A 
ATOM     18  C   UNL     1       1.736  -9.414   0.434  0.00  0.00    +0.138 A 
ATOM     19  O   UNL     1       1.073  -9.073  -0.688  0.00  0.00    -0.456 OA
BRANCH  18  20
ATOM     20  C   UNL     1       3.204  -9.408   0.610  0.00  0.00    +0.047 A 
ATOM     21  C   UNL     1       3.774  -8.782   1.719  0.00  0.00    +0.014 A 
ATOM     22  C   UNL     1       5.144  -8.780   1.877  0.00  0.00    +0.004 A 
ATOM     23  C   UNL     1       5.953  -9.396   0.939  0.00  0.00    -0.048 A 
ATOM     24  C   UNL     1       5.394 -10.018  -0.163  0.00  0.00    +0.036 A 
ATOM     25  C   UNL     1       4.025 -10.033  -0.330  0.00  0.00    +0.137 A 
ATOM     26  C   UNL     1       7.449  -9.389   1.117  0.00  0.00    +0.044 C 
BRANCH  25  27
ATOM     27  N   UNL     1       3.428 -10.705  -1.506  0.00  0.00    +0.057 N 
ATOM     28  O   UNL     1       4.140 -11.246  -2.320  0.00  0.00    -0.126 OA
ATOM     29  O   UNL     1       2.228 -10.713  -1.654  0.00  0.00    -0.126 OA
ENDBRANCH  25  27
ENDBRANCH  18  20
ENDBRANCH  11  15
BRANCH   1  30
ATOM     30  C   UNL     1      -1.433  -0.534   0.013  0.00  0.00    -0.032 C 
ATOM     31  C   UNL     1      -2.149  -0.040   1.272  0.00  0.00    +0.011 C 
ATOM     32  C   UNL     1      -2.173  -0.027  -1.227  0.00  0.00    +0.011 C 
BRANCH  30  34
ATOM     33  C   UNL     1      -0.019   1.526   0.010  0.00  0.00    +0.004 C 
ATOM     34  C   UNL     1       0.002  -0.004   0.002  0.00  0.00    +0.003 C 
ENDBRANCH  30  34
ENDBRANCH   1  30
BRANCH   9  35
ATOM     35  O   UNL     1      -3.923  -6.872   0.157  0.00  0.00    -0.492 OA
ATOM     36  H   UNL     1      -4.445  -7.629   0.456  0.00  0.00    +0.294 HD
ENDBRANCH   9  35
TORSDOF 6
