REMARK  Name = ZINC39661173
REMARK  4 active torsions:
REMARK  status: ('A' for Active; 'I' for Inactive)
REMARK    1  A    between atoms: C_1  and  C_2
REMARK    2  A    between atoms: C_2  and  C_8
REMARK    3  A    between atoms: C_12  and  C_21
REMARK    4  A    between atoms: N_23  and  C_24
REMARK                            x       y       z     vdW  Elec       q    Type
REMARK                         _______ _______ _______ _____ _____    ______ ____
ROOT
ATOM      1  C   UNL     1      -1.021  -0.016  -0.205  0.00  0.00    +0.222 C 
ATOM      2  O   UNL     1      -1.336  -0.593   0.814  0.00  0.00    -0.275 OA
ATOM      3  N   UNL     1      -1.929   0.166  -1.185  0.00  0.00    -0.300 N 
ATOM      4  C   UNL     1      -1.708   0.741  -2.533  0.00  0.00    +0.121 C 
ATOM      5  C   UNL     1      -2.579  -0.123  -3.473  0.00  0.00    +0.100 C 
ATOM      6  C   UNL     1      -3.671  -0.713  -2.565  0.00  0.00    -0.004 C 
ATOM      7  C   UNL     1      -3.373  -0.171  -1.160  0.00  0.00    +0.115 C 
ATOM      8  C   UNL     1      -3.591  -2.236  -2.564  0.00  0.00    -0.010 C 
ATOM      9  C   UNL     1      -4.721  -2.802  -1.700  0.00  0.00    -0.082 C 
ATOM     10  N   UNL     1      -6.015  -2.360  -2.235  0.00  0.00    +0.379 N 
ATOM     11  C   UNL     1      -6.121  -0.899  -2.146  0.00  0.00    -0.082 C 
ATOM     12  C   UNL     1      -5.049  -0.253  -3.029  0.00  0.00    -0.010 C 
ATOM     13  H   UNL     1      -6.094  -2.644  -3.200  0.00  0.00    -0.086 HD
ATOM     14  H   UNL     1      -6.760  -2.783  -1.701  0.00  0.00    -0.086 HD
ENDROOT
BRANCH   1  16
ATOM     15  C   UNL     1       1.087  -0.294  -1.481  0.00  0.00    +0.021 C 
ATOM     16  C   UNL     1       0.385   0.499  -0.377  0.00  0.00    +0.044 C 
ATOM     17  C   UNL     1       1.152   0.333   0.937  0.00  0.00    +0.016 C 
ATOM     18  C   UNL     1       0.450   1.126   2.041  0.00  0.00    +0.001 C 
ATOM     19  C   UNL     1       0.408   2.606   1.659  0.00  0.00    +0.000 C 
ATOM     20  C   UNL     1      -0.359   2.772   0.345  0.00  0.00    +0.001 C 
ATOM     21  C   UNL     1       0.343   1.980  -0.759  0.00  0.00    +0.016 C 
ENDBRANCH   1  16
BRANCH   5  22
ATOM     22  C   UNL     1      -1.753  -1.223  -4.088  0.00  0.00    +0.219 C 
ATOM     23  O   UNL     1      -0.865  -1.745  -3.449  0.00  0.00    -0.275 OA
ATOM     24  N   UNL     1      -2.002  -1.627  -5.350  0.00  0.00    -0.304 N 
ATOM     25  H   UNL     1      -2.712  -1.210  -5.862  0.00  0.00    +0.149 HD
BRANCH  24  26
ATOM     26  C   UNL     1      -1.199  -2.697  -5.948  0.00  0.00    +0.151 C 
ATOM     27  C   UNL     1      -1.186  -2.518  -7.468  0.00  0.00    +0.042 C 
ATOM     28  C   UNL     1      -0.867  -3.893  -8.100  0.00  0.00    +0.079 C 
ATOM     29  S   UNL     1      -1.573  -5.046  -6.861  0.00  0.00    -0.086 S 
ATOM     30  C   UNL     1      -1.779  -4.031  -5.542  0.00  0.00    +0.209 C 
ATOM     31  O   UNL     1      -2.288  -4.313  -4.478  0.00  0.00    -0.283 OA
ENDBRANCH  24  26
ENDBRANCH   5  22
TORSDOF 3
