REMARK  Name = ZINC35200005
REMARK  9 active torsions:
REMARK  status: ('A' for Active; 'I' for Inactive)
REMARK    1  A    between atoms: C_1  and  C_2
REMARK    2  A    between atoms: C_6  and  C_8
REMARK    3  A    between atoms: C_8  and  S_9
REMARK    4  A    between atoms: S_9  and  C_10
REMARK    5  A    between atoms: C_13  and  C_24
REMARK    6  A    between atoms: N_14  and  C_15
REMARK    7  A    between atoms: C_18  and  N_21
REMARK    8  A    between atoms: C_24  and  N_25
REMARK    9  A    between atoms: C_26  and  C_28
REMARK                            x       y       z     vdW  Elec       q    Type
REMARK                         _______ _______ _______ _____ _____    ______ ____
ROOT
ATOM      1  C   UNL     1       1.622  -4.015   4.517  0.00  0.00    +0.196 A 
ATOM      2  N   UNL     1       0.504  -4.376   5.104  0.00  0.00    -0.122 NA
ATOM      3  N   UNL     1       0.766  -5.007   6.192  0.00  0.00    -0.132 NA
ATOM      4  C   UNL     1       2.054  -5.088   6.366  0.00  0.00    +0.156 A 
ATOM      5  N   UNL     1       2.649  -4.463   5.301  0.00  0.00    -0.273 N 
ENDROOT
BRANCH   5   6
ATOM      6  C   UNL     1       4.023  -4.313   5.066  0.00  0.00    +0.050 A 
ATOM      7  C   UNL     1       4.813  -5.428   4.824  0.00  0.00    +0.028 A 
ATOM      8  C   UNL     1       6.167  -5.277   4.593  0.00  0.00    +0.035 A 
ATOM      9  C   UNL     1       6.734  -4.016   4.602  0.00  0.00    +0.126 A 
ATOM     10  C   UNL     1       5.950  -2.904   4.843  0.00  0.00    +0.035 A 
ATOM     11  C   UNL     1       4.595  -3.048   5.069  0.00  0.00    +0.028 A 
BRANCH   9  12
ATOM     12  N   UNL     1       8.185  -3.858   4.355  0.00  0.00    +0.056 N 
ATOM     13  O   UNL     1       8.873  -4.830   4.145  0.00  0.00    -0.126 OA
ATOM     14  O   UNL     1       8.683  -2.756   4.363  0.00  0.00    -0.126 OA
ENDBRANCH   9  12
ENDBRANCH   5   6
BRANCH   1  15
ATOM     15  S   UNL     1       1.770  -3.127   3.002  0.00  0.00    -0.081 S 
BRANCH  15  16
ATOM     16  C   UNL     1       0.054  -2.845   2.489  0.00  0.00    +0.112 C 
BRANCH  16  22
ATOM     17  C   UNL     1      -0.018   1.503   0.010  0.00  0.00    +0.044 C 
ATOM     18  C   UNL     1       0.002  -0.004   0.002  0.00  0.00    -0.050 A 
ATOM     19  C   UNL     1       0.006  -0.689  -1.199  0.00  0.00    +0.003 A 
ATOM     20  C   UNL     1       0.025  -2.071  -1.207  0.00  0.00    +0.001 A 
ATOM     21  C   UNL     1       0.040  -2.768  -0.013  0.00  0.00    +0.004 A 
ATOM     22  C   UNL     1       0.037  -2.084   1.188  0.00  0.00    -0.037 A 
ATOM     23  C   UNL     1       0.023  -0.702   1.195  0.00  0.00    +0.007 A 
ENDBRANCH  16  22
ENDBRANCH  15  16
ENDBRANCH   1  15
BRANCH   4  24
ATOM     24  C   UNL     1       2.761  -5.750   7.521  0.00  0.00    +0.181 C 
BRANCH  24  25
ATOM     25  N   UNL     1       3.009  -7.158   7.199  0.00  0.00    -0.304 N 
ATOM     26  C   UNL     1       3.634  -7.953   8.090  0.00  0.00    +0.244 C 
ATOM     27  O   UNL     1       3.990  -7.502   9.161  0.00  0.00    -0.270 OA
ATOM     28  H   UNL     1       2.724  -7.517   6.344  0.00  0.00    +0.149 HD
BRANCH  26  29
ATOM     29  C   UNL     1       3.884  -9.373   7.765  0.00  0.00    +0.038 A 
ATOM     30  C   UNL     1       3.481  -9.892   6.534  0.00  0.00    +0.013 A 
ATOM     31  C   UNL     1       3.718 -11.218   6.236  0.00  0.00    +0.002 A 
ATOM     32  C   UNL     1       4.354 -12.034   7.155  0.00  0.00    +0.020 A 
ATOM     33  C   UNL     1       4.757 -11.526   8.378  0.00  0.00    +0.042 A 
ATOM     34  C   UNL     1       4.531 -10.199   8.686  0.00  0.00    +0.033 A 
ATOM     35 CL   UNL     1       5.555 -12.557   9.524  0.00  0.00    -0.084 Cl
ENDBRANCH  26  29
ENDBRANCH  24  25
ENDBRANCH   4  24
TORSDOF 8
