REMARK  Name = ZINC10341222
REMARK  7 active torsions:
REMARK  status: ('A' for Active; 'I' for Inactive)
REMARK    1  A    between atoms: C_3  and  S_21
REMARK    2  A    between atoms: C_6  and  C_7
REMARK    3  A    between atoms: C_7  and  C_8
REMARK    4  A    between atoms: C_8  and  N_9
REMARK    5  A    between atoms: C_10  and  C_12
REMARK    6  A    between atoms: C_12  and  N_46
REMARK    7  A    between atoms: S_21  and  N_24
REMARK                            x       y       z     vdW  Elec       q    Type
REMARK                         _______ _______ _______ _____ _____    ______ ____
ROOT
ATOM      1  N   UNL     1       0.092   1.382  -2.458  0.00  0.00    -0.317 N 
ATOM      2  C   UNL     1      -0.383   1.675  -3.685  0.00  0.00    +0.196 C 
ATOM      3  O   UNL     1      -1.249   2.514  -3.816  0.00  0.00    -0.278 OA
ATOM      4  H   UNL     1       0.784   0.711  -2.354  0.00  0.00    +0.149 HD
ENDROOT
BRANCH   1   5
ATOM      5  C   UNL     1      -0.438   2.077  -1.283  0.00  0.00    +0.109 C 
BRANCH   5   6
ATOM      6  C   UNL     1       0.265   1.562  -0.025  0.00  0.00    +0.054 C 
BRANCH   6  12
ATOM      7  C   UNL     1       0.312   3.448   1.620  0.00  0.00    +0.005 A 
ATOM      8  C   UNL     1      -0.190   4.106   2.726  0.00  0.00    +0.029 A 
ATOM      9  C   UNL     1      -1.279   3.589   3.403  0.00  0.00    +0.105 A 
ATOM     10  C   UNL     1      -1.868   2.416   2.970  0.00  0.00    +0.029 A 
ATOM     11  C   UNL     1      -1.368   1.760   1.861  0.00  0.00    +0.005 A 
ATOM     12  C   UNL     1      -0.280   2.277   1.184  0.00  0.00    -0.046 A 
BRANCH   9  13
ATOM     13  S   UNL     1      -1.917   4.426   4.816  0.00  0.00    +0.056 S 
ATOM     14  O   UNL     1      -1.530   5.787   4.691  0.00  0.00    -0.153 OA
ATOM     15  O   UNL     1      -3.276   4.029   4.944  0.00  0.00    -0.153 OA
BRANCH  13  16
ATOM     16  N   UNL     1      -1.122   3.827   6.140  0.00  0.00    -0.204 NA
ATOM     17  H   UNL     1      -0.446   3.141   6.030  0.00  0.00    +0.144 HD
ATOM     18  H   UNL     1      -1.333   4.164   7.025  0.00  0.00    +0.144 HD
ENDBRANCH  13  16
ENDBRANCH   9  13
ENDBRANCH   6  12
ENDBRANCH   5   6
ENDBRANCH   1   5
BRANCH   2  19
ATOM     19  C   UNL     1       0.162   0.960  -4.895  0.00  0.00    +0.019 C 
BRANCH  19  28
ATOM     20  C   UNL     1      -1.996   0.856  -5.988  0.00  0.00    -0.073 C 
ATOM     21  C   UNL     1      -2.859   1.611  -7.014  0.00  0.00    +0.024 C 
ATOM     22  C   UNL     1      -2.122   1.616  -8.313  0.00  0.00    -0.011 A 
ATOM     23  C   UNL     1      -0.810   1.300  -8.505  0.00  0.00    -0.054 A 
ATOM     24  C   UNL     1      -0.338   1.373  -9.814  0.00  0.00    +0.009 A 
ATOM     25  C   UNL     1      -1.170   1.746 -10.814  0.00  0.00    +0.045 A 
ATOM     26  S   UNL     1      -2.703   2.018  -9.936  0.00  0.00    -0.101 S 
ATOM     27  C   UNL     1       0.049   0.894  -7.312  0.00  0.00    -0.042 C 
ATOM     28  N   UNL     1      -0.612   1.381  -6.079  0.00  0.00    +0.388 N 
ATOM     29  H   UNL     1      -0.648   2.406  -6.106  0.00  0.00    -0.081 HD
ENDBRANCH  19  28
ENDBRANCH   2  19
TORSDOF 7
