REMARK  Name = ZINC36057024
REMARK  14 active torsions:
REMARK  status: ('A' for Active; 'I' for Inactive)
REMARK    1  A    between atoms: C_1  and  C_2
REMARK    2  A    between atoms: C_2  and  C_3
REMARK    3  A    between atoms: C_3  and  C_4
REMARK    4  A    between atoms: C_3  and  C_5
REMARK    5  A    between atoms: C_3  and  N_17
REMARK    6  A    between atoms: N_7  and  C_8
REMARK    7  A    between atoms: C_11  and  N_14
REMARK    8  A    between atoms: N_14  and  C_15
REMARK    9  A    between atoms: N_14  and  C_16
REMARK   10  A    between atoms: N_17  and  C_18
REMARK   11  A    between atoms: C_18  and  C_19
REMARK   12  A    between atoms: C_24  and  C_25
REMARK   13  A    between atoms: C_26  and  C_28
REMARK   14  A    between atoms: C_28  and  N_29
REMARK                            x       y       z     vdW  Elec       q    Type
REMARK                         _______ _______ _______ _____ _____    ______ ____
ROOT
ATOM      1  N   UNL     1       0.175   0.223   1.913  0.00  0.00    -0.282 N 
ATOM      2  C   UNL     1      -0.720  -0.365   2.732  0.00  0.00    +0.234 C 
ATOM      3  O   UNL     1      -1.390  -1.293   2.331  0.00  0.00    -0.274 OA
ENDROOT
BRANCH   1   4
ATOM      4  C   UNL     1       0.247  -0.170   0.504  0.00  0.00    +0.111 C 
ATOM      5  C   UNL     1       1.001  -1.496   0.382  0.00  0.00    +0.042 C 
BRANCH   4   6
ATOM      6  C   UNL     1       0.973   0.894  -0.278  0.00  0.00    +0.241 C 
ATOM      7  O   UNL     1       1.781   0.579  -1.126  0.00  0.00    -0.273 OA
ATOM      8  N   UNL     1       0.725   2.196  -0.035  0.00  0.00    -0.284 N 
ATOM      9  H   UNL     1       0.139   2.450   0.695  0.00  0.00    +0.155 HD
BRANCH   8  10
ATOM     10  C   UNL     1       1.315   3.183  -0.836  0.00  0.00    +0.034 A 
ATOM     11  C   UNL     1       2.481   2.904  -1.537  0.00  0.00    +0.025 A 
ATOM     12  C   UNL     1       3.062   3.876  -2.326  0.00  0.00    +0.025 A 
ATOM     13  C   UNL     1       2.480   5.134  -2.419  0.00  0.00    +0.029 A 
ATOM     14  C   UNL     1       1.315   5.413  -1.718  0.00  0.00    +0.025 A 
ATOM     15  C   UNL     1       0.731   4.439  -0.933  0.00  0.00    +0.025 A 
BRANCH  13  16
ATOM     16  N   UNL     1       3.069   6.119  -3.219  0.00  0.00    -0.336 N 
ATOM     17  C   UNL     1       4.299   5.824  -3.958  0.00  0.00    +0.129 C 
ATOM     18  C   UNL     1       2.456   7.446  -3.317  0.00  0.00    +0.129 C 
ENDBRANCH  13  16
ENDBRANCH   8  10
ENDBRANCH   4   6
BRANCH   4  20
ATOM     19  C   UNL     1      -1.922   0.991   0.069  0.00  0.00    +0.006 C 
ATOM     20  C   UNL     1      -1.169  -0.335  -0.053  0.00  0.00    +0.032 C 
ENDBRANCH   4  20
ENDBRANCH   1   4
BRANCH   1  21
ATOM     21  C   UNL     1       1.075   1.255   2.433  0.00  0.00    +0.144 C 
BRANCH  21  22
ATOM     22  C   UNL     1       2.083   0.623   3.358  0.00  0.00    -0.027 A 
ATOM     23  C   UNL     1       1.845   0.589   4.720  0.00  0.00    +0.005 A 
ATOM     24  C   UNL     1       2.769   0.009   5.569  0.00  0.00    +0.000 A 
ATOM     25  C   UNL     1       3.931  -0.537   5.056  0.00  0.00    +0.000 A 
ATOM     26  C   UNL     1       4.169  -0.503   3.695  0.00  0.00    +0.003 A 
ATOM     27  C   UNL     1       3.243   0.073   2.846  0.00  0.00    -0.046 A 
ATOM     28  C   UNL     1       3.499   0.105   1.361  0.00  0.00    +0.044 C 
ENDBRANCH  21  22
ENDBRANCH   1  21
BRANCH   2  29
ATOM     29  C   UNL     1      -0.888   0.131   4.145  0.00  0.00    +0.210 C 
BRANCH  29  30
ATOM     30  N   UNL     1      -2.144  -0.383   4.697  0.00  0.00    -0.255 N 
ATOM     31  C   UNL     1      -3.370   0.271   4.596  0.00  0.00    +0.048 A 
ATOM     32  C   UNL     1      -3.722   1.476   4.003  0.00  0.00    +0.024 A 
ATOM     33  C   UNL     1      -5.033   1.913   4.040  0.00  0.00    +0.002 A 
ATOM     34  C   UNL     1      -6.012   1.158   4.666  0.00  0.00    +0.001 A 
ATOM     35  C   UNL     1      -5.684  -0.043   5.261  0.00  0.00    +0.014 A 
ATOM     36  C   UNL     1      -4.365  -0.492   5.229  0.00  0.00    +0.048 A 
ATOM     37  C   UNL     1      -3.699  -1.698   5.756  0.00  0.00    +0.250 C 
ATOM     38  O   UNL     1      -4.205  -2.614   6.371  0.00  0.00    -0.282 OA
ATOM     39  C   UNL     1      -2.260  -1.546   5.360  0.00  0.00    +0.292 C 
ATOM     40  O   UNL     1      -1.364  -2.329   5.597  0.00  0.00    -0.266 OA
ENDBRANCH  29  30
ENDBRANCH   2  29
TORSDOF 9
