REMARK  Name = ZINC33758278
REMARK  14 active torsions:
REMARK  status: ('A' for Active; 'I' for Inactive)
REMARK    1  A    between atoms: C_1  and  C_2
REMARK    2  A    between atoms: C_2  and  N_3
REMARK    3  A    between atoms: N_3  and  C_4
REMARK    4  A    between atoms: N_3  and  C_6
REMARK    5  A    between atoms: C_4  and  C_5
REMARK    6  A    between atoms: C_6  and  C_7
REMARK    7  A    between atoms: C_7  and  C_8
REMARK    8  A    between atoms: C_8  and  C_9
REMARK    9  A    between atoms: C_9  and  C_11
REMARK   10  A    between atoms: C_9  and  N_12
REMARK   11  A    between atoms: C_13  and  C_15
REMARK   12  A    between atoms: C_17  and  C_29
REMARK   13  A    between atoms: N_19  and  C_20
REMARK   14  A    between atoms: C_24  and  N_26
REMARK                            x       y       z     vdW  Elec       q    Type
REMARK                         _______ _______ _______ _____ _____    ______ ____
ROOT
ATOM      1  C   UNL     1      -1.304   6.777  -0.262  0.00  0.00    +0.130 A 
ATOM      2  C   UNL     1      -0.671   6.032   0.715  0.00  0.00    +0.063 A 
ATOM      3  C   UNL     1       0.206   6.927   1.355  0.00  0.00    +0.095 A 
ATOM      4  N   UNL     1       0.077   8.100   0.769  0.00  0.00    -0.166 NA
ATOM      5  N   UNL     1      -0.791   8.044  -0.177  0.00  0.00    -0.227 N 
ENDROOT
BRANCH   3   6
ATOM      6  C   UNL     1       1.112   6.608   2.486  0.00  0.00    +0.020 A 
ATOM      7  C   UNL     1       1.237   5.295   2.933  0.00  0.00    +0.011 A 
ATOM      8  C   UNL     1       2.082   5.003   3.985  0.00  0.00    +0.001 A 
ATOM      9  C   UNL     1       2.803   6.013   4.597  0.00  0.00    +0.001 A 
ATOM     10  C   UNL     1       2.683   7.319   4.159  0.00  0.00    +0.020 A 
ATOM     11  C   UNL     1       1.845   7.621   3.102  0.00  0.00    +0.050 A 
ATOM     12 CL   UNL     1       1.702   9.260   2.548  0.00  0.00    -0.083 Cl
ENDBRANCH   3   6
BRANCH   5  13
ATOM     13  C   UNL     1      -1.160   9.118  -0.994  0.00  0.00    +0.068 A 
ATOM     14  C   UNL     1      -1.261   8.945  -2.369  0.00  0.00    +0.028 A 
ATOM     15  C   UNL     1      -1.631  10.006  -3.171  0.00  0.00    +0.004 A 
ATOM     16  C   UNL     1      -1.891  11.242  -2.610  0.00  0.00    +0.033 A 
ATOM     17  C   UNL     1      -1.792  11.418  -1.242  0.00  0.00    +0.128 A 
ATOM     18  C   UNL     1      -1.427  10.360  -0.432  0.00  0.00    +0.060 A 
BRANCH  17  19
ATOM     19  N   UNL     1      -2.076  12.742  -0.644  0.00  0.00    +0.056 N 
ATOM     20  O   UNL     1      -2.398  13.676  -1.357  0.00  0.00    -0.126 OA
ATOM     21  O   UNL     1      -1.989  12.898   0.561  0.00  0.00    -0.126 OA
ENDBRANCH  17  19
ENDBRANCH   5  13
BRANCH   1  23
ATOM     22  N   UNL     1      -2.638   4.993  -1.262  0.00  0.00    -0.308 N 
ATOM     23  C   UNL     1      -2.325   6.303  -1.209  0.00  0.00    +0.263 C 
ATOM     24  O   UNL     1      -2.887   7.092  -1.944  0.00  0.00    -0.269 OA
ATOM     25  H   UNL     1      -2.074   4.268  -0.657  0.00  0.00    +0.149 HD
BRANCH  22  26
ATOM     26  C   UNL     1      -3.730   4.535  -2.125  0.00  0.00    +0.070 C 
ATOM     27  C   UNL     1      -3.193   4.279  -3.534  0.00  0.00    +0.028 C 
BRANCH  26  28
ATOM     28  C   UNL     1      -4.317   3.240  -1.560  0.00  0.00    +0.020 C 
BRANCH  28  29
ATOM     29  C   UNL     1      -4.969   3.523  -0.205  0.00  0.00    -0.017 C 
BRANCH  29  30
ATOM     30  C   UNL     1      -5.454   2.210   0.413  0.00  0.00    -0.079 C 
BRANCH  30  31
ATOM     31  N   UNL     1      -6.079   2.483   1.714  0.00  0.00    +0.379 N 
ATOM     32  H   UNL     1      -5.372   3.079   2.310  0.00  0.00    -0.082 HD
BRANCH  31  34
ATOM     33  C   UNL     1      -8.354   2.434   0.809  0.00  0.00    -0.017 C 
ATOM     34  C   UNL     1      -7.309   3.269   1.553  0.00  0.00    -0.082 C 
ENDBRANCH  31  34
BRANCH  31  35
ATOM     35  C   UNL     1      -6.343   1.235   2.443  0.00  0.00    -0.082 C 
ATOM     36  C   UNL     1      -6.773   1.562   3.874  0.00  0.00    -0.017 C 
ENDBRANCH  31  35
ENDBRANCH  30  31
ENDBRANCH  29  30
ENDBRANCH  28  29
ENDBRANCH  26  28
ENDBRANCH  22  26
ENDBRANCH   1  23
TORSDOF 11
