REMARK  Name = ZINC40178045
REMARK  16 active torsions:
REMARK  status: ('A' for Active; 'I' for Inactive)
REMARK    1  A    between atoms: C_1  and  C_2
REMARK    2  A    between atoms: C_2  and  C_3
REMARK    3  A    between atoms: C_3  and  O_4
REMARK    4  A    between atoms: O_4  and  C_5
REMARK    5  A    between atoms: C_8  and  C_11
REMARK    6  A    between atoms: C_13  and  S_25
REMARK    7  A    between atoms: C_14  and  N_16
REMARK    8  A    between atoms: N_16  and  C_17
REMARK    9  A    between atoms: C_17  and  C_18
REMARK   10  A    between atoms: C_18  and  C_19
REMARK   11  A    between atoms: C_19  and  N_20
REMARK   12  A    between atoms: N_20  and  C_21
REMARK   13  A    between atoms: N_20  and  C_23
REMARK   14  A    between atoms: C_21  and  C_22
REMARK   15  A    between atoms: C_23  and  C_24
REMARK   16  A    between atoms: S_25  and  C_28
REMARK                            x       y       z     vdW  Elec       q    Type
REMARK                         _______ _______ _______ _____ _____    ______ ____
ROOT
ATOM      1  C   UNL     1      -6.454  -4.774  -0.278  0.00  0.00    +0.231 A 
ATOM      2  N   UNL     1      -6.659  -6.061  -0.128  0.00  0.00    -0.188 NA
ATOM      3  C   UNL     1      -7.978  -6.274   0.006  0.00  0.00    +0.243 A 
ATOM      4  C   UNL     1      -8.600  -5.073  -0.066  0.00  0.00    +0.233 A 
ATOM      5  O   UNL     1      -7.642  -4.139  -0.238  0.00  0.00    -0.420 OA
ENDROOT
BRANCH   1   9
ATOM      6  C   UNL     1      -2.670  -2.913  -0.788  0.00  0.00    +0.121 A 
ATOM      7  C   UNL     1      -3.824  -2.140  -0.766  0.00  0.00    +0.046 A 
ATOM      8  C   UNL     1      -5.054  -2.740  -0.601  0.00  0.00    +0.017 A 
ATOM      9  C   UNL     1      -5.138  -4.127  -0.456  0.00  0.00    +0.037 A 
ATOM     10  C   UNL     1      -3.975  -4.900  -0.479  0.00  0.00    +0.017 A 
ATOM     11  C   UNL     1      -2.750  -4.293  -0.650  0.00  0.00    +0.046 A 
BRANCH   6  12
ATOM     12  O   UNL     1      -1.459  -2.318  -0.950  0.00  0.00    -0.492 OA
BRANCH  12  13
ATOM     13  C   UNL     1      -1.449  -0.895  -1.086  0.00  0.00    +0.229 C 
BRANCH  13  15
ATOM     14  C   UNL     1       0.003   1.113  -1.404  0.00  0.00    +0.007 C 
ATOM     15  C   UNL     1      -0.008  -0.410  -1.258  0.00  0.00    +0.038 C 
ENDBRANCH  13  15
ENDBRANCH  12  13
ENDBRANCH   6  12
ENDBRANCH   1   9
BRANCH   3  16
ATOM     16  S   UNL     1      -8.759  -7.837   0.233  0.00  0.00    +0.047 S 
ATOM     17  O   UNL     1     -10.096  -7.693  -0.225  0.00  0.00    -0.163 OA
ATOM     18  O   UNL     1      -7.874  -8.815  -0.295  0.00  0.00    -0.163 OA
BRANCH  16  19
ATOM     19  C   UNL     1      -8.850  -8.126   1.969  0.00  0.00    +0.099 A 
ATOM     20  C   UNL     1      -7.814  -8.774   2.616  0.00  0.00    +0.031 A 
ATOM     21  C   UNL     1      -7.882  -9.003   3.977  0.00  0.00    +0.051 A 
ATOM     22  C   UNL     1      -8.990  -8.583   4.698  0.00  0.00    +0.162 A 
ATOM     23  C   UNL     1     -10.030  -7.930   4.048  0.00  0.00    +0.164 A 
ATOM     24  C   UNL     1      -9.954  -7.700   2.683  0.00  0.00    +0.076 A 
ATOM     25  O   UNL     1     -11.123  -7.503   4.738  0.00  0.00    -0.485 OA
ATOM     26  C   UNL     1     -11.330  -8.074   6.034  0.00  0.00    +0.270 C 
ATOM     27  C   UNL     1      -9.993  -8.054   6.788  0.00  0.00    +0.270 C 
ATOM     28  O   UNL     1      -9.044  -8.819   6.037  0.00  0.00    -0.485 OA
ENDBRANCH  16  19
ENDBRANCH   3  16
BRANCH   4  29
ATOM     29  N   UNL     1      -9.969  -4.845   0.026  0.00  0.00    -0.312 N 
ATOM     30  H   UNL     1     -10.577  -5.589   0.154  0.00  0.00    +0.149 HD
BRANCH  29  31
ATOM     31  C   UNL     1     -10.492  -3.480  -0.071  0.00  0.00    +0.102 C 
BRANCH  31  32
ATOM     32  C   UNL     1     -12.017  -3.507   0.061  0.00  0.00    +0.000 C 
BRANCH  32  33
ATOM     33  C   UNL     1     -12.563  -2.082  -0.041  0.00  0.00    -0.077 C 
BRANCH  33  34
ATOM     34  N   UNL     1     -14.031  -2.120  -0.046  0.00  0.00    +0.379 N 
ATOM     35  H   UNL     1     -14.349  -2.737  -0.779  0.00  0.00    -0.082 HD
BRANCH  34  36
ATOM     36  C   UNL     1     -14.514  -2.612   1.251  0.00  0.00    -0.082 C 
ATOM     37  C   UNL     1     -16.035  -2.770   1.204  0.00  0.00    -0.017 C 
ENDBRANCH  34  36
BRANCH  34  38
ATOM     38  C   UNL     1     -14.555  -0.768  -0.282  0.00  0.00    -0.082 C 
ATOM     39  C   UNL     1     -14.173  -0.312  -1.692  0.00  0.00    -0.017 C 
ENDBRANCH  34  38
ENDBRANCH  33  34
ENDBRANCH  32  33
ENDBRANCH  31  32
ENDBRANCH  29  31
ENDBRANCH   4  29
TORSDOF 13
