REMARK  Name = ZINC48802748
REMARK  4 active torsions:
REMARK  status: ('A' for Active; 'I' for Inactive)
REMARK    1  A    between atoms: C_3  and  C_11
REMARK    2  A    between atoms: C_5  and  N_7
REMARK    3  A    between atoms: C_11  and  N_12
REMARK    4  A    between atoms: C_13  and  C_15
REMARK                            x       y       z     vdW  Elec       q    Type
REMARK                         _______ _______ _______ _____ _____    ______ ____
ROOT
ATOM      1  C   UNL     1       0.005   1.379   0.170  0.00  0.00    +0.002 A 
ATOM      2  C   UNL     1       1.179   2.086  -0.016  0.00  0.00    +0.005 A 
ATOM      3  C   UNL     1       2.372   1.413  -0.204  0.00  0.00    -0.029 A 
ATOM      4  C   UNL     1       2.395   0.032  -0.206  0.00  0.00    +0.028 A 
ATOM      5  C   UNL     1       1.218  -0.680  -0.019  0.00  0.00    +0.035 A 
ATOM      6  C   UNL     1       0.021  -0.002   0.169  0.00  0.00    +0.023 A 
ENDROOT
BRANCH   5   7
ATOM      7  N   UNL     1       1.237  -2.080  -0.021  0.00  0.00    -0.270 N 
ATOM      8  C   UNL     1       2.311  -2.739   0.458  0.00  0.00    +0.301 C 
ATOM      9  O   UNL     1       3.220  -2.123   0.980  0.00  0.00    -0.253 OA
ATOM     10  N   UNL     1       2.376  -4.082   0.358  0.00  0.00    -0.313 N 
ATOM     11  H   UNL     1       0.479  -2.575  -0.367  0.00  0.00    +0.156 HD
ATOM     12  H   UNL     1       1.651  -4.573  -0.058  0.00  0.00    +0.146 HD
ATOM     13  H   UNL     1       3.149  -4.557   0.703  0.00  0.00    +0.146 HD
ENDBRANCH   5   7
BRANCH   3  14
ATOM     14  C   UNL     1       3.649   2.187  -0.407  0.00  0.00    +0.140 C 
BRANCH  14  15
ATOM     15  N   UNL     1       4.278   2.440   0.892  0.00  0.00    -0.307 N 
ATOM     16  C   UNL     1       5.439   3.121   0.957  0.00  0.00    +0.251 C 
ATOM     17  O   UNL     1       5.965   3.526  -0.064  0.00  0.00    -0.270 OA
ATOM     18  H   UNL     1       3.859   2.117   1.705  0.00  0.00    +0.149 HD
BRANCH  16  19
ATOM     19  C   UNL     1       6.069   3.374   2.255  0.00  0.00    +0.075 A 
ATOM     20  C   UNL     1       7.246   4.051   2.539  0.00  0.00    +0.022 A 
ATOM     21  C   UNL     1       7.585   4.127   3.868  0.00  0.00    +0.024 A 
ATOM     22  C   UNL     1       6.771   3.553   4.790  0.00  0.00    +0.056 A 
ATOM     23  S   UNL     1       5.518   2.899   3.882  0.00  0.00    -0.077 S 
ATOM     24 BR   UNL     1       6.993   3.506   6.668  0.00  0.00    -0.043 Br
ENDBRANCH  16  19
ENDBRANCH  14  15
ENDBRANCH   3  14
TORSDOF 4
