REMARK  Name = ZINC64174510
REMARK  8 active torsions:
REMARK  status: ('A' for Active; 'I' for Inactive)
REMARK    1  A    between atoms: C_1  and  C_2
REMARK    2  A    between atoms: C_2  and  C_3
REMARK    3  A    between atoms: C_3  and  C_4
REMARK    4  A    between atoms: C_4  and  C_5
REMARK    5  A    between atoms: C_4  and  N_20
REMARK    6  A    between atoms: N_7  and  C_8
REMARK    7  A    between atoms: C_8  and  C_9
REMARK    8  A    between atoms: C_8  and  C_10
REMARK                            x       y       z     vdW  Elec       q    Type
REMARK                         _______ _______ _______ _____ _____    ______ ____
ROOT
ATOM      1  C   UNL     1      -2.820  -2.586   0.139  0.00  0.00    +0.234 C 
ATOM      2  O   UNL     1      -3.423  -2.963  -0.843  0.00  0.00    -0.274 OA
ATOM      3  N   UNL     1      -3.408  -2.634   1.351  0.00  0.00    -0.307 N 
ATOM      4  H   UNL     1      -2.925  -2.332   2.136  0.00  0.00    +0.149 HD
ENDROOT
BRANCH   3   5
ATOM      5  C   UNL     1      -4.776  -3.142   1.481  0.00  0.00    +0.100 C 
ATOM      6  C   UNL     1      -4.745  -4.667   1.598  0.00  0.00    +0.033 C 
BRANCH   5   7
ATOM      7  C   UNL     1      -5.413  -2.556   2.715  0.00  0.00    -0.027 A 
ATOM      8  C   UNL     1      -4.675  -2.411   3.875  0.00  0.00    +0.006 A 
ATOM      9  C   UNL     1      -5.266  -1.877   5.001  0.00  0.00    +0.004 A 
ATOM     10  C   UNL     1      -6.598  -1.482   4.979  0.00  0.00    -0.044 A 
ATOM     11  C   UNL     1      -7.331  -1.621   3.823  0.00  0.00    -0.044 A 
ATOM     12  C   UNL     1      -6.733  -2.158   2.689  0.00  0.00    +0.009 A 
ATOM     13  C   UNL     1      -8.774  -1.200   3.722  0.00  0.00    +0.035 C 
ATOM     14  C   UNL     1      -9.386  -1.042   5.112  0.00  0.00    +0.005 C 
ATOM     15  C   UNL     1      -8.466  -0.144   5.947  0.00  0.00    +0.005 C 
ATOM     16  C   UNL     1      -7.182  -0.914   6.246  0.00  0.00    +0.035 C 
ENDBRANCH   5   7
ENDBRANCH   3   5
BRANCH   1  17
ATOM     17  C   UNL     1      -1.413  -2.063   0.004  0.00  0.00    +0.160 C 
BRANCH  17  18
ATOM     18  N   UNL     1      -0.834  -2.537  -1.256  0.00  0.00    -0.288 N 
ATOM     19  C   UNL     1      -1.415  -2.213  -2.428  0.00  0.00    +0.298 C 
ATOM     20  O   UNL     1      -2.419  -1.527  -2.439  0.00  0.00    -0.253 OA
ATOM     21  N   UNL     1      -0.883  -2.649  -3.587  0.00  0.00    -0.313 N 
ATOM     22  H   UNL     1      -0.033  -3.084  -1.246  0.00  0.00    +0.151 HD
ATOM     23  H   UNL     1      -0.082  -3.196  -3.577  0.00  0.00    +0.146 HD
ATOM     24  H   UNL     1      -1.301  -2.415  -4.430  0.00  0.00    +0.146 HD
ENDBRANCH  17  18
BRANCH  17  25
ATOM     25  C   UNL     1      -1.433  -0.534   0.013  0.00  0.00    +0.031 C 
BRANCH  25  27
ATOM     26  C   UNL     1      -0.019   1.526   0.010  0.00  0.00    +0.004 C 
ATOM     27  C   UNL     1       0.002  -0.004   0.002  0.00  0.00    -0.001 C 
ENDBRANCH  25  27
ENDBRANCH  17  25
ENDBRANCH   1  17
TORSDOF 6
