REMARK  Name = ZINC01897647
REMARK  11 active torsions:
REMARK  status: ('A' for Active; 'I' for Inactive)
REMARK    1  A    between atoms: C_1  and  C_2
REMARK    2  A    between atoms: C_2  and  C_42
REMARK    3  A    between atoms: C_6  and  C_29
REMARK    4  A    between atoms: C_11  and  C_18
REMARK    5  A    between atoms: C_18  and  O_19
REMARK    6  A    between atoms: O_19  and  N_20
REMARK    7  A    between atoms: C_21  and  C_22
REMARK    8  A    between atoms: C_32  and  O_37
REMARK    9  A    between atoms: C_33  and  O_35
REMARK   10  A    between atoms: O_35  and  C_36
REMARK   11  A    between atoms: O_37  and  C_38
REMARK                            x       y       z     vdW  Elec       q    Type
REMARK                         _______ _______ _______ _____ _____    ______ ____
ROOT
ATOM      1  C   UNL     1      -0.019   1.526   0.010  0.00  0.00    +0.012 C 
ATOM      2  C   UNL     1       0.002  -0.004   0.002  0.00  0.00    -0.021 C 
ATOM      3  C   UNL     1      -1.431  -0.538   0.038  0.00  0.00    +0.081 C 
ATOM      4  C   UNL     1      -1.410  -2.048   0.070  0.00  0.00    +0.115 C 
ATOM      5  C   UNL     1      -0.399  -2.707   0.667  0.00  0.00    +0.045 C 
ATOM      6  C   UNL     1      -0.388  -4.217   0.708  0.00  0.00    +0.094 C 
ATOM      7  C   UNL     1      -1.758  -4.753   0.433  0.00  0.00    +0.071 A 
ATOM      8  C   UNL     1      -2.122  -6.064   0.773  0.00  0.00    +0.167 A 
ATOM      9  N   UNL     1      -1.478  -7.055   1.342  0.00  0.00    -0.207 NA
ATOM     10  C   UNL     1      -2.284  -8.111   1.442  0.00  0.00    +0.192 A 
ATOM     11  N   UNL     1      -3.464  -7.820   0.938  0.00  0.00    -0.145 NA
ATOM     12  N   UNL     1      -3.404  -6.506   0.495  0.00  0.00    -0.201 N 
ATOM     13  C   UNL     1      -4.309  -5.689  -0.099  0.00  0.00    +0.229 A 
ATOM     14  N   UNL     1      -3.942  -4.469  -0.406  0.00  0.00    -0.201 NA
ATOM     15  C   UNL     1      -2.718  -3.979  -0.164  0.00  0.00    +0.229 A 
ATOM     16  O   UNL     1      -2.426  -2.707  -0.517  0.00  0.00    -0.441 OA
ATOM     17  C   UNL     1       0.672  -2.018   1.265  0.00  0.00    +0.164 C 
ATOM     18  O   UNL     1       1.557  -2.649   1.809  0.00  0.00    -0.292 OA
ATOM     19  C   UNL     1       0.743  -0.516   1.242  0.00  0.00    +0.086 C 
ATOM     20  C   UNL     1       0.709  -0.502  -1.260  0.00  0.00    +0.012 C 
ENDROOT
BRANCH   6  21
ATOM     21  C   UNL     1       0.567  -4.737  -0.336  0.00  0.00    -0.031 A 
ATOM     22  C   UNL     1       0.364  -4.433  -1.669  0.00  0.00    +0.008 A 
ATOM     23  C   UNL     1       1.237  -4.907  -2.630  0.00  0.00    +0.050 A 
ATOM     24  C   UNL     1       2.318  -5.689  -2.258  0.00  0.00    +0.162 A 
ATOM     25  C   UNL     1       2.523  -5.995  -0.916  0.00  0.00    +0.162 A 
ATOM     26  C   UNL     1       1.647  -5.512   0.043  0.00  0.00    +0.054 A 
BRANCH  25  27
ATOM     27  O   UNL     1       3.583  -6.763  -0.546  0.00  0.00    -0.491 OA
ATOM     28  C   UNL     1       3.730  -7.036   0.849  0.00  0.00    +0.277 C 
ENDBRANCH  25  27
BRANCH  24  29
ATOM     29  O   UNL     1       3.178  -6.157  -3.202  0.00  0.00    -0.491 OA
ATOM     30  C   UNL     1       2.905  -5.804  -4.560  0.00  0.00    +0.277 C 
ENDBRANCH  24  29
ENDBRANCH   6  21
BRANCH  10  31
ATOM     31  C   UNL     1      -1.901  -9.440   2.041  0.00  0.00    +0.340 C 
BRANCH  31  32
ATOM     32  O   UNL     1      -2.190  -9.433   3.440  0.00  0.00    -0.386 OA
BRANCH  32  33
ATOM     33  N   UNL     1      -1.865 -10.643   4.101  0.00  0.00    -0.092 NA
ATOM     34  C   UNL     1      -2.080 -10.763   5.371  0.00  0.00    +0.162 C 
BRANCH  34  35
ATOM     35  C   UNL     1      -1.742 -12.024   6.060  0.00  0.00    +0.014 A 
ATOM     36  C   UNL     1      -1.977 -12.160   7.430  0.00  0.00    +0.011 A 
ATOM     37  C   UNL     1      -1.658 -13.340   8.068  0.00  0.00    +0.001 A 
ATOM     38  C   UNL     1      -1.107 -14.390   7.354  0.00  0.00    +0.001 A 
ATOM     39  C   UNL     1      -0.870 -14.264   5.997  0.00  0.00    +0.020 A 
ATOM     40  C   UNL     1      -1.190 -13.089   5.344  0.00  0.00    +0.050 A 
ATOM     41 CL   UNL     1      -0.899 -12.934   3.639  0.00  0.00    -0.083 Cl
ENDBRANCH  34  35
ENDBRANCH  32  33
ENDBRANCH  31  32
ENDBRANCH  10  31
TORSDOF 7
