REMARK  Name = ZINC50563715
REMARK  7 active torsions:
REMARK  status: ('A' for Active; 'I' for Inactive)
REMARK    1  A    between atoms: C_1  and  C_2
REMARK    2  A    between atoms: C_4  and  N_22
REMARK    3  A    between atoms: C_5  and  S_9
REMARK    4  A    between atoms: C_7  and  C_8
REMARK    5  A    between atoms: S_9  and  N_12
REMARK    6  A    between atoms: C_16  and  C_21
REMARK    7  A    between atoms: C_18  and  C_20
REMARK                            x       y       z     vdW  Elec       q    Type
REMARK                         _______ _______ _______ _____ _____    ______ ____
ROOT
ATOM      1  C   UNL     1       3.589  -9.809   0.564  0.00  0.00    +0.044 C 
ATOM      2  C   UNL     1       2.756  -8.559   0.446  0.00  0.00    -0.046 A 
ATOM      3  C   UNL     1       1.620  -8.411   1.217  0.00  0.00    +0.028 A 
ATOM      4  C   UNL     1       0.853  -7.258   1.108  0.00  0.00    +0.051 A 
ATOM      5  C   UNL     1       1.232  -6.257   0.223  0.00  0.00    +0.126 A 
ATOM      6  C   UNL     1       2.369  -6.411  -0.545  0.00  0.00    +0.034 A 
ATOM      7  C   UNL     1       3.133  -7.558  -0.430  0.00  0.00    -0.046 A 
ATOM      8  C   UNL     1       4.377  -7.720  -1.266  0.00  0.00    +0.044 C 
ENDROOT
BRANCH   5   9
ATOM      9  S   UNL     1       0.263  -4.792   0.081  0.00  0.00    +0.063 S 
ATOM     10  O   UNL     1       0.047  -4.318   1.403  0.00  0.00    -0.153 OA
ATOM     11  O   UNL     1       0.876  -3.996  -0.924  0.00  0.00    -0.153 OA
BRANCH   9  12
ATOM     12  N   UNL     1      -1.218  -5.241  -0.509  0.00  0.00    -0.173 NA
ATOM     13  C   UNL     1      -2.390  -5.298   0.375  0.00  0.00    +0.110 C 
ATOM     14  C   UNL     1      -3.031  -6.684   0.255  0.00  0.00    +0.017 C 
ATOM     15  C   UNL     1      -3.340  -6.973  -1.216  0.00  0.00    +0.006 C 
ATOM     16  C   UNL     1      -2.038  -6.971  -2.022  0.00  0.00    +0.005 C 
ATOM     17  C   UNL     1      -1.386  -5.583  -1.928  0.00  0.00    +0.080 C 
ATOM     18  C   UNL     1      -0.019  -5.609  -2.615  0.00  0.00    +0.026 C 
ATOM     19  C   UNL     1      -2.343  -7.293  -3.486  0.00  0.00    +0.009 C 
ENDBRANCH   9  12
ENDBRANCH   5   9
BRANCH   4  20
ATOM     20  N   UNL     1      -0.296  -7.106   1.887  0.00  0.00    -0.356 N 
ATOM     21  H   UNL     1      -0.608  -7.839   2.441  0.00  0.00    +0.142 HD
ATOM     22  H   UNL     1      -0.784  -6.267   1.873  0.00  0.00    +0.142 HD
ENDBRANCH   4  20
TORSDOF 3
