REMARK  Name = ZINC39328117
REMARK  9 active torsions:
REMARK  status: ('A' for Active; 'I' for Inactive)
REMARK    1  A    between atoms: C_1  and  C_2
REMARK    2  A    between atoms: C_2  and  C_3
REMARK    3  A    between atoms: C_2  and  C_4
REMARK    4  A    between atoms: C_7  and  C_10
REMARK    5  A    between atoms: C_11  and  C_24
REMARK    6  A    between atoms: C_12  and  N_23
REMARK    7  A    between atoms: C_16  and  N_22
REMARK    8  A    between atoms: C_17  and  C_19
REMARK    9  A    between atoms: C_19  and  C_21
REMARK                            x       y       z     vdW  Elec       q    Type
REMARK                         _______ _______ _______ _____ _____    ______ ____
ROOT
ATOM      1  C   UNL     1      -5.205  -2.657  -0.860  0.00  0.00    +0.014 A 
ATOM      2  C   UNL     1      -5.520  -3.903  -0.302  0.00  0.00    +0.100 A 
ATOM      3  C   UNL     1      -6.865  -4.312  -0.216  0.00  0.00    +0.136 A 
ATOM      4  N   UNL     1      -7.830  -3.522  -0.661  0.00  0.00    -0.224 NA
ATOM      5  C   UNL     1      -7.577  -2.344  -1.192  0.00  0.00    +0.113 A 
ATOM      6  C   UNL     1      -6.267  -1.825  -1.325  0.00  0.00    +0.038 A 
ATOM      7  C   UNL     1      -6.181  -0.508  -1.927  0.00  0.00    +0.052 A 
ATOM      8  C   UNL     1      -7.358   0.118  -2.306  0.00  0.00    +0.077 A 
ATOM      9  S   UNL     1      -8.613  -1.069  -1.870  0.00  0.00    -0.064 S 
ENDROOT
BRANCH   1  13
ATOM     10  C   UNL     1      -1.167  -1.369  -1.145  0.00  0.00    -0.045 A 
ATOM     11  C   UNL     1      -1.862  -1.715  -2.290  0.00  0.00    +0.004 A 
ATOM     12  C   UNL     1      -3.174  -2.134  -2.204  0.00  0.00    +0.009 A 
ATOM     13  C   UNL     1      -3.799  -2.209  -0.959  0.00  0.00    -0.016 A 
ATOM     14  C   UNL     1      -3.092  -1.859   0.193  0.00  0.00    +0.009 A 
ATOM     15  C   UNL     1      -1.779  -1.447   0.094  0.00  0.00    +0.004 A 
BRANCH  10  17
ATOM     16  C   UNL     1       1.110  -2.019  -1.880  0.00  0.00    +0.012 C 
ATOM     17  C   UNL     1       0.266  -0.912  -1.246  0.00  0.00    +0.013 C 
ATOM     18  C   UNL     1       0.340   0.346  -2.113  0.00  0.00    +0.012 C 
ENDBRANCH  10  17
ENDBRANCH   1  13
BRANCH   8  19
ATOM     19  C   UNL     1      -7.521   1.377  -2.900  0.00  0.00    +0.168 C 
ATOM     20  O   UNL     1      -6.548   2.066  -3.143  0.00  0.00    -0.292 OA
ATOM     21  C   UNL     1      -8.901   1.878  -3.238  0.00  0.00    +0.092 C 
ENDBRANCH   8  19
BRANCH   7  22
ATOM     22  N   UNL     1      -4.956   0.107  -2.117  0.00  0.00    -0.356 N 
ATOM     23  H   UNL     1      -4.185  -0.178  -1.602  0.00  0.00    +0.142 HD
ATOM     24  H   UNL     1      -4.868   0.824  -2.765  0.00  0.00    +0.142 HD
ENDBRANCH   7  22
BRANCH   3  25
ATOM     25  N   UNL     1      -7.179  -5.540   0.333  0.00  0.00    -0.342 N 
ATOM     26  H   UNL     1      -6.473  -6.120   0.659  0.00  0.00    +0.144 HD
ATOM     27  H   UNL     1      -8.105  -5.823   0.393  0.00  0.00    +0.144 HD
ENDBRANCH   3  25
BRANCH   2  28
ATOM     28  C   UNL     1      -4.477  -4.759   0.179  0.00  0.00    +0.103 C 
ATOM     29  N   UNL     1      -3.650  -5.437   0.561  0.00  0.00    -0.191 NA
ENDBRANCH   2  28
TORSDOF 6
