REMARK  Name = ZINC13499160
REMARK  12 active torsions:
REMARK  status: ('A' for Active; 'I' for Inactive)
REMARK    1  A    between atoms: C_1  and  C_2
REMARK    2  A    between atoms: C_7  and  C_15
REMARK    3  A    between atoms: C_13  and  C_14
REMARK    4  A    between atoms: C_15  and  N_69
REMARK    5  A    between atoms: C_16  and  N_69
REMARK    6  A    between atoms: C_21  and  C_23
REMARK    7  A    between atoms: C_21  and  C_34
REMARK    8  A    between atoms: C_21  and  N_69
REMARK    9  A    between atoms: N_27  and  C_28
REMARK   10  A    between atoms: C_28  and  C_29
REMARK   11  A    between atoms: C_34  and  C_35
REMARK   12  A    between atoms: C_34  and  C_36
REMARK                            x       y       z     vdW  Elec       q    Type
REMARK                         _______ _______ _______ _____ _____    ______ ____
ROOT
ATOM      1  N   UNL     1      -0.691   1.711   0.581  0.00  0.00    +0.391 N 
ATOM      2  H   UNL     1      -0.514   2.695   0.350  0.00  0.00    -0.080 HD
ENDROOT
BRANCH   1   3
ATOM      3  C   UNL     1      -0.349   0.874  -0.588  0.00  0.00    -0.067 C 
ATOM      4  C   UNL     1      -1.232  -0.397  -0.654  0.00  0.00    -0.015 C 
ATOM      5  C   UNL     1      -1.185  -0.768  -2.157  0.00  0.00    -0.002 C 
ATOM      6  C   UNL     1      -1.216   0.592  -2.884  0.00  0.00    -0.002 C 
ATOM      7  C   UNL     1      -0.685   1.636  -1.886  0.00  0.00    -0.015 C 
ENDBRANCH   1   3
BRANCH   1   8
ATOM      8  C   UNL     1       0.148   1.331   1.737  0.00  0.00    -0.036 C 
BRANCH   8  15
ATOM      9  C   UNL     1       7.032   5.343   1.356  0.00  0.00    +0.044 C 
ATOM     10  C   UNL     1       5.654   4.766   1.554  0.00  0.00    -0.046 A 
ATOM     11  C   UNL     1       4.710   5.477   2.283  0.00  0.00    +0.004 A 
ATOM     12  C   UNL     1       3.455   4.972   2.473  0.00  0.00    +0.010 A 
ATOM     13  C   UNL     1       3.118   3.728   1.929  0.00  0.00    -0.001 A 
ATOM     14  C   UNL     1       1.782   3.157   2.115  0.00  0.00    +0.017 A 
ATOM     15  C   UNL     1       1.513   1.947   1.565  0.00  0.00    +0.001 A 
ATOM     16  C   UNL     1       2.508   1.260   0.837  0.00  0.00    +0.251 A 
ATOM     17  O   UNL     1       2.246   0.172   0.355  0.00  0.00    -0.268 OA
ATOM     18  N   UNL     1       3.735   1.779   0.657  0.00  0.00    -0.322 N 
ATOM     19  H   UNL     1       4.394   1.282   0.147  0.00  0.00    +0.169 HD
ATOM     20  C   UNL     1       4.072   3.005   1.190  0.00  0.00    +0.052 A 
ATOM     21  C   UNL     1       5.344   3.539   1.008  0.00  0.00    -0.024 A 
ATOM     22  C   UNL     1       6.378   2.780   0.218  0.00  0.00    +0.046 C 
ENDBRANCH   8  15
ENDBRANCH   1   8
BRANCH   1  23
ATOM     23  C   UNL     1      -2.120   1.546   0.920  0.00  0.00    +0.006 C 
BRANCH  23  24
ATOM     24  C   UNL     1      -2.419   2.317   2.180  0.00  0.00    +0.139 A 
ATOM     25  N   UNL     1      -2.011   3.528   2.472  0.00  0.00    -0.115 NA
ATOM     26  N   UNL     1      -2.474   3.834   3.635  0.00  0.00    -0.023 NA
ATOM     27  N   UNL     1      -3.167   2.850   4.092  0.00  0.00    -0.044 NA
ATOM     28  N   UNL     1      -3.161   1.897   3.221  0.00  0.00    -0.223 N 
BRANCH  28  29
ATOM     29  C   UNL     1      -3.834   0.602   3.345  0.00  0.00    +0.221 C 
BRANCH  29  30
ATOM     30  C   UNL     1      -2.902  -0.388   3.997  0.00  0.00    +0.126 A 
ATOM     31  C   UNL     1      -2.790  -0.610   5.319  0.00  0.00    +0.046 A 
ATOM     32  C   UNL     1      -1.808  -1.613   5.483  0.00  0.00    +0.041 A 
ATOM     33  C   UNL     1      -1.372  -1.938   4.253  0.00  0.00    +0.195 A 
ATOM     34  O   UNL     1      -2.039  -1.192   3.356  0.00  0.00    -0.466 OA
ENDBRANCH  29  30
ENDBRANCH  28  29
ENDBRANCH  23  24
BRANCH  23  35
ATOM     35  C   UNL     1      -2.967   2.099  -0.229  0.00  0.00    -0.024 C 
ATOM     36  C   UNL     1      -4.449   1.868   0.073  0.00  0.00    +0.006 C 
ATOM     37  C   UNL     1      -2.705   3.599  -0.379  0.00  0.00    +0.006 C 
ENDBRANCH  23  35
ENDBRANCH   1  23
TORSDOF 8
