REMARK  Name = ZINC53113193
REMARK  7 active torsions:
REMARK  status: ('A' for Active; 'I' for Inactive)
REMARK    1  A    between atoms: C_1  and  C_2
REMARK    2  A    between atoms: C_7  and  C_9
REMARK    3  A    between atoms: C_7  and  N_11
REMARK    4  A    between atoms: C_9  and  O_10
REMARK    5  A    between atoms: N_11  and  S_12
REMARK    6  A    between atoms: S_12  and  C_15
REMARK    7  A    between atoms: C_19  and  N_21
REMARK                            x       y       z     vdW  Elec       q    Type
REMARK                         _______ _______ _______ _____ _____    ______ ____
ROOT
ATOM      1  S   UNL     1       1.534   1.964   2.570  0.00  0.00    +0.059 S 
ATOM      2  O   UNL     1       1.316   3.357   2.744  0.00  0.00    -0.153 OA
ATOM      3  O   UNL     1       0.469   1.023   2.557  0.00  0.00    -0.153 OA
ENDROOT
BRANCH   1   4
ATOM      4  C   UNL     1       2.634   1.462   3.851  0.00  0.00    +0.107 A 
ATOM      5  C   UNL     1       2.494   0.215   4.431  0.00  0.00    +0.031 A 
ATOM      6  C   UNL     1       3.356  -0.184   5.437  0.00  0.00    +0.042 A 
ATOM      7  C   UNL     1       4.359   0.665   5.866  0.00  0.00    +0.144 A 
ATOM      8  C   UNL     1       4.502   1.920   5.284  0.00  0.00    +0.062 A 
ATOM      9  C   UNL     1       3.638   2.313   4.270  0.00  0.00    +0.054 A 
ATOM     10  F   UNL     1       5.201   0.276   6.849  0.00  0.00    -0.204 F 
BRANCH   8  11
ATOM     11  N   UNL     1       5.516   2.781   5.714  0.00  0.00    -0.356 N 
ATOM     12  H   UNL     1       6.121   2.504   6.420  0.00  0.00    +0.142 HD
ATOM     13  H   UNL     1       5.614   3.656   5.308  0.00  0.00    +0.142 HD
ENDBRANCH   8  11
ENDBRANCH   1   4
BRANCH   1  14
ATOM     14  N   UNL     1       2.340   1.786   1.134  0.00  0.00    -0.182 NA
ATOM     15  H   UNL     1       2.658   2.568   0.657  0.00  0.00    +0.149 HD
BRANCH  14  21
ATOM     16  C   UNL     1       0.312   2.090  -0.295  0.00  0.00    +0.007 C 
ATOM     17  C   UNL     1       0.556   0.693  -0.868  0.00  0.00    -0.012 C 
ATOM     18  C   UNL     1       1.456   0.796  -2.100  0.00  0.00    +0.003 C 
ATOM     19  C   UNL     1       2.794   1.425  -1.703  0.00  0.00    +0.002 C 
ATOM     20  C   UNL     1       3.474   0.551  -0.647  0.00  0.00    +0.026 C 
ATOM     21  C   UNL     1       2.573   0.448   0.586  0.00  0.00    +0.063 C 
ATOM     22  C   UNL     1       1.236  -0.180   0.189  0.00  0.00    +0.029 C 
BRANCH  21  23
ATOM     23  C   UNL     1       3.253  -0.425   1.642  0.00  0.00    +0.179 C 
BRANCH  23  24
ATOM     24  O   UNL     1       4.480   0.185   2.047  0.00  0.00    -0.393 OA
ATOM     25  H   UNL     1       4.966  -0.315   2.717  0.00  0.00    +0.209 HD
ENDBRANCH  23  24
ENDBRANCH  21  23
ENDBRANCH  14  21
ENDBRANCH   1  14
TORSDOF 6
