REMARK  Name = ZINC04758757
REMARK  2 active torsions:
REMARK  status: ('A' for Active; 'I' for Inactive)
REMARK    1  A    between atoms: C_1  and  C_2
REMARK    2  A    between atoms: C_6  and  C_11
REMARK                            x       y       z     vdW  Elec       q    Type
REMARK                         _______ _______ _______ _____ _____    ______ ____
ROOT
ATOM      1  C   UNL     1      -4.496   1.342  -1.052  0.00  0.00    +0.020 C 
ATOM      2  C   UNL     1      -3.142   1.889  -0.598  0.00  0.00    +0.057 C 
ATOM      3  C   UNL     1      -2.035   1.313  -1.481  0.00  0.00    +0.016 C 
ATOM      4  C   UNL     1      -0.715   2.035  -1.251  0.00  0.00    +0.018 C 
ATOM      5  C   UNL     1      -0.019   1.526   0.010  0.00  0.00    +0.086 C 
ATOM      6  S   UNL     1      -0.932   2.115   1.470  0.00  0.00    +0.084 S 
ATOM      7  O   UNL     1      -1.081   3.526   1.398  0.00  0.00    -0.246 OA
ATOM      8  S   UNL     1      -2.833   1.397   1.127  0.00  0.00    -0.058 S 
ATOM      9  C   UNL     1       0.002  -0.004   0.002  0.00  0.00    +0.022 C 
ENDROOT
TORSDOF 0
