REMARK  Name = ZINC38930491
REMARK  12 active torsions:
REMARK  status: ('A' for Active; 'I' for Inactive)
REMARK    1  A    between atoms: C_1  and  C_2
REMARK    2  A    between atoms: C_2  and  O_3
REMARK    3  A    between atoms: O_3  and  C_4
REMARK    4  A    between atoms: C_13  and  C_14
REMARK    5  A    between atoms: C_14  and  N_16
REMARK    6  A    between atoms: N_18  and  C_30
REMARK    7  A    between atoms: C_22  and  S_26
REMARK    8  A    between atoms: S_26  and  N_29
REMARK    9  A    between atoms: C_30  and  C_31
REMARK   10  A    between atoms: C_31  and  O_33
REMARK   11  A    between atoms: O_33  and  C_34
REMARK   12  A    between atoms: C_34  and  C_35
REMARK                            x       y       z     vdW  Elec       q    Type
REMARK                         _______ _______ _______ _____ _____    ______ ____
ROOT
ATOM      1  N   UNL     1       1.214  -0.974  -4.479  0.00  0.00    -0.152 NA
ATOM      2  C   UNL     1       1.699  -0.110  -5.362  0.00  0.00    +0.167 A 
ATOM      3  N   UNL     1       2.955   0.411  -5.446  0.00  0.00    -0.310 N 
ATOM      4  C   UNL     1       3.273   1.309  -6.449  0.00  0.00    +0.058 A 
ATOM      5  C   UNL     1       4.510   1.936  -6.677  0.00  0.00    +0.029 A 
ATOM      6  C   UNL     1       4.675   2.812  -7.722  0.00  0.00    +0.030 A 
ATOM      7  C   UNL     1       3.632   3.106  -8.585  0.00  0.00    +0.106 A 
ATOM      8  C   UNL     1       2.403   2.503  -8.386  0.00  0.00    +0.045 A 
ATOM      9  C   UNL     1       2.237   1.627  -7.340  0.00  0.00    +0.041 A 
ATOM     10  S   UNL     1       0.872   0.658  -6.745  0.00  0.00    -0.052 S 
ENDROOT
BRANCH   7  11
ATOM     11  S   UNL     1       3.868   4.234  -9.918  0.00  0.00    +0.056 S 
ATOM     12  O   UNL     1       2.585   4.750 -10.246  0.00  0.00    -0.153 OA
ATOM     13  O   UNL     1       4.956   5.073  -9.553  0.00  0.00    -0.153 OA
BRANCH  11  14
ATOM     14  N   UNL     1       4.370   3.349 -11.225  0.00  0.00    -0.204 NA
ATOM     15  H   UNL     1       4.479   2.388 -11.147  0.00  0.00    +0.144 HD
ATOM     16  H   UNL     1       4.556   3.792 -12.068  0.00  0.00    +0.144 HD
ENDBRANCH  11  14
ENDBRANCH   7  11
BRANCH   1  17
ATOM     17  C   UNL     1       2.023  -1.518  -3.560  0.00  0.00    +0.274 C 
ATOM     18  O   UNL     1       3.008  -2.146  -3.910  0.00  0.00    -0.268 OA
BRANCH  17  28
ATOM     19  C   UNL     1       2.228  -0.273  -1.410  0.00  0.00    +0.133 A 
ATOM     20  C   UNL     1       1.935  -0.123  -0.053  0.00  0.00    +0.047 A 
ATOM     21  C   UNL     1       1.162  -1.018   0.614  0.00  0.00    +0.012 A 
ATOM     22  C   UNL     1       0.625  -2.138  -0.046  0.00  0.00    -0.017 A 
ATOM     23  C   UNL     1      -0.177  -3.071   0.634  0.00  0.00    +0.008 A 
ATOM     24  C   UNL     1      -0.681  -4.143  -0.037  0.00  0.00    +0.001 A 
ATOM     25  C   UNL     1      -0.414  -4.332  -1.390  0.00  0.00    +0.001 A 
ATOM     26  C   UNL     1       0.359  -3.447  -2.081  0.00  0.00    +0.009 A 
ATOM     27  C   UNL     1       0.893  -2.333  -1.423  0.00  0.00    -0.002 A 
ATOM     28  C   UNL     1       1.723  -1.357  -2.126  0.00  0.00    +0.088 A 
BRANCH  19  29
ATOM     29  O   UNL     1       3.005   0.645  -2.037  0.00  0.00    -0.491 OA
BRANCH  29  31
ATOM     30  C   UNL     1       4.341   2.657  -2.119  0.00  0.00    +0.048 C 
ATOM     31  C   UNL     1       3.491   1.732  -1.246  0.00  0.00    +0.226 C 
ENDBRANCH  29  31
ENDBRANCH  19  29
ENDBRANCH  17  28
ENDBRANCH   1  17
BRANCH   3  32
ATOM     32  C   UNL     1       3.974   0.020  -4.468  0.00  0.00    +0.244 C 
BRANCH  32  33
ATOM     33  C   UNL     1       4.818  -1.090  -5.040  0.00  0.00    +0.327 C 
ATOM     34  O   UNL     1       4.592  -1.511  -6.150  0.00  0.00    -0.249 OA
BRANCH  33  35
ATOM     35  O   UNL     1       5.821  -1.611  -4.316  0.00  0.00    -0.464 OA
BRANCH  35  36
ATOM     36  C   UNL     1       6.580  -2.660  -4.920  0.00  0.00    +0.229 C 
ATOM     37  C   UNL     1       7.670  -3.124  -3.952  0.00  0.00    +0.048 C 
ENDBRANCH  35  36
ENDBRANCH  33  35
ENDBRANCH  32  33
ENDBRANCH   3  32
TORSDOF 10
