REMARK  Name = ZINC22301642
REMARK  12 active torsions:
REMARK  status: ('A' for Active; 'I' for Inactive)
REMARK    1  A    between atoms: C_1  and  C_2
REMARK    2  A    between atoms: C_5  and  C_8
REMARK    3  A    between atoms: C_8  and  N_9
REMARK    4  A    between atoms: C_10  and  C_35
REMARK    5  A    between atoms: C_11  and  C_15
REMARK    6  A    between atoms: C_12  and  C_14
REMARK    7  A    between atoms: C_16  and  C_17
REMARK    8  A    between atoms: C_17  and  O_19
REMARK    9  A    between atoms: O_19  and  C_20
REMARK   10  A    between atoms: C_20  and  C_22
REMARK   11  A    between atoms: C_20  and  C_23
REMARK   12  A    between atoms: N_28  and  C_29
REMARK                            x       y       z     vdW  Elec       q    Type
REMARK                         _______ _______ _______ _____ _____    ______ ____
ROOT
ATOM      1  C   UNL     1       6.880  -5.622  -2.154  0.00  0.00    +0.333 C 
ATOM      2  O   UNL     1       6.719  -6.412  -3.065  0.00  0.00    -0.246 OA
ENDROOT
BRANCH   1   4
ATOM      3  C   UNL     1       4.565  -5.789  -1.556  0.00  0.00    +0.018 C 
ATOM      4  C   UNL     1       5.787  -5.258  -1.330  0.00  0.00    +0.092 C 
BRANCH   3   7
ATOM      5  N   UNL     1       1.447  -4.746  -0.032  0.00  0.00    -0.263 N 
ATOM      6  C   UNL     1       2.186  -4.987  -1.128  0.00  0.00    +0.044 A 
ATOM      7  C   UNL     1       3.431  -5.412  -0.701  0.00  0.00    +0.018 A 
ATOM      8  C   UNL     1       3.407  -5.416   0.713  0.00  0.00    +0.067 A 
ATOM      9  N   UNL     1       2.227  -5.014   1.098  0.00  0.00    -0.175 NA
ATOM     10  C   UNL     1       4.547  -5.809   1.617  0.00  0.00    +0.068 C 
ATOM     11  C   UNL     1       1.740  -4.825  -2.558  0.00  0.00    +0.066 C 
BRANCH   5  12
ATOM     12  C   UNL     1       0.059  -4.275  -0.021  0.00  0.00    +0.178 C 
BRANCH  12  17
ATOM     13  C   UNL     1      -0.018   1.503   0.010  0.00  0.00    +0.044 C 
ATOM     14  C   UNL     1       0.002  -0.004   0.002  0.00  0.00    -0.050 A 
ATOM     15  C   UNL     1       0.006  -0.689  -1.199  0.00  0.00    +0.004 A 
ATOM     16  C   UNL     1       0.025  -2.071  -1.206  0.00  0.00    +0.006 A 
ATOM     17  C   UNL     1       0.040  -2.768  -0.013  0.00  0.00    -0.026 A 
ATOM     18  C   UNL     1       0.037  -2.084   1.188  0.00  0.00    +0.006 A 
ATOM     19  C   UNL     1       0.023  -0.702   1.195  0.00  0.00    +0.004 A 
ENDBRANCH  12  17
ENDBRANCH   5  12
ENDBRANCH   3   7
ENDBRANCH   1   4
BRANCH   1  20
ATOM     20  O   UNL     1       8.100  -5.091  -1.929  0.00  0.00    -0.449 OA
BRANCH  20  21
ATOM     21  C   UNL     1       9.157  -5.503  -2.798  0.00  0.00    +0.259 C 
ATOM     22  C   UNL     1       9.843  -6.740  -2.217  0.00  0.00    +0.062 C 
BRANCH  21  23
ATOM     23  C   UNL     1      10.161  -4.387  -2.931  0.00  0.00    +0.261 C 
ATOM     24  O   UNL     1      10.038  -3.378  -2.270  0.00  0.00    -0.271 OA
ATOM     25  N   UNL     1      11.197  -4.511  -3.785  0.00  0.00    -0.237 N 
ATOM     26  C   UNL     1      12.095  -3.513  -3.904  0.00  0.00    +0.306 C 
ATOM     27  O   UNL     1      11.971  -2.502  -3.241  0.00  0.00    -0.252 OA
ATOM     28  N   UNL     1      13.131  -3.637  -4.757  0.00  0.00    -0.296 N 
ATOM     29  H   UNL     1      11.296  -5.318  -4.314  0.00  0.00    +0.159 HD
ATOM     30  H   UNL     1      13.230  -4.444  -5.286  0.00  0.00    +0.151 HD
BRANCH  28  31
ATOM     31  C   UNL     1      14.107  -2.553  -4.886  0.00  0.00    +0.074 C 
ATOM     32  C   UNL     1      13.593  -1.520  -5.891  0.00  0.00    +0.022 C 
ATOM     33  C   UNL     1      14.612  -0.387  -6.026  0.00  0.00    +0.002 C 
ATOM     34  C   UNL     1      15.945  -0.957  -6.517  0.00  0.00    +0.000 C 
ATOM     35  C   UNL     1      16.460  -1.989  -5.512  0.00  0.00    +0.002 C 
ATOM     36  C   UNL     1      15.440  -3.122  -5.377  0.00  0.00    +0.022 C 
ENDBRANCH  28  31
ENDBRANCH  21  23
ENDBRANCH  20  21
ENDBRANCH   1  20
TORSDOF 8
