REMARK  Name = ZINC33622160
REMARK  14 active torsions:
REMARK  status: ('A' for Active; 'I' for Inactive)
REMARK    1  A    between atoms: C_1  and  C_2
REMARK    2  A    between atoms: C_2  and  N_3
REMARK    3  A    between atoms: N_3  and  C_4
REMARK    4  A    between atoms: N_3  and  C_6
REMARK    5  A    between atoms: C_4  and  C_5
REMARK    6  A    between atoms: C_6  and  C_7
REMARK    7  A    between atoms: C_7  and  C_8
REMARK    8  A    between atoms: C_8  and  C_9
REMARK    9  A    between atoms: C_9  and  C_11
REMARK   10  A    between atoms: C_9  and  N_12
REMARK   11  A    between atoms: C_13  and  C_15
REMARK   12  A    between atoms: C_17  and  C_27
REMARK   13  A    between atoms: N_19  and  C_20
REMARK   14  A    between atoms: C_30  and  N_33
REMARK                            x       y       z     vdW  Elec       q    Type
REMARK                         _______ _______ _______ _____ _____    ______ ____
ROOT
ATOM      1  C   UNL     1      -3.323  -1.737   1.202  0.00  0.00    +0.130 A 
ATOM      2  C   UNL     1      -4.412  -1.052   0.698  0.00  0.00    +0.063 A 
ATOM      3  C   UNL     1      -5.437  -2.011   0.591  0.00  0.00    +0.094 A 
ATOM      4  N   UNL     1      -4.951  -3.162   1.009  0.00  0.00    -0.166 NA
ATOM      5  N   UNL     1      -3.724  -3.036   1.365  0.00  0.00    -0.226 N 
ENDROOT
BRANCH   5   6
ATOM      6  C   UNL     1      -2.917  -4.072   1.851  0.00  0.00    +0.084 A 
ATOM      7  C   UNL     1      -1.704  -4.356   1.238  0.00  0.00    +0.029 A 
ATOM      8  C   UNL     1      -0.911  -5.379   1.720  0.00  0.00    +0.002 A 
ATOM      9  C   UNL     1      -1.323  -6.120   2.812  0.00  0.00    +0.002 A 
ATOM     10  C   UNL     1      -2.530  -5.841   3.425  0.00  0.00    +0.022 A 
ATOM     11  C   UNL     1      -3.327  -4.815   2.952  0.00  0.00    +0.066 A 
ATOM     12 CL   UNL     1      -4.839  -4.460   3.727  0.00  0.00    -0.081 Cl
ENDBRANCH   5   6
BRANCH   3  13
ATOM     13  C   UNL     1      -6.815  -1.769   0.095  0.00  0.00    +0.002 A 
ATOM     14  C   UNL     1      -7.197  -0.493  -0.313  0.00  0.00    +0.012 A 
ATOM     15  C   UNL     1      -8.479  -0.275  -0.777  0.00  0.00    +0.033 A 
ATOM     16  C   UNL     1      -9.386  -1.319  -0.828  0.00  0.00    +0.126 A 
ATOM     17  C   UNL     1      -9.013  -2.586  -0.419  0.00  0.00    +0.033 A 
ATOM     18  C   UNL     1      -7.732  -2.816   0.043  0.00  0.00    +0.012 A 
BRANCH  16  19
ATOM     19  N   UNL     1     -10.760  -1.077  -1.322  0.00  0.00    +0.056 N 
ATOM     20  O   UNL     1     -11.560  -1.994  -1.367  0.00  0.00    -0.126 OA
ATOM     21  O   UNL     1     -11.091   0.038  -1.683  0.00  0.00    -0.126 OA
ENDBRANCH  16  19
ENDBRANCH   3  13
BRANCH   1  23
ATOM     22  N   UNL     1      -1.731   0.114   1.238  0.00  0.00    -0.308 N 
ATOM     23  C   UNL     1      -1.993  -1.182   1.498  0.00  0.00    +0.263 C 
ATOM     24  O   UNL     1      -1.131  -1.892   1.979  0.00  0.00    -0.269 OA
ATOM     25  H   UNL     1      -2.534   0.777   0.883  0.00  0.00    +0.149 HD
BRANCH  22  26
ATOM     26  C   UNL     1      -0.377   0.640   1.427  0.00  0.00    +0.070 C 
ATOM     27  C   UNL     1       0.435   0.432   0.146  0.00  0.00    +0.028 C 
BRANCH  26  28
ATOM     28  C   UNL     1      -0.450   2.134   1.747  0.00  0.00    +0.020 C 
BRANCH  28  29
ATOM     29  C   UNL     1      -1.165   2.334   3.085  0.00  0.00    -0.017 C 
BRANCH  29  30
ATOM     30  C   UNL     1      -1.238   3.829   3.405  0.00  0.00    -0.079 C 
BRANCH  30  31
ATOM     31  N   UNL     1      -1.826   4.016   4.738  0.00  0.00    +0.379 N 
ATOM     32  H   UNL     1      -2.677   3.325   4.832  0.00  0.00    -0.082 HD
BRANCH  31  34
ATOM     33  C   UNL     1      -1.569   3.648   7.146  0.00  0.00    -0.017 C 
ATOM     34  C   UNL     1      -0.858   3.684   5.792  0.00  0.00    -0.082 C 
ENDBRANCH  31  34
BRANCH  31  35
ATOM     35  C   UNL     1      -2.334   5.384   4.902  0.00  0.00    -0.082 C 
ATOM     36  C   UNL     1      -3.648   5.536   4.132  0.00  0.00    -0.017 C 
ENDBRANCH  31  35
ENDBRANCH  30  31
ENDBRANCH  29  30
ENDBRANCH  28  29
ENDBRANCH  26  28
ENDBRANCH  22  26
ENDBRANCH   1  23
TORSDOF 11
