REMARK  Name = ZINC35664155
REMARK  14 active torsions:
REMARK  status: ('A' for Active; 'I' for Inactive)
REMARK    1  A    between atoms: C_1  and  C_2
REMARK    2  A    between atoms: C_2  and  N_3
REMARK    3  A    between atoms: C_4  and  C_25
REMARK    4  A    between atoms: C_5  and  C_20
REMARK    5  A    between atoms: C_6  and  C_11
REMARK    6  A    between atoms: C_14  and  C_17
REMARK    7  A    between atoms: C_17  and  C_18
REMARK    8  A    between atoms: C_17  and  C_19
REMARK    9  A    between atoms: C_20  and  O_22
REMARK   10  A    between atoms: O_22  and  C_23
REMARK   11  A    between atoms: C_23  and  C_24
REMARK   12  A    between atoms: C_25  and  N_26
REMARK   13  A    between atoms: C_30  and  C_33
REMARK   14  A    between atoms: C_34  and  C_36
REMARK                            x       y       z     vdW  Elec       q    Type
REMARK                         _______ _______ _______ _____ _____    ______ ____
ROOT
ATOM      1  N   UNL     1      -0.341   0.365  -3.088  0.00  0.00    -0.258 N 
ATOM      2  C   UNL     1      -1.262   0.246  -4.090  0.00  0.00    +0.041 C 
ATOM      3  C   UNL     1      -0.880  -0.004  -5.361  0.00  0.00    +0.080 C 
ATOM      4  C   UNL     1       0.602  -0.148  -5.637  0.00  0.00    +0.144 C 
ATOM      5  N   UNL     1       1.512  -0.002  -4.488  0.00  0.00    -0.288 N 
ATOM      6  C   UNL     1       0.980   0.252  -3.277  0.00  0.00    +0.307 C 
ATOM      7  O   UNL     1       1.722   0.378  -2.323  0.00  0.00    -0.252 OA
ATOM      8  H   UNL     1       2.472  -0.084  -4.602  0.00  0.00    +0.151 HD
ENDROOT
BRANCH   4   9
ATOM      9  C   UNL     1       0.986   0.884  -6.666  0.00  0.00    -0.022 A 
ATOM     10  C   UNL     1       1.205   2.194  -6.283  0.00  0.00    +0.006 A 
ATOM     11  C   UNL     1       1.556   3.141  -7.227  0.00  0.00    +0.004 A 
ATOM     12  C   UNL     1       1.689   2.778  -8.554  0.00  0.00    -0.045 A 
ATOM     13  C   UNL     1       1.470   1.468  -8.937  0.00  0.00    +0.004 A 
ATOM     14  C   UNL     1       1.123   0.520  -7.992  0.00  0.00    +0.006 A 
BRANCH  12  15
ATOM     15  C   UNL     1       2.071   3.810  -9.583  0.00  0.00    +0.013 C 
ATOM     16  C   UNL     1       3.382   3.398 -10.256  0.00  0.00    +0.012 C 
ATOM     17  C   UNL     1       0.967   3.912 -10.637  0.00  0.00    +0.012 C 
ENDBRANCH  12  15
ENDBRANCH   4   9
BRANCH   1  19
ATOM     18  C   UNL     1      -0.909   2.148  -1.514  0.00  0.00    +0.025 C 
ATOM     19  C   UNL     1      -0.826   0.636  -1.732  0.00  0.00    +0.111 C 
ENDBRANCH   1  19
BRANCH   3  20
ATOM     20  C   UNL     1      -1.833  -0.128  -6.399  0.00  0.00    +0.339 C 
ATOM     21  O   UNL     1      -2.188  -1.231  -6.771  0.00  0.00    -0.245 OA
BRANCH  20  22
ATOM     22  O   UNL     1      -2.349   0.977  -6.977  0.00  0.00    -0.462 OA
BRANCH  22  23
ATOM     23  C   UNL     1      -3.306   0.777  -8.019  0.00  0.00    +0.229 C 
ATOM     24  C   UNL     1      -3.774   2.135  -8.549  0.00  0.00    +0.048 C 
ENDBRANCH  22  23
ENDBRANCH  20  22
ENDBRANCH   3  20
BRANCH   2  25
ATOM     25  C   UNL     1      -2.727   0.396  -3.771  0.00  0.00    +0.136 C 
BRANCH  25  26
ATOM     26  N   UNL     1      -3.160  -0.720  -2.921  0.00  0.00    -0.294 NA
ATOM     27  C   UNL     1      -3.082  -1.996  -3.645  0.00  0.00    +0.104 C 
ATOM     28  C   UNL     1      -3.365  -3.148  -2.676  0.00  0.00    +0.124 C 
ATOM     29  N   UNL     1      -4.650  -2.891  -2.008  0.00  0.00    -0.292 N 
ATOM     30  C   UNL     1      -4.855  -1.579  -1.375  0.00  0.00    +0.087 C 
ATOM     31  C   UNL     1      -4.513  -0.488  -2.396  0.00  0.00    +0.107 C 
ATOM     32  C   UNL     1      -6.315  -1.441  -0.940  0.00  0.00    +0.029 C 
ATOM     33  C   UNL     1      -5.613  -3.833  -1.975  0.00  0.00    +0.247 C 
ATOM     34  O   UNL     1      -6.705  -3.570  -1.510  0.00  0.00    -0.270 OA
BRANCH  33  35
ATOM     35  C   UNL     1      -5.343  -5.187  -2.504  0.00  0.00    +0.037 A 
ATOM     36  C   UNL     1      -4.043  -5.696  -2.494  0.00  0.00    +0.013 A 
ATOM     37  C   UNL     1      -3.797  -6.960  -2.989  0.00  0.00    +0.001 A 
ATOM     38  C   UNL     1      -4.835  -7.722  -3.495  0.00  0.00    +0.000 A 
ATOM     39  C   UNL     1      -6.125  -7.223  -3.509  0.00  0.00    +0.001 A 
ATOM     40  C   UNL     1      -6.386  -5.963  -3.011  0.00  0.00    +0.013 A 
ENDBRANCH  33  35
ENDBRANCH  25  26
ENDBRANCH   2  25
TORSDOF 9
