REMARK  Name = ZINC35954334
REMARK  13 active torsions:
REMARK  status: ('A' for Active; 'I' for Inactive)
REMARK    1  A    between atoms: C_1  and  C_2
REMARK    2  A    between atoms: C_2  and  C_3
REMARK    3  A    between atoms: C_3  and  N_4
REMARK    4  A    between atoms: N_4  and  C_5
REMARK    5  A    between atoms: N_4  and  S_27
REMARK    6  A    between atoms: C_5  and  C_6
REMARK    7  A    between atoms: C_7  and  C_26
REMARK    8  A    between atoms: N_9  and  C_19
REMARK    9  A    between atoms: C_10  and  N_11
REMARK   10  A    between atoms: N_14  and  C_17
REMARK   11  A    between atoms: C_17  and  C_18
REMARK   12  A    between atoms: S_27  and  C_30
REMARK   13  A    between atoms: C_31  and  C_32
REMARK                            x       y       z     vdW  Elec       q    Type
REMARK                         _______ _______ _______ _____ _____    ______ ____
ROOT
ATOM      1  C   UNL     1      -0.453  -2.654  -3.613  0.00  0.00    +0.031 A 
ATOM      2  C   UNL     1      -0.640  -1.439  -4.280  0.00  0.00    +0.067 A 
ATOM      3  N   UNL     1       0.067  -1.457  -5.381  0.00  0.00    -0.170 NA
ATOM      4  N   UNL     1       0.734  -2.686  -5.460  0.00  0.00    -0.218 N 
ATOM      5  C   UNL     1       0.404  -3.409  -4.355  0.00  0.00    +0.129 A 
ATOM      6  C   UNL     1      -1.509  -0.302  -3.809  0.00  0.00    +0.068 C 
ENDROOT
BRANCH   5   7
ATOM      7  N   UNL     1       0.856  -4.688  -4.043  0.00  0.00    -0.318 N 
ATOM      8  C   UNL     1       0.034  -5.873  -4.334  0.00  0.00    +0.088 C 
ATOM      9  C   UNL     1       0.897  -6.889  -5.090  0.00  0.00    -0.060 C 
ATOM     10  N   UNL     1       2.112  -7.170  -4.315  0.00  0.00    +0.382 N 
ATOM     11  C   UNL     1       2.931  -5.955  -4.212  0.00  0.00    -0.060 C 
ATOM     12  C   UNL     1       2.171  -4.894  -3.417  0.00  0.00    +0.088 C 
ATOM     13  H   UNL     1       1.856  -7.481  -3.390  0.00  0.00    -0.082 HD
BRANCH  10  14
ATOM     14  C   UNL     1       2.886  -8.223  -4.986  0.00  0.00    -0.082 C 
ATOM     15  C   UNL     1       4.087  -8.605  -4.118  0.00  0.00    -0.017 C 
ENDBRANCH  10  14
ENDBRANCH   5   7
BRANCH   4  16
ATOM     16  C   UNL     1       1.592  -3.096  -6.489  0.00  0.00    +0.070 A 
ATOM     17  C   UNL     1       2.892  -3.489  -6.196  0.00  0.00    +0.028 A 
ATOM     18  C   UNL     1       3.736  -3.893  -7.212  0.00  0.00    +0.005 A 
ATOM     19  C   UNL     1       3.290  -3.906  -8.520  0.00  0.00    +0.038 A 
ATOM     20  C   UNL     1       1.995  -3.514  -8.817  0.00  0.00    +0.125 A 
ATOM     21  C   UNL     1       1.143  -3.114  -7.802  0.00  0.00    +0.066 A 
ATOM     22  F   UNL     1       1.562  -3.527 -10.096  0.00  0.00    -0.205 F 
ENDBRANCH   4  16
BRANCH   1  23
ATOM     23  C   UNL     1      -1.082  -3.053  -2.304  0.00  0.00    +0.149 C 
BRANCH  23  24
ATOM     24  N   UNL     1      -0.287  -2.516  -1.196  0.00  0.00    -0.173 NA
BRANCH  24  25
ATOM     25  S   UNL     1       0.490  -3.546  -0.158  0.00  0.00    +0.054 S 
ATOM     26  O   UNL     1       0.546  -4.810  -0.806  0.00  0.00    -0.153 OA
ATOM     27  O   UNL     1       1.655  -2.869   0.291  0.00  0.00    -0.153 OA
BRANCH  25  28
ATOM     28  C   UNL     1      -0.549  -3.749   1.250  0.00  0.00    +0.153 C 
ATOM     29  C   UNL     1      -1.077  -4.934   1.520  0.00  0.00    +0.028 C 
BRANCH  29  30
ATOM     30  C   UNL     1      -1.949  -5.104   2.701  0.00  0.00    -0.024 A 
ATOM     31  C   UNL     1      -2.223  -4.016   3.532  0.00  0.00    +0.008 A 
ATOM     32  C   UNL     1      -3.038  -4.181   4.633  0.00  0.00    +0.001 A 
ATOM     33  C   UNL     1      -3.582  -5.422   4.915  0.00  0.00    +0.000 A 
ATOM     34  C   UNL     1      -3.313  -6.504   4.096  0.00  0.00    +0.001 A 
ATOM     35  C   UNL     1      -2.506  -6.351   2.988  0.00  0.00    +0.008 A 
ENDBRANCH  29  30
ENDBRANCH  25  28
ENDBRANCH  24  25
BRANCH  24  36
ATOM     36  C   UNL     1      -0.179  -1.067  -1.007  0.00  0.00    +0.109 C 
BRANCH  36  38
ATOM     37  C   UNL     1      -1.265   0.944   0.001  0.00  0.00    +0.005 C 
ATOM     38  C   UNL     1      -1.377  -0.569  -0.196  0.00  0.00    +0.014 C 
ENDBRANCH  36  38
ENDBRANCH  24  36
ENDBRANCH  23  24
ENDBRANCH   1  23
TORSDOF 10
