REMARK  Name = ZINC11979690
REMARK  8 active torsions:
REMARK  status: ('A' for Active; 'I' for Inactive)
REMARK    1  A    between atoms: C_1  and  C_2
REMARK    2  A    between atoms: C_2  and  C_4
REMARK    3  A    between atoms: C_2  and  S_16
REMARK    4  A    between atoms: N_9  and  C_10
REMARK    5  A    between atoms: S_16  and  C_17
REMARK    6  A    between atoms: C_20  and  C_28
REMARK    7  A    between atoms: N_21  and  C_22
REMARK    8  A    between atoms: C_28  and  C_29
REMARK                            x       y       z     vdW  Elec       q    Type
REMARK                         _______ _______ _______ _____ _____    ______ ____
ROOT
ATOM      1  S   UNL     1       0.851  -0.598  -1.491  0.00  0.00    -0.074 S 
ENDROOT
BRANCH   1   2
ATOM      2  C   UNL     1       2.513  -0.048  -1.284  0.00  0.00    +0.193 A 
ATOM      3  N   UNL     1       2.991   0.622  -0.262  0.00  0.00    -0.122 NA
ATOM      4  N   UNL     1       4.242   0.858  -0.442  0.00  0.00    -0.133 NA
ATOM      5  C   UNL     1       4.633   0.357  -1.579  0.00  0.00    +0.139 A 
ATOM      6  N   UNL     1       3.547  -0.243  -2.154  0.00  0.00    -0.303 N 
BRANCH   6   7
ATOM      7  C   UNL     1       3.502  -0.947  -3.438  0.00  0.00    +0.091 C 
ATOM      8  C   UNL     1       2.501  -0.253  -4.365  0.00  0.00    +0.025 C 
ATOM      9  C   UNL     1       2.454  -0.988  -5.706  0.00  0.00    +0.002 C 
ATOM     10  C   UNL     1       2.019  -2.437  -5.479  0.00  0.00    +0.000 C 
ATOM     11  C   UNL     1       3.019  -3.131  -4.553  0.00  0.00    +0.002 C 
ATOM     12  C   UNL     1       3.066  -2.396  -3.211  0.00  0.00    +0.025 C 
ENDBRANCH   6   7
BRANCH   5  13
ATOM     13  C   UNL     1       6.025   0.421  -2.152  0.00  0.00    +0.118 C 
BRANCH  13  14
ATOM     14  C   UNL     1       6.813  -0.779  -1.694  0.00  0.00    -0.003 A 
ATOM     15  C   UNL     1       6.939  -1.992  -2.285  0.00  0.00    +0.011 A 
ATOM     16  C   UNL     1       7.724  -2.955  -1.677  0.00  0.00    +0.008 A 
ATOM     17  C   UNL     1       8.344  -2.656  -0.509  0.00  0.00    +0.045 A 
ATOM     18  S   UNL     1       7.827  -0.969  -0.237  0.00  0.00    -0.101 S 
ENDBRANCH  13  14
ENDBRANCH   5  13
ENDBRANCH   1   2
BRANCH   1  20
ATOM     19  C   UNL     1      -0.005   1.514   0.021  0.00  0.00    +0.029 C 
ATOM     20  C   UNL     1       0.007  -0.016   0.005  0.00  0.00    +0.137 C 
BRANCH  20  21
ATOM     21  C   UNL     1      -1.410  -0.529   0.014  0.00  0.00    +0.234 C 
ATOM     22  O   UNL     1      -1.928  -0.897  -1.019  0.00  0.00    -0.274 OA
ATOM     23  N   UNL     1      -2.101  -0.580   1.170  0.00  0.00    -0.239 N 
ATOM     24  C   UNL     1      -3.368  -1.040   1.178  0.00  0.00    +0.310 C 
ATOM     25  O   UNL     1      -3.888  -1.408   0.143  0.00  0.00    -0.252 OA
ATOM     26  N   UNL     1      -4.059  -1.091   2.334  0.00  0.00    -0.269 N 
ATOM     27  H   UNL     1      -1.686  -0.286   1.996  0.00  0.00    +0.159 HD
ATOM     28  H   UNL     1      -3.624  -0.861   3.170  0.00  0.00    +0.156 HD
BRANCH  26  29
ATOM     29  C   UNL     1      -5.404  -1.476   2.329  0.00  0.00    +0.035 A 
ATOM     30  C   UNL     1      -6.299  -0.890   3.215  0.00  0.00    +0.023 A 
ATOM     31  C   UNL     1      -7.626  -1.272   3.207  0.00  0.00    +0.002 A 
ATOM     32  C   UNL     1      -8.064  -2.237   2.318  0.00  0.00    +0.000 A 
ATOM     33  C   UNL     1      -7.176  -2.822   1.435  0.00  0.00    +0.002 A 
ATOM     34  C   UNL     1      -5.849  -2.440   1.433  0.00  0.00    +0.023 A 
ENDBRANCH  26  29
ENDBRANCH  20  21
ENDBRANCH   1  20
TORSDOF 7
