REMARK  Name = ZINC09008204
REMARK  16 active torsions:
REMARK  status: ('A' for Active; 'I' for Inactive)
REMARK    1  A    between atoms: C_1  and  C_2
REMARK    2  A    between atoms: C_2  and  N_69
REMARK    3  A    between atoms: C_3  and  C_4
REMARK    4  A    between atoms: C_3  and  N_69
REMARK    5  A    between atoms: C_5  and  C_6
REMARK    6  A    between atoms: C_5  and  N_69
REMARK    7  A    between atoms: C_6  and  C_7
REMARK    8  A    between atoms: C_7  and  N_8
REMARK    9  A    between atoms: C_9  and  C_26
REMARK   10  A    between atoms: C_12  and  C_13
REMARK   11  A    between atoms: C_12  and  O_21
REMARK   12  A    between atoms: C_16  and  O_19
REMARK   13  A    between atoms: O_19  and  C_20
REMARK   14  A    between atoms: C_29  and  O_32
REMARK   15  A    between atoms: O_32  and  C_33
REMARK   16  A    between atoms: C_33  and  C_34
REMARK                            x       y       z     vdW  Elec       q    Type
REMARK                         _______ _______ _______ _____ _____    ______ ____
ROOT
ATOM      1  N   UNL     1      -5.993   2.045   0.419  0.00  0.00    -0.284 N 
ATOM      2  C   UNL     1      -4.990   0.977   0.462  0.00  0.00    +0.144 C 
ATOM      3  C   UNL     1      -3.646   1.637   0.256  0.00  0.00    +0.071 C 
ATOM      4  C   UNL     1      -2.413   1.015   0.221  0.00  0.00    +0.133 C 
ATOM      5  C   UNL     1      -3.903   3.008   0.113  0.00  0.00    +0.249 C 
ATOM      6  O   UNL     1      -3.067   3.877  -0.067  0.00  0.00    -0.282 OA
ATOM      7  C   UNL     1      -5.372   3.219   0.214  0.00  0.00    +0.288 C 
ATOM      8  O   UNL     1      -5.928   4.294   0.130  0.00  0.00    -0.266 OA
ENDROOT
BRANCH   4   9
ATOM      9  C   UNL     1      -1.212   1.783  -0.146  0.00  0.00    +0.017 A 
ATOM     10  C   UNL     1      -1.159   2.461  -1.370  0.00  0.00    +0.015 A 
ATOM     11  C   UNL     1      -0.037   3.182  -1.707  0.00  0.00    +0.046 A 
ATOM     12  C   UNL     1       1.046   3.233  -0.836  0.00  0.00    +0.120 A 
ATOM     13  C   UNL     1       1.001   2.557   0.379  0.00  0.00    +0.046 A 
ATOM     14  C   UNL     1      -0.117   1.833   0.724  0.00  0.00    +0.015 A 
BRANCH  12  15
ATOM     15  O   UNL     1       2.151   3.946  -1.172  0.00  0.00    -0.495 OA
ATOM     16  C   UNL     1       3.227   3.957  -0.232  0.00  0.00    +0.277 C 
ENDBRANCH  12  15
ENDBRANCH   4   9
BRANCH   2  17
ATOM     17  C   UNL     1      -5.249  -0.019  -0.639  0.00  0.00    -0.022 A 
ATOM     18  C   UNL     1      -5.675   0.418  -1.880  0.00  0.00    +0.009 A 
ATOM     19  C   UNL     1      -5.908  -0.493  -2.892  0.00  0.00    +0.046 A 
ATOM     20  C   UNL     1      -5.726  -1.848  -2.659  0.00  0.00    +0.121 A 
ATOM     21  C   UNL     1      -5.304  -2.285  -1.412  0.00  0.00    +0.046 A 
ATOM     22  C   UNL     1      -5.067  -1.370  -0.405  0.00  0.00    +0.009 A 
BRANCH  20  23
ATOM     23  O   UNL     1      -5.960  -2.747  -3.652  0.00  0.00    -0.488 OA
BRANCH  23  24
ATOM     24  C   UNL     1      -6.391  -2.225  -4.910  0.00  0.00    +0.256 C 
BRANCH  24  25
ATOM     25  C   UNL     1      -6.599  -3.360  -5.880  0.00  0.00    +0.006 C 
ATOM     26  C   UNL     1      -7.671  -3.392  -6.632  0.00  0.00    +0.007 C 
ENDBRANCH  24  25
ENDBRANCH  23  24
ENDBRANCH  20  23
ENDBRANCH   2  17
BRANCH   4  27
ATOM     27  O   UNL     1      -2.309  -0.296   0.524  0.00  0.00    -0.506 OA
ATOM     28  H   UNL     1      -1.353  -0.581   0.450  0.00  0.00    +0.292 HD
ENDBRANCH   4  27
BRANCH   1  29
ATOM     29  C   UNL     1      -7.438   1.861   0.574  0.00  0.00    +0.107 C 
BRANCH  29  30
ATOM     30  C   UNL     1      -7.811   1.977   2.053  0.00  0.00    +0.000 C 
BRANCH  30  31
ATOM     31  C   UNL     1      -9.320   1.786   2.215  0.00  0.00    -0.077 C 
BRANCH  31  32
ATOM     32  N   UNL     1      -9.668   1.921   3.645  0.00  0.00    +0.379 N 
ATOM     33  H   UNL     1      -9.272   2.798   4.003  0.00  0.00    -0.082 HD
BRANCH  32  35
ATOM     34  C   UNL     1     -11.639   3.349   3.426  0.00  0.00    -0.017 C 
ATOM     35  C   UNL     1     -11.136   1.955   3.807  0.00  0.00    -0.082 C 
ENDBRANCH  32  35
BRANCH  32  36
ATOM     36  C   UNL     1      -9.101   0.791   4.411  0.00  0.00    -0.082 C 
ATOM     37  C   UNL     1      -9.140   1.139   5.901  0.00  0.00    -0.017 C 
ENDBRANCH  32  36
ENDBRANCH  31  32
ENDBRANCH  30  31
ENDBRANCH  29  30
ENDBRANCH   1  29
TORSDOF 13
