REMARK  Name = ZINC06408538
REMARK  15 active torsions:
REMARK  status: ('A' for Active; 'I' for Inactive)
REMARK    1  A    between atoms: C_1  and  C_2
REMARK    2  A    between atoms: C_9  and  C_14
REMARK    3  A    between atoms: C_14  and  C_16
REMARK    4  A    between atoms: C_14  and  N_78
REMARK    5  A    between atoms: N_20  and  C_21
REMARK    6  A    between atoms: C_21  and  C_22
REMARK    7  A    between atoms: C_21  and  C_23
REMARK    8  A    between atoms: C_21  and  C_24
REMARK    9  A    between atoms: C_25  and  C_26
REMARK   10  A    between atoms: C_25  and  N_78
REMARK   11  A    between atoms: C_32  and  C_33
REMARK   12  A    between atoms: C_32  and  N_78
REMARK   13  A    between atoms: C_36  and  C_39
REMARK   14  A    between atoms: C_39  and  C_40
REMARK   15  A    between atoms: C_39  and  C_41
REMARK                            x       y       z     vdW  Elec       q    Type
REMARK                         _______ _______ _______ _____ _____    ______ ____
ROOT
ATOM      1  C   UNL     1      -2.745  -0.068  -0.720  0.00  0.00    +0.040 C 
ENDROOT
BRANCH   1  10
ATOM      2  C   UNL     1       2.615   2.237   3.925  0.00  0.00    +0.044 C 
ATOM      3  C   UNL     1       2.122   1.938   2.532  0.00  0.00    -0.050 A 
ATOM      4  C   UNL     1       2.965   2.134   1.447  0.00  0.00    +0.005 A 
ATOM      5  C   UNL     1       2.534   1.868   0.165  0.00  0.00    +0.026 A 
ATOM      6  C   UNL     1       1.242   1.398  -0.045  0.00  0.00    +0.049 A 
ATOM      7  C   UNL     1       0.390   1.201   1.058  0.00  0.00    -0.001 A 
ATOM      8  C   UNL     1       0.849   1.478   2.350  0.00  0.00    +0.013 A 
ATOM      9  C   UNL     1      -0.968   0.705   0.826  0.00  0.00    +0.017 A 
ATOM     10  C   UNL     1      -1.356   0.449  -0.448  0.00  0.00    +0.011 A 
ATOM     11  C   UNL     1      -0.464   0.668  -1.520  0.00  0.00    +0.251 A 
ATOM     12  O   UNL     1      -0.834   0.435  -2.657  0.00  0.00    -0.268 OA
ATOM     13  N   UNL     1       0.785   1.123  -1.317  0.00  0.00    -0.322 N 
ATOM     14  H   UNL     1       1.373   1.260  -2.076  0.00  0.00    +0.169 HD
ENDBRANCH   1  10
BRANCH   1  15
ATOM     15  C   UNL     1      -3.486  -0.227   0.582  0.00  0.00    +0.143 A 
ATOM     16  N   UNL     1      -3.972   0.735   1.328  0.00  0.00    -0.115 NA
ATOM     17  N   UNL     1      -4.534   0.196   2.356  0.00  0.00    -0.023 NA
ATOM     18  N   UNL     1      -4.418  -1.084   2.284  0.00  0.00    -0.043 NA
ATOM     19  N   UNL     1      -3.783  -1.384   1.202  0.00  0.00    -0.225 N 
BRANCH  19  20
ATOM     20  C   UNL     1      -3.444  -2.732   0.737  0.00  0.00    +0.059 C 
ATOM     21  C   UNL     1      -1.935  -2.826   0.502  0.00  0.00    +0.036 C 
ATOM     22  C   UNL     1      -3.861  -3.756   1.794  0.00  0.00    +0.036 C 
ATOM     23  C   UNL     1      -4.183  -3.020  -0.572  0.00  0.00    +0.036 C 
ENDBRANCH  19  20
ENDBRANCH   1  15
BRANCH   1  24
ATOM     24  N   UNL     1      -3.447   0.887  -1.603  0.00  0.00    +0.395 N 
ATOM     25  H   UNL     1      -2.933   0.964  -2.488  0.00  0.00    -0.079 HD
BRANCH  24  26
ATOM     26  C   UNL     1      -3.504   2.219  -0.964  0.00  0.00    -0.041 C 
BRANCH  26  27
ATOM     27  C   UNL     1      -2.280   2.998  -1.371  0.00  0.00    -0.064 A 
ATOM     28  C   UNL     1      -1.271   3.229  -0.454  0.00  0.00    +0.002 A 
ATOM     29  C   UNL     1      -0.146   3.940  -0.829  0.00  0.00    +0.000 A 
ATOM     30  C   UNL     1      -0.035   4.429  -2.117  0.00  0.00    +0.000 A 
ATOM     31  C   UNL     1      -1.046   4.203  -3.032  0.00  0.00    +0.000 A 
ATOM     32  C   UNL     1      -2.168   3.487  -2.659  0.00  0.00    +0.002 A 
ENDBRANCH  26  27
ENDBRANCH  24  26
BRANCH  24  33
ATOM     33  C   UNL     1      -4.815   0.404  -1.884  0.00  0.00    -0.041 C 
BRANCH  33  34
ATOM     34  C   UNL     1      -5.375   1.182  -3.046  0.00  0.00    -0.064 A 
ATOM     35  C   UNL     1      -6.099   2.338  -2.820  0.00  0.00    +0.002 A 
ATOM     36  C   UNL     1      -6.609   3.054  -3.886  0.00  0.00    +0.004 A 
ATOM     37  C   UNL     1      -6.403   2.610  -5.179  0.00  0.00    -0.045 A 
ATOM     38  C   UNL     1      -5.684   1.451  -5.405  0.00  0.00    +0.004 A 
ATOM     39  C   UNL     1      -5.170   0.737  -4.339  0.00  0.00    +0.002 A 
BRANCH  37  40
ATOM     40  C   UNL     1      -6.962   3.389  -6.341  0.00  0.00    +0.013 C 
ATOM     41  C   UNL     1      -8.470   3.567  -6.158  0.00  0.00    +0.012 C 
ATOM     42  C   UNL     1      -6.290   4.763  -6.405  0.00  0.00    +0.012 C 
ENDBRANCH  37  40
ENDBRANCH  33  34
ENDBRANCH  24  33
ENDBRANCH   1  24
TORSDOF 9
