REMARK  Name = ZINC63376013
REMARK  4 active torsions:
REMARK  status: ('A' for Active; 'I' for Inactive)
REMARK    1  A    between atoms: C_20  and  C_25
REMARK    2  A    between atoms: N_27  and  C_28
REMARK    3  A    between atoms: C_28  and  C_29
REMARK    4  A    between atoms: C_29  and  C_30
REMARK                            x       y       z     vdW  Elec       q    Type
REMARK                         _______ _______ _______ _____ _____    ______ ____
ROOT
ATOM      1  C   UNL     1      -0.017   1.387   0.010  0.00  0.00    +0.000 A 
ATOM      2  C   UNL     1       1.147   2.131   0.003  0.00  0.00    +0.001 A 
ATOM      3  C   UNL     1       2.398   1.533  -0.010  0.00  0.00    +0.013 A 
ATOM      4  C   UNL     1       2.430   0.136  -0.014  0.00  0.00    +0.042 A 
ATOM      5  C   UNL     1       1.238  -0.613  -0.012  0.00  0.00    -0.013 A 
ATOM      6  C   UNL     1       0.002  -0.004   0.002  0.00  0.00    +0.006 A 
ATOM      7  C   UNL     1       1.639  -2.052  -0.032  0.00  0.00    +0.134 C 
ATOM      8  C   UNL     1       1.122  -2.779   1.215  0.00  0.00    +0.131 C 
ATOM      9  C   UNL     1       1.935  -4.062   1.337  0.00  0.00    -0.034 C 
ATOM     10  C   UNL     1       1.057  -5.061   1.336  0.00  0.00    -0.001 A 
ATOM     11  C   UNL     1       1.232  -6.515   1.487  0.00  0.00    +0.010 A 
ATOM     12  C   UNL     1       0.099  -7.263   1.427  0.00  0.00    +0.001 A 
ATOM     13  C   UNL     1      -1.174  -6.718   1.234  0.00  0.00    +0.002 A 
ATOM     14  C   UNL     1      -1.427  -5.392   1.091  0.00  0.00    +0.026 A 
ATOM     15  C   UNL     1      -0.315  -4.503   1.141  0.00  0.00    +0.043 A 
ATOM     16  N   UNL     1      -0.274  -3.195   1.051  0.00  0.00    -0.375 N 
ATOM     17  C   UNL     1       3.443  -4.082   1.372  0.00  0.00    +0.065 C 
ATOM     18  C   UNL     1       3.937  -3.276   0.156  0.00  0.00    +0.167 C 
ATOM     19  N   UNL     1       3.117  -2.064   0.024  0.00  0.00    -0.276 N 
ATOM     20  C   UNL     1       3.560  -0.794  -0.021  0.00  0.00    +0.248 C 
ATOM     21  O   UNL     1       4.730  -0.467  -0.063  0.00  0.00    -0.270 OA
ATOM     22  H   UNL     1      -1.027  -2.603   0.900  0.00  0.00    +0.160 HD
ENDROOT
BRANCH  18  23
ATOM     23  C   UNL     1       3.799  -4.107  -1.094  0.00  0.00    +0.234 C 
ATOM     24  O   UNL     1       3.100  -3.720  -2.006  0.00  0.00    -0.274 OA
ATOM     25  N   UNL     1       4.453  -5.282  -1.198  0.00  0.00    -0.313 N 
ATOM     26  H   UNL     1       5.012  -5.592  -0.468  0.00  0.00    +0.149 HD
BRANCH  25  27
ATOM     27  C   UNL     1       4.319  -6.090  -2.412  0.00  0.00    +0.109 C 
BRANCH  27  28
ATOM     28  C   UNL     1       5.156  -7.363  -2.273  0.00  0.00    +0.054 C 
BRANCH  28  29
ATOM     29  C   UNL     1       5.018  -8.194  -3.523  0.00  0.00    -0.043 A 
ATOM     30  C   UNL     1       4.011  -9.136  -3.618  0.00  0.00    +0.004 A 
ATOM     31  C   UNL     1       3.883  -9.899  -4.763  0.00  0.00    +0.003 A 
ATOM     32  C   UNL     1       4.762  -9.721  -5.815  0.00  0.00    +0.038 A 
ATOM     33  C   UNL     1       5.770  -8.777  -5.721  0.00  0.00    +0.124 A 
ATOM     34  C   UNL     1       5.894  -8.009  -4.575  0.00  0.00    +0.042 A 
ATOM     35  F   UNL     1       6.631  -8.603  -6.748  0.00  0.00    -0.205 F 
ENDBRANCH  28  29
ENDBRANCH  27  28
ENDBRANCH  25  27
ENDBRANCH  18  23
TORSDOF 4
