REMARK  Name = ZINC08876241
REMARK  8 active torsions:
REMARK  status: ('A' for Active; 'I' for Inactive)
REMARK    1  A    between atoms: C_1  and  C_2
REMARK    2  A    between atoms: C_2  and  N_59
REMARK    3  A    between atoms: C_15  and  C_17
REMARK    4  A    between atoms: C_18  and  O_35
REMARK    5  A    between atoms: N_23  and  C_26
REMARK    6  A    between atoms: C_31  and  O_32
REMARK    7  A    between atoms: O_32  and  C_33
REMARK    8  A    between atoms: C_33  and  C_34
REMARK                            x       y       z     vdW  Elec       q    Type
REMARK                         _______ _______ _______ _____ _____    ______ ____
ROOT
ATOM      1  C   UNL     1       0.041  -2.085   1.156  0.00  0.00    +0.069 A 
ATOM      2  C   UNL     1       0.039  -2.737  -0.042  0.00  0.00    +0.201 A 
ATOM      3  N   UNL     1       0.018  -2.010  -1.206  0.00  0.00    -0.278 N 
ATOM      4  H   UNL     1       0.017  -2.470  -2.060  0.00  0.00    +0.173 HD
ATOM      5  C   UNL     1       0.000  -0.665  -1.170  0.00  0.00    +0.337 A 
ATOM      6  O   UNL     1      -0.018  -0.039  -2.211  0.00  0.00    -0.246 OA
ATOM      7  N   UNL     1       0.002  -0.004   0.002  0.00  0.00    -0.225 N 
ATOM      8  C   UNL     1       0.028  -0.679   1.168  0.00  0.00    +0.267 A 
ATOM      9  O   UNL     1       0.035  -0.075   2.227  0.00  0.00    -0.267 OA
ENDROOT
BRANCH   1  22
ATOM     10  C   UNL     1       1.127  -2.979   4.629  0.00  0.00    -0.073 C 
ATOM     11  C   UNL     1      -0.032  -2.343   5.408  0.00  0.00    +0.019 C 
ATOM     12  C   UNL     1      -1.261  -2.390   4.535  0.00  0.00    -0.022 A 
ATOM     13  C   UNL     1      -2.649  -2.212   4.897  0.00  0.00    +0.003 A 
ATOM     14  C   UNL     1      -3.289  -1.947   6.112  0.00  0.00    +0.010 A 
ATOM     15  C   UNL     1      -4.658  -1.842   6.084  0.00  0.00    +0.001 A 
ATOM     16  C   UNL     1      -5.383  -1.988   4.913  0.00  0.00    +0.002 A 
ATOM     17  C   UNL     1      -4.777  -2.250   3.696  0.00  0.00    +0.026 A 
ATOM     18  C   UNL     1      -3.388  -2.363   3.695  0.00  0.00    +0.047 A 
ATOM     19  N   UNL     1      -2.491  -2.610   2.694  0.00  0.00    -0.359 N 
ATOM     20  H   UNL     1      -2.720  -2.754   1.763  0.00  0.00    +0.166 HD
ATOM     21  C   UNL     1      -1.222  -2.624   3.204  0.00  0.00    +0.011 A 
ATOM     22  C   UNL     1       0.064  -2.861   2.447  0.00  0.00    +0.021 C 
ATOM     23  N   UNL     1       1.186  -2.369   3.283  0.00  0.00    +0.388 N 
ATOM     24  H   UNL     1       1.109  -1.349   3.376  0.00  0.00    -0.080 HD
BRANCH  23  26
ATOM     25  C   UNL     1       3.598  -1.990   3.400  0.00  0.00    -0.017 C 
ATOM     26  C   UNL     1       2.475  -2.696   2.638  0.00  0.00    -0.081 C 
ENDBRANCH  23  26
ENDBRANCH   1  22
BRANCH   7  27
ATOM     27  C   UNL     1      -0.017   1.399   0.010  0.00  0.00    +0.096 A 
ATOM     28  C   UNL     1      -1.226   2.078   0.019  0.00  0.00    +0.030 A 
ATOM     29  C   UNL     1      -1.243   3.459   0.032  0.00  0.00    +0.002 A 
ATOM     30  C   UNL     1      -0.056   4.168   0.024  0.00  0.00    +0.004 A 
ATOM     31  C   UNL     1       1.154   3.499   0.009  0.00  0.00    +0.048 A 
ATOM     32  C   UNL     1       1.179   2.113   0.002  0.00  0.00    +0.144 A 
BRANCH  32  33
ATOM     33  O   UNL     1       2.367   1.453  -0.012  0.00  0.00    -0.490 OA
BRANCH  33  34
ATOM     34  C   UNL     1       3.552   2.251  -0.019  0.00  0.00    +0.226 C 
ATOM     35  C   UNL     1       4.781   1.339  -0.034  0.00  0.00    +0.048 C 
ENDBRANCH  33  34
ENDBRANCH  32  33
ENDBRANCH   7  27
BRANCH   2  36
ATOM     36  O   UNL     1       0.057  -4.086  -0.082  0.00  0.00    -0.493 OA
ATOM     37  H   UNL     1       0.054  -4.453  -0.977  0.00  0.00    +0.294 HD
ENDBRANCH   2  36
TORSDOF 6
