REMARK  Name = ZINC09521497
REMARK  7 active torsions:
REMARK  status: ('A' for Active; 'I' for Inactive)
REMARK    1  A    between atoms: C_1  and  C_2
REMARK    2  A    between atoms: C_2  and  C_3
REMARK    3  A    between atoms: C_3  and  C_4
REMARK    4  A    between atoms: C_4  and  N_5
REMARK    5  A    between atoms: C_9  and  N_18
REMARK    6  A    between atoms: C_19  and  C_21
REMARK    7  A    between atoms: C_21  and  C_22
REMARK                            x       y       z     vdW  Elec       q    Type
REMARK                         _______ _______ _______ _____ _____    ______ ____
ROOT
ATOM      1  N   UNL     1      11.270  -3.174  -2.026  0.00  0.00    -0.267 N 
ATOM      2  C   UNL     1      10.133  -2.708  -1.375  0.00  0.00    +0.045 A 
ATOM      3  C   UNL     1       8.814  -2.449  -1.708  0.00  0.00    +0.026 A 
ATOM      4  C   UNL     1       7.930  -1.974  -0.745  0.00  0.00    +0.026 A 
ATOM      5  C   UNL     1       8.304  -1.728   0.567  0.00  0.00    +0.041 A 
ATOM      6  C   UNL     1       9.642  -1.982   0.939  0.00  0.00    +0.006 A 
ATOM      7  C   UNL     1      10.495  -2.462  -0.056  0.00  0.00    +0.017 A 
ATOM      8  C   UNL     1      11.851  -2.764   0.147  0.00  0.00    +0.047 A 
ATOM      9  C   UNL     1      12.349  -2.564   1.424  0.00  0.00    +0.014 A 
ATOM     10  C   UNL     1      11.508  -2.086   2.426  0.00  0.00    +0.001 A 
ATOM     11  C   UNL     1      10.185  -1.794   2.217  0.00  0.00    +0.010 A 
ATOM     12  C   UNL     1      12.319  -3.225  -1.164  0.00  0.00    +0.251 C 
ATOM     13  O   UNL     1      13.449  -3.589  -1.433  0.00  0.00    -0.270 OA
ENDROOT
BRANCH   5  14
ATOM     14  N   UNL     1       7.382  -1.247   1.497  0.00  0.00    -0.285 N 
ATOM     15  C   UNL     1       6.094  -1.638   1.432  0.00  0.00    +0.222 C 
ATOM     16  O   UNL     1       5.719  -2.344   0.519  0.00  0.00    -0.275 OA
ATOM     17  H   UNL     1       7.668  -0.632   2.190  0.00  0.00    +0.155 HD
BRANCH  15  18
ATOM     18  C   UNL     1       5.119  -1.199   2.494  0.00  0.00    +0.131 C 
BRANCH  18  19
ATOM     19  C   UNL     1       3.756  -1.768   2.191  0.00  0.00    -0.035 A 
ATOM     20  C   UNL     1       3.396  -3.003   2.697  0.00  0.00    +0.008 A 
ATOM     21  C   UNL     1       2.148  -3.529   2.422  0.00  0.00    +0.050 A 
ATOM     22  C   UNL     1       1.254  -2.818   1.637  0.00  0.00    +0.166 A 
ATOM     23  C   UNL     1       1.616  -1.574   1.128  0.00  0.00    +0.166 A 
ATOM     24  C   UNL     1       2.869  -1.053   1.408  0.00  0.00    +0.053 A 
ATOM     25  O   UNL     1       0.575  -1.082   0.395  0.00  0.00    -0.453 OA
ATOM     26  C   UNL     1      -0.575  -1.850   0.798  0.00  0.00    +0.466 C 
ATOM     27  O   UNL     1      -0.015  -3.106   1.224  0.00  0.00    -0.453 OA
ENDBRANCH  18  19
ENDBRANCH  15  18
ENDBRANCH   5  14
BRANCH   1  28
ATOM     28  C   UNL     1      11.328  -3.555  -3.439  0.00  0.00    +0.114 C 
BRANCH  28  29
ATOM     29  C   UNL     1      11.702  -2.334  -4.282  0.00  0.00    +0.019 C 
BRANCH  29  31
ATOM     30  C   UNL     1      12.136  -1.511  -6.601  0.00  0.00    +0.004 C 
ATOM     31  C   UNL     1      11.763  -2.732  -5.758  0.00  0.00    -0.002 C 
ENDBRANCH  29  31
ENDBRANCH  28  29
ENDBRANCH   1  28
TORSDOF 6
