REMARK  Name = ZINC09521925
REMARK  4 active torsions:
REMARK  status: ('A' for Active; 'I' for Inactive)
REMARK    1  A    between atoms: C_1  and  C_2
REMARK    2  A    between atoms: C_2  and  C_3
REMARK    3  A    between atoms: C_13  and  C_15
REMARK    4  A    between atoms: C_15  and  C_16
REMARK                            x       y       z     vdW  Elec       q    Type
REMARK                         _______ _______ _______ _____ _____    ______ ____
ROOT
ATOM      1  C   UNL     1       1.121   8.685   5.357  0.00  0.00    -0.021 A 
ATOM      2  C   UNL     1       1.132   8.815   6.722  0.00  0.00    +0.006 A 
ATOM      3  C   UNL     1       1.157   7.706   7.555  0.00  0.00    +0.001 A 
ATOM      4  C   UNL     1       1.171   6.440   6.999  0.00  0.00    +0.017 A 
ATOM      5  C   UNL     1       1.159   6.300   5.634  0.00  0.00    +0.041 A 
ATOM      6  C   UNL     1       1.134   7.406   4.753  0.00  0.00    +0.083 A 
ATOM      7  N   UNL     1       1.131   7.106   3.437  0.00  0.00    -0.224 NA
ATOM      8  C   UNL     1       1.140   5.870   2.995  0.00  0.00    +0.165 A 
ATOM      9  S   UNL     1       1.169   4.923   4.511  0.00  0.00    -0.052 S 
ATOM     10  N   UNL     1       1.135   5.415   1.687  0.00  0.00    -0.264 N 
ATOM     11  C   UNL     1       1.153   4.091   1.433  0.00  0.00    +0.223 C 
ATOM     12  O   UNL     1       1.174   3.299   2.351  0.00  0.00    -0.275 OA
ATOM     13  H   UNL     1       1.118   6.049   0.953  0.00  0.00    +0.157 HD
ENDROOT
BRANCH   1  15
ATOM     14  C   UNL     1      -0.352  10.241   4.110  0.00  0.00    +0.009 C 
ATOM     15  C   UNL     1       1.093   9.918   4.491  0.00  0.00    +0.034 C 
ENDBRANCH   1  15
BRANCH  11  16
ATOM     16  C   UNL     1       1.147   3.596   0.010  0.00  0.00    +0.131 C 
BRANCH  16  17
ATOM     17  C   UNL     1       1.171   2.089   0.002  0.00  0.00    -0.035 A 
ATOM     18  C   UNL     1       2.379   1.418  -0.011  0.00  0.00    +0.008 A 
ATOM     19  C   UNL     1       2.405   0.036  -0.020  0.00  0.00    +0.050 A 
ATOM     20  C   UNL     1       1.220  -0.680  -0.013  0.00  0.00    +0.166 A 
ATOM     21  C   UNL     1       0.002  -0.004   0.002  0.00  0.00    +0.166 A 
ATOM     22  C   UNL     1      -0.017   1.381   0.010  0.00  0.00    +0.053 A 
ATOM     23  O   UNL     1      -1.007  -0.923   0.006  0.00  0.00    -0.453 OA
ATOM     24  C   UNL     1      -0.404  -2.159  -0.418  0.00  0.00    +0.466 C 
ATOM     25  O   UNL     1       0.973  -2.023  -0.018  0.00  0.00    -0.453 OA
ENDBRANCH  16  17
ENDBRANCH  11  16
TORSDOF 3
