REMARK  Name = ZINC13602901
REMARK  10 active torsions:
REMARK  status: ('A' for Active; 'I' for Inactive)
REMARK    1  A    between atoms: C_1  and  C_2
REMARK    2  A    between atoms: C_5  and  S_8
REMARK    3  A    between atoms: S_8  and  N_11
REMARK    4  A    between atoms: N_11  and  C_12
REMARK    5  A    between atoms: N_11  and  C_19
REMARK    6  A    between atoms: C_12  and  C_13
REMARK    7  A    between atoms: C_19  and  C_20
REMARK    8  A    between atoms: N_22  and  N_23
REMARK    9  A    between atoms: C_24  and  C_25
REMARK   10  A    between atoms: C_30  and  C_31
REMARK                            x       y       z     vdW  Elec       q    Type
REMARK                         _______ _______ _______ _____ _____    ______ ____
ROOT
ATOM      1  N   UNL     1      -8.431   1.774   0.051  0.00  0.00    -0.163 NA
ENDROOT
BRANCH   1   2
ATOM      2  S   UNL     1      -9.139   2.203   1.486  0.00  0.00    +0.062 S 
ATOM      3  O   UNL     1     -10.460   2.626   1.177  0.00  0.00    -0.153 OA
ATOM      4  O   UNL     1      -8.871   1.150   2.402  0.00  0.00    -0.153 OA
BRANCH   2   9
ATOM      5  C   UNL     1      -6.210   7.061   3.541  0.00  0.00    +0.044 C 
ATOM      6  C   UNL     1      -6.942   5.848   3.028  0.00  0.00    -0.050 A 
ATOM      7  C   UNL     1      -8.041   6.001   2.203  0.00  0.00    +0.005 A 
ATOM      8  C   UNL     1      -8.712   4.888   1.732  0.00  0.00    +0.029 A 
ATOM      9  C   UNL     1      -8.284   3.622   2.086  0.00  0.00    +0.106 A 
ATOM     10  C   UNL     1      -7.188   3.469   2.914  0.00  0.00    +0.029 A 
ATOM     11  C   UNL     1      -6.514   4.582   3.382  0.00  0.00    +0.005 A 
ENDBRANCH   2   9
ENDBRANCH   1   2
BRANCH   1  12
ATOM     12  C   UNL     1      -8.928   2.337  -1.207  0.00  0.00    +0.145 C 
BRANCH  12  13
ATOM     13  C   UNL     1      -9.919   1.385  -1.826  0.00  0.00    -0.032 A 
ATOM     14  C   UNL     1      -9.486   0.412  -2.706  0.00  0.00    +0.005 A 
ATOM     15  C   UNL     1     -10.394  -0.464  -3.270  0.00  0.00    +0.000 A 
ATOM     16  C   UNL     1     -11.738  -0.359  -2.962  0.00  0.00    +0.000 A 
ATOM     17  C   UNL     1     -12.172   0.618  -2.086  0.00  0.00    +0.000 A 
ATOM     18  C   UNL     1     -11.262   1.490  -1.518  0.00  0.00    +0.005 A 
ENDBRANCH  12  13
ENDBRANCH   1  12
BRANCH   1  19
ATOM     19  C   UNL     1      -7.309   0.833   0.041  0.00  0.00    +0.207 C 
BRANCH  19  20
ATOM     20  C   UNL     1      -6.011   1.599   0.039  0.00  0.00    +0.248 C 
ATOM     21  O   UNL     1      -6.022   2.812   0.046  0.00  0.00    -0.273 OA
ATOM     22  N   UNL     1      -4.838   0.936   0.030  0.00  0.00    -0.206 N 
ATOM     23  H   UNL     1      -4.828  -0.034   0.025  0.00  0.00    +0.177 HD
BRANCH  22  24
ATOM     24  N   UNL     1      -3.631   1.648   0.028  0.00  0.00    -0.188 NA
ATOM     25  C   UNL     1      -2.501   1.010   0.019  0.00  0.00    +0.138 C 
BRANCH  25  26
ATOM     26  C   UNL     1      -1.231   1.760   0.017  0.00  0.00    +0.006 A 
ATOM     27  C   UNL     1      -0.013   1.076   0.008  0.00  0.00    +0.010 A 
ATOM     28  C   UNL     1       1.171   1.783   0.001  0.00  0.00    +0.001 A 
ATOM     29  C   UNL     1       1.154   3.167   0.008  0.00  0.00    +0.001 A 
ATOM     30  C   UNL     1      -0.048   3.851   0.024  0.00  0.00    +0.013 A 
ATOM     31  C   UNL     1      -1.240   3.156   0.031  0.00  0.00    +0.063 A 
BRANCH  31  32
ATOM     32  C   UNL     1      -2.549   3.902   0.049  0.00  0.00    +0.418 C 
ATOM     33  F   UNL     1      -2.301   5.279   0.054  0.00  0.00    -0.166 F 
ATOM     34  F   UNL     1      -3.292   3.567  -1.089  0.00  0.00    -0.166 F 
ATOM     35  F   UNL     1      -3.270   3.554   1.196  0.00  0.00    -0.166 F 
ENDBRANCH  31  32
ENDBRANCH  25  26
ENDBRANCH  22  24
ENDBRANCH  19  20
ENDBRANCH   1  19
TORSDOF 9
