REMARK  Name = ZINC08621338
REMARK  7 active torsions:
REMARK  status: ('A' for Active; 'I' for Inactive)
REMARK    1  A    between atoms: C_1  and  C_2
REMARK    2  A    between atoms: C_2  and  C_3
REMARK    3  A    between atoms: C_3  and  C_4
REMARK    4  A    between atoms: C_3  and  N_5
REMARK    5  A    between atoms: C_14  and  S_15
REMARK    6  A    between atoms: S_15  and  C_16
REMARK    7  A    between atoms: C_16  and  C_17
REMARK                            x       y       z     vdW  Elec       q    Type
REMARK                         _______ _______ _______ _____ _____    ______ ____
ROOT
ATOM      1  N   UNL     1      -1.863  -0.095   1.343  0.00  0.00    -0.284 N 
ATOM      2  C   UNL     1      -2.909   0.745   1.455  0.00  0.00    +0.263 A 
ATOM      3  O   UNL     1      -3.495   1.139   0.461  0.00  0.00    -0.267 OA
ATOM      4  C   UNL     1      -3.323   1.169   2.758  0.00  0.00    +0.076 A 
ATOM      5  C   UNL     1      -4.426   2.072   3.107  0.00  0.00    -0.023 A 
ATOM      6  C   UNL     1      -4.612   2.322   4.418  0.00  0.00    -0.004 A 
ATOM      7  S   UNL     1      -3.362   1.379   5.253  0.00  0.00    -0.073 S 
ATOM      8  C   UNL     1      -2.581   0.655   3.833  0.00  0.00    +0.117 A 
ATOM      9  N   UNL     1      -1.557  -0.171   3.655  0.00  0.00    -0.216 NA
ATOM     10  C   UNL     1      -1.200  -0.551   2.445  0.00  0.00    +0.174 A 
ATOM     11  C   UNL     1      -5.639   3.212   5.046  0.00  0.00    +0.043 C 
ATOM     12  C   UNL     1      -7.019   2.883   4.462  0.00  0.00    +0.005 C 
ATOM     13  C   UNL     1      -7.239   3.752   3.227  0.00  0.00    +0.001 C 
ATOM     14  C   UNL     1      -5.908   3.995   2.517  0.00  0.00    +0.005 C 
ATOM     15  C   UNL     1      -5.316   2.680   2.026  0.00  0.00    +0.037 C 
ENDROOT
BRANCH   1  16
ATOM     16  C   UNL     1      -1.433  -0.534   0.013  0.00  0.00    +0.089 C 
ATOM     17  C   UNL     1      -1.057   0.687  -0.830  0.00  0.00    +0.031 C 
BRANCH  16  19
ATOM     18  C   UNL     1      -2.892  -2.559   0.128  0.00  0.00    +0.006 C 
ATOM     19  C   UNL     1      -2.575  -1.291  -0.668  0.00  0.00    +0.021 C 
ENDBRANCH  16  19
ENDBRANCH   1  16
BRANCH  10  20
ATOM     20  S   UNL     1       0.159  -1.655   2.247  0.00  0.00    -0.073 S 
BRANCH  20  21
ATOM     21  C   UNL     1       0.712  -1.980   3.943  0.00  0.00    +0.195 C 
BRANCH  21  22
ATOM     22  C   UNL     1       1.859  -2.902   3.917  0.00  0.00    +0.074 C 
ATOM     23  N   UNL     1       2.744  -3.614   3.897  0.00  0.00    -0.196 NA
ENDBRANCH  21  22
ENDBRANCH  20  21
ENDBRANCH  10  20
TORSDOF 5
