REMARK  Name = ZINC02875847
REMARK  10 active torsions:
REMARK  status: ('A' for Active; 'I' for Inactive)
REMARK    1  A    between atoms: C_1  and  C_2
REMARK    2  A    between atoms: C_5  and  N_9
REMARK    3  A    between atoms: C_6  and  C_8
REMARK    4  A    between atoms: C_10  and  C_27
REMARK    5  A    between atoms: C_13  and  S_14
REMARK    6  A    between atoms: S_14  and  C_15
REMARK    7  A    between atoms: C_15  and  C_16
REMARK    8  A    between atoms: N_18  and  C_19
REMARK    9  A    between atoms: C_22  and  C_26
REMARK   10  A    between atoms: C_32  and  O_33
REMARK                            x       y       z     vdW  Elec       q    Type
REMARK                         _______ _______ _______ _____ _____    ______ ____
ROOT
ATOM      1  N   UNL     1       0.059  -4.173  -0.008  0.00  0.00    -0.270 N 
ATOM      2  C   UNL     1      -1.026  -5.021  -0.002  0.00  0.00    +0.173 A 
ATOM      3  N   UNL     1      -0.557  -6.247  -0.004  0.00  0.00    -0.128 NA
ATOM      4  N   UNL     1       0.728  -6.226  -0.010  0.00  0.00    -0.122 NA
ATOM      5  C   UNL     1       1.161  -4.986  -0.019  0.00  0.00    +0.197 A 
ENDROOT
BRANCH   1  10
ATOM      6  C   UNL     1      -0.019   1.502  -0.009  0.00  0.00    +0.044 C 
ATOM      7  C   UNL     1       0.001  -0.005  -0.009  0.00  0.00    -0.050 A 
ATOM      8  C   UNL     1      -0.001  -0.695  -1.207  0.00  0.00    +0.005 A 
ATOM      9  C   UNL     1       0.019  -2.076  -1.210  0.00  0.00    +0.027 A 
ATOM     10  C   UNL     1       0.040  -2.771  -0.008  0.00  0.00    +0.053 A 
ATOM     11  C   UNL     1       0.042  -2.075   1.193  0.00  0.00    -0.026 A 
ATOM     12  C   UNL     1       0.028  -0.694   1.189  0.00  0.00    +0.008 A 
ATOM     13  C   UNL     1       0.064  -2.826   2.499  0.00  0.00    +0.046 C 
ENDBRANCH   1  10
BRANCH   2  14
ATOM     14  C   UNL     1      -2.450  -4.626   0.004  0.00  0.00    +0.061 A 
ATOM     15  C   UNL     1      -2.803  -3.276  -0.001  0.00  0.00    +0.015 A 
ATOM     16  C   UNL     1      -4.134  -2.913   0.005  0.00  0.00    +0.001 A 
ATOM     17  C   UNL     1      -5.121  -3.883   0.016  0.00  0.00    +0.004 A 
ATOM     18  C   UNL     1      -4.784  -5.223   0.020  0.00  0.00    +0.046 A 
ATOM     19  C   UNL     1      -3.452  -5.604   0.009  0.00  0.00    +0.128 A 
BRANCH  19  20
ATOM     20  O   UNL     1      -3.119  -6.921   0.008  0.00  0.00    -0.506 OA
ATOM     21  H   UNL     1      -3.019  -7.302   0.891  0.00  0.00    +0.292 HD
ENDBRANCH  19  20
ENDBRANCH   2  14
BRANCH   5  22
ATOM     22  S   UNL     1       2.844  -4.465  -0.036  0.00  0.00    -0.076 S 
BRANCH  22  23
ATOM     23  C   UNL     1       3.783  -6.017  -0.045  0.00  0.00    +0.173 C 
BRANCH  23  24
ATOM     24  C   UNL     1       5.259  -5.712  -0.060  0.00  0.00    +0.227 C 
ATOM     25  O   UNL     1       5.639  -4.560  -0.064  0.00  0.00    -0.275 OA
ATOM     26  N   UNL     1       6.155  -6.718  -0.069  0.00  0.00    -0.285 N 
ATOM     27  H   UNL     1       5.854  -7.637   0.003  0.00  0.00    +0.155 HD
BRANCH  26  28
ATOM     28  C   UNL     1       7.521  -6.436  -0.180  0.00  0.00    +0.035 A 
ATOM     29  C   UNL     1       8.352  -7.293  -0.891  0.00  0.00    +0.023 A 
ATOM     30  C   UNL     1       9.700  -7.013  -1.000  0.00  0.00    +0.006 A 
ATOM     31  C   UNL     1      10.224  -5.881  -0.403  0.00  0.00    -0.032 A 
ATOM     32  C   UNL     1       9.399  -5.026   0.306  0.00  0.00    +0.046 A 
ATOM     33  C   UNL     1       8.048  -5.298   0.414  0.00  0.00    +0.043 A 
ATOM     34 CL   UNL     1      10.060  -3.606   1.056  0.00  0.00    -0.083 Cl
ATOM     35  C   UNL     1      11.695  -5.580  -0.523  0.00  0.00    +0.045 C 
ENDBRANCH  26  28
ENDBRANCH  23  24
ENDBRANCH  22  23
ENDBRANCH   5  22
TORSDOF 7
