REMARK  Name = ZINC28813220
REMARK  11 active torsions:
REMARK  status: ('A' for Active; 'I' for Inactive)
REMARK    1  A    between atoms: C_1  and  C_2
REMARK    2  A    between atoms: C_2  and  S_3
REMARK    3  A    between atoms: S_3  and  C_6
REMARK    4  A    between atoms: C_9  and  O_29
REMARK    5  A    between atoms: C_10  and  N_12
REMARK    6  A    between atoms: C_13  and  C_15
REMARK    7  A    between atoms: C_15  and  C_16
REMARK    8  A    between atoms: C_22  and  C_26
REMARK    9  A    between atoms: C_23  and  C_25
REMARK   10  A    between atoms: C_26  and  C_27
REMARK   11  A    between atoms: C_26  and  C_28
REMARK                            x       y       z     vdW  Elec       q    Type
REMARK                         _______ _______ _______ _____ _____    ______ ____
ROOT
ATOM      1  N   UNL     1      -1.522  -5.017  -2.190  0.00  0.00    -0.282 N 
ATOM      2  C   UNL     1      -2.549  -4.370  -2.776  0.00  0.00    +0.222 C 
ATOM      3  O   UNL     1      -2.519  -3.162  -2.889  0.00  0.00    -0.275 OA
ATOM      4  H   UNL     1      -1.516  -6.116  -2.150  0.00  0.00    +0.155 HD
ENDROOT
BRANCH   1   9
ATOM      5  C   UNL     1       0.999  -2.388  -1.669  0.00  0.00    +0.090 A 
ATOM      6  C   UNL     1       1.637  -2.854  -0.534  0.00  0.00    +0.030 A 
ATOM      7  C   UNL     1       1.225  -4.032   0.060  0.00  0.00    +0.049 A 
ATOM      8  C   UNL     1       0.178  -4.755  -0.486  0.00  0.00    +0.138 A 
ATOM      9  C   UNL     1      -0.462  -4.290  -1.633  0.00  0.00    +0.077 A 
ATOM     10  C   UNL     1      -0.047  -3.104  -2.221  0.00  0.00    +0.054 A 
BRANCH   5  11
ATOM     11  S   UNL     1       1.524  -0.882  -2.418  0.00  0.00    -0.003 S 
ATOM     12  O   UNL     1       1.157  -1.009  -3.785  0.00  0.00    -0.169 OA
ATOM     13  O   UNL     1       2.889  -0.748  -2.044  0.00  0.00    -0.169 OA
BRANCH  11  15
ATOM     14  C   UNL     1       0.904   1.773  -2.199  0.00  0.00    +0.028 C 
ATOM     15  C   UNL     1       0.528   0.407  -1.621  0.00  0.00    +0.168 C 
ENDBRANCH  11  15
ENDBRANCH   5  11
BRANCH   8  16
ATOM     16  O   UNL     1      -0.225  -5.917   0.095  0.00  0.00    -0.505 OA
ATOM     17  H   UNL     1      -1.057  -6.490  -0.341  0.00  0.00    +0.292 HD
ENDBRANCH   8  16
ENDBRANCH   1   9
BRANCH   2  18
ATOM     18  C   UNL     1      -3.734  -5.146  -3.289  0.00  0.00    +0.135 C 
BRANCH  18  19
ATOM     19  C   UNL     1      -4.734  -4.194  -3.894  0.00  0.00    +0.007 A 
ATOM     20  C   UNL     1      -5.801  -3.656  -3.288  0.00  0.00    +0.200 A 
ATOM     21  O   UNL     1      -6.463  -2.854  -4.140  0.00  0.00    -0.463 OA
ATOM     22  C   UNL     1      -5.858  -2.829  -5.345  0.00  0.00    +0.135 A 
ATOM     23  C   UNL     1      -4.732  -3.664  -5.263  0.00  0.00    +0.024 A 
ATOM     24  C   UNL     1      -3.909  -3.841  -6.374  0.00  0.00    +0.016 A 
ATOM     25  C   UNL     1      -4.201  -3.183  -7.548  0.00  0.00    -0.041 A 
ATOM     26  C   UNL     1      -5.309  -2.353  -7.628  0.00  0.00    -0.044 A 
ATOM     27  C   UNL     1      -6.134  -2.174  -6.538  0.00  0.00    +0.050 A 
ATOM     28  C   UNL     1      -5.615  -1.639  -8.919  0.00  0.00    +0.044 C 
BRANCH  25  29
ATOM     29  C   UNL     1      -3.312  -3.365  -8.751  0.00  0.00    +0.013 C 
ATOM     30  C   UNL     1      -1.923  -2.797  -8.450  0.00  0.00    +0.012 C 
ATOM     31  C   UNL     1      -3.194  -4.855  -9.078  0.00  0.00    +0.012 C 
ENDBRANCH  25  29
ENDBRANCH  18  19
ENDBRANCH   2  18
TORSDOF 7
