REMARK  Name = ZINC38596156
REMARK  12 active torsions:
REMARK  status: ('A' for Active; 'I' for Inactive)
REMARK    1  A    between atoms: C_1  and  C_2
REMARK    2  A    between atoms: C_2  and  C_4
REMARK    3  A    between atoms: C_2  and  N_24
REMARK    4  A    between atoms: C_4  and  C_6
REMARK    5  A    between atoms: C_4  and  N_11
REMARK    6  A    between atoms: N_14  and  C_17
REMARK    7  A    between atoms: C_17  and  C_18
REMARK    8  A    between atoms: N_24  and  S_25
REMARK    9  A    between atoms: S_25  and  C_28
REMARK   10  A    between atoms: C_31  and  C_34
REMARK   11  A    between atoms: C_34  and  C_35
REMARK   12  A    between atoms: C_34  and  C_36
REMARK                            x       y       z     vdW  Elec       q    Type
REMARK                         _______ _______ _______ _____ _____    ______ ____
ROOT
ATOM      1  C   UNL     1      -1.392  -0.633  -0.052  0.00  0.00    +0.112 C 
ENDROOT
BRANCH   1   2
ATOM      2  N   UNL     1      -2.057  -0.241  -1.302  0.00  0.00    -0.297 NA
ATOM      3  C   UNL     1      -2.012   1.216  -1.489  0.00  0.00    +0.066 C 
ATOM      4  C   UNL     1      -2.661   1.577  -2.827  0.00  0.00    -0.063 C 
ATOM      5  N   UNL     1      -4.053   1.107  -2.838  0.00  0.00    +0.384 N 
ATOM      6  C   UNL     1      -4.080  -0.353  -2.676  0.00  0.00    -0.063 C 
ATOM      7  C   UNL     1      -3.443  -0.729  -1.336  0.00  0.00    +0.066 C 
ATOM      8  H   UNL     1      -4.560   1.539  -2.080  0.00  0.00    -0.081 HD
BRANCH   5   9
ATOM      9  C   UNL     1      -4.681   1.469  -4.116  0.00  0.00    -0.043 C 
BRANCH   9  10
ATOM     10  C   UNL     1      -6.141   1.098  -4.081  0.00  0.00    -0.064 A 
ATOM     11  C   UNL     1      -6.545  -0.157  -4.497  0.00  0.00    +0.002 A 
ATOM     12  C   UNL     1      -7.884  -0.498  -4.465  0.00  0.00    +0.000 A 
ATOM     13  C   UNL     1      -8.819   0.416  -4.017  0.00  0.00    +0.000 A 
ATOM     14  C   UNL     1      -8.415   1.671  -3.600  0.00  0.00    +0.000 A 
ATOM     15  C   UNL     1      -7.075   2.010  -3.628  0.00  0.00    +0.002 A 
ENDBRANCH   9  10
ENDBRANCH   5   9
ENDBRANCH   1   2
BRANCH   1  16
ATOM     16  C   UNL     1      -1.477  -2.128   0.115  0.00  0.00    +0.008 A 
ATOM     17  C   UNL     1      -1.712  -2.849   1.238  0.00  0.00    +0.013 A 
ATOM     18  C   UNL     1      -1.748  -4.228   1.154  0.00  0.00    +0.008 A 
ATOM     19  C   UNL     1      -1.547  -4.819  -0.049  0.00  0.00    +0.045 A 
ATOM     20  S   UNL     1      -1.303  -3.409  -1.117  0.00  0.00    -0.100 S 
ENDBRANCH   1  16
BRANCH   1  22
ATOM     21  C   UNL     1       0.773  -0.628   1.194  0.00  0.00    +0.027 C 
ATOM     22  C   UNL     1       0.077  -0.208  -0.102  0.00  0.00    +0.095 C 
BRANCH  22  23
ATOM     23  N   UNL     1       0.735  -0.856  -1.240  0.00  0.00    -0.185 NA
ATOM     24  H   UNL     1       0.478  -1.754  -1.502  0.00  0.00    +0.148 HD
BRANCH  23  25
ATOM     25  S   UNL     1       1.915  -0.054  -2.080  0.00  0.00    +0.059 S 
ATOM     26  O   UNL     1       2.368  -0.943  -3.092  0.00  0.00    -0.153 OA
ATOM     27  O   UNL     1       1.399   1.236  -2.375  0.00  0.00    -0.153 OA
BRANCH  25  28
ATOM     28  C   UNL     1       3.269   0.184  -0.977  0.00  0.00    +0.105 A 
ATOM     29  C   UNL     1       3.331   1.323  -0.195  0.00  0.00    +0.029 A 
ATOM     30  C   UNL     1       4.392   1.509   0.670  0.00  0.00    +0.006 A 
ATOM     31  C   UNL     1       5.391   0.558   0.754  0.00  0.00    -0.045 A 
ATOM     32  C   UNL     1       5.329  -0.581  -0.027  0.00  0.00    +0.006 A 
ATOM     33  C   UNL     1       4.265  -0.770  -0.889  0.00  0.00    +0.029 A 
BRANCH  31  34
ATOM     34  C   UNL     1       6.549   0.762   1.697  0.00  0.00    +0.013 C 
ATOM     35  C   UNL     1       6.590  -0.383   2.711  0.00  0.00    +0.012 C 
ATOM     36  C   UNL     1       7.856   0.786   0.902  0.00  0.00    +0.012 C 
ENDBRANCH  31  34
ENDBRANCH  25  28
ENDBRANCH  23  25
ENDBRANCH  22  23
ENDBRANCH   1  22
TORSDOF 9
