REMARK  Name = ZINC66243999
REMARK  6 active torsions:
REMARK  status: ('A' for Active; 'I' for Inactive)
REMARK    1  A    between atoms: C_4  and  C_7
REMARK    2  A    between atoms: C_7  and  N_8
REMARK    3  A    between atoms: N_11  and  C_12
REMARK    4  A    between atoms: C_12  and  C_13
REMARK    5  A    between atoms: C_13  and  N_14
REMARK    6  A    between atoms: C_16  and  C_21
REMARK                            x       y       z     vdW  Elec       q    Type
REMARK                         _______ _______ _______ _____ _____    ______ ____
ROOT
ATOM      1  N   UNL     1       4.152  -0.952   1.338  0.00  0.00    -0.354 N 
ATOM      2  C   UNL     1       5.334  -1.613   1.573  0.00  0.00    +0.169 C 
ATOM      3  N   UNL     1       6.063  -2.022   0.573  0.00  0.00    -0.371 N 
ATOM      4  N   UNL     1       5.747  -1.844   2.864  0.00  0.00    -0.356 N 
ATOM      5  H   UNL     1       3.610  -0.648   2.082  0.00  0.00    +0.163 HD
ATOM      6  H   UNL     1       6.897  -2.488   0.739  0.00  0.00    +0.159 HD
ATOM      7  H   UNL     1       5.205  -1.540   3.609  0.00  0.00    +0.162 HD
ATOM      8  H   UNL     1       5.771  -1.860  -0.338  0.00  0.00    +0.159 HD
ENDROOT
BRANCH   1   9
ATOM      9  C   UNL     1       3.711  -0.707  -0.038  0.00  0.00    +0.151 C 
BRANCH   9  13
ATOM     10  C   UNL     1      -0.017   1.378   0.010  0.00  0.00    +0.000 A 
ATOM     11  C   UNL     1       1.171   2.086   0.002  0.00  0.00    +0.000 A 
ATOM     12  C   UNL     1       2.377   1.411  -0.013  0.00  0.00    +0.005 A 
ATOM     13  C   UNL     1       2.396   0.029  -0.020  0.00  0.00    -0.028 A 
ATOM     14  C   UNL     1       1.208  -0.679  -0.012  0.00  0.00    +0.005 A 
ATOM     15  C   UNL     1       0.002  -0.004   0.002  0.00  0.00    +0.000 A 
ENDBRANCH   9  13
ENDBRANCH   1   9
BRANCH   4  16
ATOM     16  C   UNL     1       7.007  -2.548   3.115  0.00  0.00    +0.134 C 
BRANCH  16  17
ATOM     17  C   UNL     1       7.231  -2.672   4.624  0.00  0.00    +0.124 C 
BRANCH  17  18
ATOM     18  N   UNL     1       8.490  -3.376   4.875  0.00  0.00    -0.327 N 
ATOM     19  C   UNL     1       8.909  -3.609   6.180  0.00  0.00    +0.130 A 
ATOM     20  C   UNL     1      10.109  -4.274   6.411  0.00  0.00    +0.094 A 
ATOM     21  C   UNL     1      10.513  -4.498   7.715  0.00  0.00    +0.017 A 
ATOM     22  C   UNL     1       9.700  -4.049   8.747  0.00  0.00    +0.020 A 
ATOM     23  C   UNL     1       8.521  -3.397   8.445  0.00  0.00    +0.113 A 
ATOM     24  N   UNL     1       8.164  -3.191   7.192  0.00  0.00    -0.240 NA
ATOM     25  H   UNL     1       9.033  -3.680   4.130  0.00  0.00    +0.148 HD
BRANCH  20  26
ATOM     26  C   UNL     1      10.957  -4.742   5.257  0.00  0.00    +0.421 C 
ATOM     27  F   UNL     1      12.103  -5.377   5.748  0.00  0.00    -0.166 F 
ATOM     28  F   UNL     1      10.224  -5.642   4.475  0.00  0.00    -0.166 F 
ATOM     29  F   UNL     1      11.331  -3.643   4.476  0.00  0.00    -0.166 F 
ENDBRANCH  20  26
ENDBRANCH  17  18
ENDBRANCH  16  17
ENDBRANCH   4  16
TORSDOF 6
