REMARK  Name = ZINC39583541
REMARK  5 active torsions:
REMARK  status: ('A' for Active; 'I' for Inactive)
REMARK    1  A    between atoms: C_1  and  C_2
REMARK    2  A    between atoms: C_6  and  C_7
REMARK    3  A    between atoms: N_8  and  N_9
REMARK    4  A    between atoms: C_10  and  C_12
REMARK    5  A    between atoms: C_15  and  C_18
REMARK                            x       y       z     vdW  Elec       q    Type
REMARK                         _______ _______ _______ _____ _____    ______ ____
ROOT
ATOM      1  N   UNL     1       0.056  -0.588   4.878  0.00  0.00    -0.205 N 
ATOM      2  C   UNL     1       0.078  -1.458   5.907  0.00  0.00    +0.263 C 
ATOM      3  O   UNL     1       0.092  -2.652   5.692  0.00  0.00    -0.271 OA
ATOM      4  H   UNL     1       0.045   0.366   5.050  0.00  0.00    +0.177 HD
ENDROOT
BRANCH   2   5
ATOM      5  C   UNL     1       0.085  -0.948   7.325  0.00  0.00    +0.240 C 
ATOM      6  C   UNL     1      -1.324  -0.607   7.779  0.00  0.00    +0.041 C 
ATOM      7  C   UNL     1      -1.538  -1.437   8.818  0.00  0.00    +0.092 C 
ATOM      8  N   UNL     1      -0.446  -2.217   9.035  0.00  0.00    -0.153 NA
ATOM      9  N   UNL     1       0.494  -2.011   8.258  0.00  0.00    -0.170 NA
BRANCH   7  10
ATOM     10  C   UNL     1      -2.788  -1.491   9.615  0.00  0.00    +0.002 A 
ATOM     11  C   UNL     1      -3.853  -0.647   9.303  0.00  0.00    +0.011 A 
ATOM     12  C   UNL     1      -5.013  -0.701  10.047  0.00  0.00    +0.020 A 
ATOM     13  C   UNL     1      -5.122  -1.592  11.102  0.00  0.00    +0.041 A 
ATOM     14  C   UNL     1      -4.067  -2.432  11.415  0.00  0.00    +0.020 A 
ATOM     15  C   UNL     1      -2.905  -2.390  10.673  0.00  0.00    +0.011 A 
ATOM     16 CL   UNL     1      -6.585  -1.654  12.034  0.00  0.00    -0.084 Cl
ENDBRANCH   7  10
ENDBRANCH   2   5
BRANCH   1  18
ATOM     17  C   UNL     1       0.029  -0.223   2.567  0.00  0.00    +0.145 C 
ATOM     18  N   UNL     1       0.050  -1.063   3.560  0.00  0.00    -0.187 NA
BRANCH  17  24
ATOM     19  C   UNL     1      -0.018   1.503   0.010  0.00  0.00    +0.045 C 
ATOM     20  C   UNL     1       0.002  -0.004   0.002  0.00  0.00    -0.035 A 
ATOM     21  C   UNL     1       0.006  -0.702  -1.183  0.00  0.00    +0.011 A 
ATOM     22  C   UNL     1       0.025  -2.060  -1.155  0.00  0.00    +0.046 A 
ATOM     23  S   UNL     1       0.037  -2.405   0.597  0.00  0.00    -0.095 S 
ATOM     24  C   UNL     1       0.023  -0.720   1.187  0.00  0.00    +0.035 A 
ENDBRANCH  17  24
ENDBRANCH   1  18
TORSDOF 4
