REMARK  Name = ZINC23157317
REMARK  8 active torsions:
REMARK  status: ('A' for Active; 'I' for Inactive)
REMARK    1  A    between atoms: C_1  and  C_2
REMARK    2  A    between atoms: C_7  and  O_33
REMARK    3  A    between atoms: C_8  and  C_10
REMARK    4  A    between atoms: C_10  and  C_12
REMARK    5  A    between atoms: C_10  and  N_20
REMARK    6  A    between atoms: C_15  and  O_18
REMARK    7  A    between atoms: O_18  and  C_19
REMARK    8  A    between atoms: N_23  and  C_26
REMARK                            x       y       z     vdW  Elec       q    Type
REMARK                         _______ _______ _______ _____ _____    ______ ____
ROOT
ATOM      1  C   UNL     1       1.669   7.546  -1.035  0.00  0.00    +0.129 C 
ENDROOT
BRANCH   1   9
ATOM      2  C   UNL     1      -0.807  10.318   5.432  0.00  0.00    +0.090 C 
ATOM      3  C   UNL     1      -0.428   9.649   4.136  0.00  0.00    +0.150 A 
ATOM      4  N   UNL     1      -1.055   8.608   3.593  0.00  0.00    -0.205 NA
ATOM      5  C   UNL     1      -0.466   8.285   2.475  0.00  0.00    +0.199 A 
ATOM      6  N   UNL     1       0.584   9.123   2.252  0.00  0.00    -0.173 N 
ATOM      7  N   UNL     1       0.568  10.000   3.368  0.00  0.00    -0.147 NA
ATOM      8  C   UNL     1       1.323   8.918   1.112  0.00  0.00    +0.228 A 
ATOM      9  C   UNL     1       1.003   7.937   0.260  0.00  0.00    +0.076 A 
ATOM     10  S   UNL     1      -0.415   7.206   1.064  0.00  0.00    -0.047 S 
BRANCH   8  11
ATOM     11  O   UNL     1       2.386   9.723   0.844  0.00  0.00    -0.492 OA
ATOM     12  H   UNL     1       2.981   9.563  -0.067  0.00  0.00    +0.294 HD
ENDBRANCH   8  11
ENDBRANCH   1   9
BRANCH   1  13
ATOM     13  C   UNL     1       0.815   7.995  -2.193  0.00  0.00    -0.025 A 
ATOM     14  C   UNL     1      -0.354   7.320  -2.492  0.00  0.00    +0.009 A 
ATOM     15  C   UNL     1      -1.140   7.733  -3.550  0.00  0.00    +0.046 A 
ATOM     16  C   UNL     1      -0.750   8.818  -4.320  0.00  0.00    +0.120 A 
ATOM     17  C   UNL     1       0.426   9.491  -4.022  0.00  0.00    +0.046 A 
ATOM     18  C   UNL     1       1.206   9.078  -2.959  0.00  0.00    +0.009 A 
BRANCH  16  19
ATOM     19  O   UNL     1      -1.519   9.222  -5.365  0.00  0.00    -0.495 OA
ATOM     20  C   UNL     1      -2.717   8.483  -5.614  0.00  0.00    +0.277 C 
ENDBRANCH  16  19
ENDBRANCH   1  13
BRANCH   1  21
ATOM     21  N   UNL     1       1.830   6.087  -1.082  0.00  0.00    -0.288 NA
ATOM     22  C   UNL     1       2.529   5.674  -2.307  0.00  0.00    +0.104 C 
ATOM     23  C   UNL     1       2.607   4.146  -2.356  0.00  0.00    +0.120 C 
ATOM     24  N   UNL     1       3.308   3.655  -1.162  0.00  0.00    -0.327 N 
ATOM     25  C   UNL     1       2.609   4.069   0.063  0.00  0.00    +0.120 C 
ATOM     26  C   UNL     1       2.532   5.596   0.112  0.00  0.00    +0.104 C 
BRANCH  24  27
ATOM     27  C   UNL     1       3.462   2.266  -1.207  0.00  0.00    +0.030 A 
ATOM     28  C   UNL     1       4.103   1.604  -0.168  0.00  0.00    +0.026 A 
ATOM     29  C   UNL     1       4.253   0.232  -0.214  0.00  0.00    +0.040 A 
ATOM     30  C   UNL     1       3.766  -0.483  -1.295  0.00  0.00    +0.124 A 
ATOM     31  C   UNL     1       3.127   0.175  -2.332  0.00  0.00    +0.040 A 
ATOM     32  C   UNL     1       2.975   1.547  -2.290  0.00  0.00    +0.026 A 
ATOM     33  F   UNL     1       3.915  -1.825  -1.338  0.00  0.00    -0.205 F 
ENDBRANCH  24  27
ENDBRANCH   1  21
TORSDOF 6
