REMARK  Name = ZINC35072680
REMARK  15 active torsions:
REMARK  status: ('A' for Active; 'I' for Inactive)
REMARK    1  A    between atoms: C_1  and  C_2
REMARK    2  A    between atoms: C_2  and  C_4
REMARK    3  A    between atoms: C_2  and  N_23
REMARK    4  A    between atoms: N_14  and  C_15
REMARK    5  A    between atoms: C_20  and  O_21
REMARK    6  A    between atoms: O_21  and  C_22
REMARK    7  A    between atoms: N_23  and  C_24
REMARK    8  A    between atoms: C_24  and  C_25
REMARK    9  A    between atoms: C_25  and  C_26
REMARK   10  A    between atoms: C_25  and  C_27
REMARK   11  A    between atoms: N_30  and  C_31
REMARK   12  A    between atoms: C_34  and  O_39
REMARK   13  A    between atoms: C_36  and  O_37
REMARK   14  A    between atoms: O_37  and  C_38
REMARK   15  A    between atoms: O_39  and  C_40
REMARK                            x       y       z     vdW  Elec       q    Type
REMARK                         _______ _______ _______ _____ _____    ______ ____
ROOT
ATOM      1  C   UNL     1       0.048   1.511   0.234  0.00  0.00    +0.036 C 
ATOM      2  C   UNL     1      -0.090  -0.001   0.048  0.00  0.00    +0.141 C 
ENDROOT
BRANCH   2   3
ATOM      3  C   UNL     1       0.541  -0.406  -1.259  0.00  0.00    +0.138 A 
ATOM      4  N   UNL     1       1.775  -0.067  -1.479  0.00  0.00    -0.231 NA
ATOM      5  C   UNL     1       2.409  -0.397  -2.632  0.00  0.00    +0.078 A 
ATOM      6  C   UNL     1       3.736  -0.032  -2.869  0.00  0.00    +0.028 A 
ATOM      7  C   UNL     1       4.340  -0.388  -4.053  0.00  0.00    +0.002 A 
ATOM      8  C   UNL     1       3.646  -1.107  -5.018  0.00  0.00    +0.001 A 
ATOM      9  C   UNL     1       2.336  -1.478  -4.808  0.00  0.00    +0.015 A 
ATOM     10  C   UNL     1       1.706  -1.128  -3.615  0.00  0.00    +0.065 A 
ATOM     11  C   UNL     1       0.311  -1.497  -3.336  0.00  0.00    +0.266 A 
ATOM     12  O   UNL     1      -0.350  -2.127  -4.141  0.00  0.00    -0.267 OA
ATOM     13  N   UNL     1      -0.209  -1.114  -2.146  0.00  0.00    -0.259 N 
BRANCH  13  14
ATOM     14  C   UNL     1      -1.533  -1.446  -1.828  0.00  0.00    +0.093 A 
ATOM     15  C   UNL     1      -2.574  -0.631  -2.248  0.00  0.00    +0.030 A 
ATOM     16  C   UNL     1      -3.879  -0.960  -1.933  0.00  0.00    +0.002 A 
ATOM     17  C   UNL     1      -4.150  -2.100  -1.198  0.00  0.00    +0.004 A 
ATOM     18  C   UNL     1      -3.118  -2.916  -0.775  0.00  0.00    +0.048 A 
ATOM     19  C   UNL     1      -1.807  -2.597  -1.093  0.00  0.00    +0.144 A 
BRANCH  19  20
ATOM     20  O   UNL     1      -0.792  -3.402  -0.683  0.00  0.00    -0.493 OA
ATOM     21  C   UNL     1      -1.148  -4.565   0.067  0.00  0.00    +0.277 C 
ENDBRANCH  19  20
ENDBRANCH  13  14
ENDBRANCH   2   3
BRANCH   2  22
ATOM     22  N   UNL     1       0.582  -0.692   1.150  0.00  0.00    -0.275 N 
ATOM     23  C   UNL     1      -0.118  -1.512   1.959  0.00  0.00    +0.307 C 
ATOM     24  O   UNL     1      -1.309  -1.677   1.774  0.00  0.00    -0.252 OA
ATOM     25  N   UNL     1       0.500  -2.147   2.974  0.00  0.00    -0.266 N 
ATOM     26  H   UNL     1       1.463  -2.078   3.075  0.00  0.00    +0.156 HD
BRANCH  25  27
ATOM     27  C   UNL     1      -0.247  -2.910   3.884  0.00  0.00    +0.077 A 
ATOM     28  C   UNL     1      -1.592  -2.635   4.080  0.00  0.00    +0.030 A 
ATOM     29  C   UNL     1      -2.329  -3.385   4.977  0.00  0.00    +0.047 A 
ATOM     30  C   UNL     1      -1.725  -4.415   5.683  0.00  0.00    +0.124 A 
ATOM     31  C   UNL     1      -0.380  -4.694   5.491  0.00  0.00    +0.093 A 
ATOM     32  C   UNL     1       0.359  -3.948   4.588  0.00  0.00    +0.145 A 
BRANCH  32  33
ATOM     33  O   UNL     1       1.676  -4.224   4.393  0.00  0.00    -0.493 OA
ATOM     34  C   UNL     1       2.232  -5.302   5.149  0.00  0.00    +0.277 C 
ENDBRANCH  32  33
BRANCH  30  35
ATOM     35  O   UNL     1      -2.452  -5.152   6.565  0.00  0.00    -0.495 OA
ATOM     36  C   UNL     1      -3.831  -4.809   6.714  0.00  0.00    +0.277 C 
ENDBRANCH  30  35
ENDBRANCH  25  27
BRANCH  22  37
ATOM     37  C   UNL     1       2.016  -0.493   1.373  0.00  0.00    +0.113 C 
BRANCH  37  38
ATOM     38  C   UNL     1       2.225   0.687   2.325  0.00  0.00    +0.000 C 
ATOM     39  C   UNL     1       1.646   0.344   3.698  0.00  0.00    +0.009 C 
ATOM     40  C   UNL     1       3.722   0.974   2.460  0.00  0.00    +0.009 C 
ENDBRANCH  37  38
ENDBRANCH  22  37
ENDBRANCH   2  22
TORSDOF 9
