REMARK  Name = ZINC52582293
REMARK  8 active torsions:
REMARK  status: ('A' for Active; 'I' for Inactive)
REMARK    1  A    between atoms: C_1  and  C_2
REMARK    2  A    between atoms: N_5  and  C_8
REMARK    3  A    between atoms: C_8  and  C_10
REMARK    4  A    between atoms: C_8  and  C_24
REMARK    5  A    between atoms: C_10  and  N_11
REMARK    6  A    between atoms: N_14  and  N_15
REMARK    7  A    between atoms: C_16  and  C_18
REMARK    8  A    between atoms: N_20  and  C_21
REMARK                            x       y       z     vdW  Elec       q    Type
REMARK                         _______ _______ _______ _____ _____    ______ ____
ROOT
ATOM      1  N   UNL     1      -2.242  -5.869   1.705  0.00  0.00    -0.299 N 
ATOM      2  C   UNL     1      -3.428  -6.505   1.770  0.00  0.00    +0.316 C 
ATOM      3  O   UNL     1      -4.463  -5.867   1.742  0.00  0.00    -0.251 OA
ATOM      4  N   UNL     1      -3.467  -7.849   1.865  0.00  0.00    -0.218 N 
ATOM      5  H   UNL     1      -1.417  -6.378   1.727  0.00  0.00    +0.150 HD
ATOM      6  H   UNL     1      -4.321  -8.307   1.912  0.00  0.00    +0.174 HD
ENDROOT
BRANCH   4   7
ATOM      7  N   UNL     1      -2.275  -8.584   1.897  0.00  0.00    -0.225 N 
ATOM      8  C   UNL     1      -2.315  -9.928   1.992  0.00  0.00    +0.315 C 
ATOM      9  O   UNL     1      -3.383 -10.501   2.051  0.00  0.00    -0.264 OA
ATOM     10  H   UNL     1      -1.422  -8.126   1.850  0.00  0.00    +0.173 HD
BRANCH   8  11
ATOM     11  C   UNL     1      -1.043 -10.712   2.026  0.00  0.00    +0.301 C 
ATOM     12  O   UNL     1       0.025 -10.139   1.968  0.00  0.00    -0.265 OA
ATOM     13  N   UNL     1      -1.082 -12.056   2.121  0.00  0.00    -0.305 N 
ATOM     14  H   UNL     1      -1.936 -12.514   2.168  0.00  0.00    +0.149 HD
BRANCH  13  15
ATOM     15  C   UNL     1       0.164 -12.825   2.155  0.00  0.00    +0.073 C 
ATOM     16  C   UNL     1       0.234 -14.095   1.304  0.00  0.00    +0.024 C 
ATOM     17  C   UNL     1       0.129 -14.199   2.827  0.00  0.00    +0.024 C 
ENDBRANCH  13  15
ENDBRANCH   8  11
ENDBRANCH   4   7
BRANCH   1  18
ATOM     18  C   UNL     1      -2.199  -4.408   1.601  0.00  0.00    +0.095 C 
BRANCH  18  19
ATOM     19  C   UNL     1      -0.749  -3.951   1.434  0.00  0.00    -0.020 C 
BRANCH  19  24
ATOM     20  C   UNL     1      -0.068   1.426  -0.341  0.00  0.00    +0.007 C 
ATOM     21  C   UNL     1      -0.042  -0.101  -0.250  0.00  0.00    -0.018 C 
ATOM     22  C   UNL     1      -1.475  -0.634  -0.165  0.00  0.00    -0.015 C 
ATOM     23  C   UNL     1      -1.439  -2.154   0.005  0.00  0.00    -0.078 C 
ATOM     24  N   UNL     1      -0.714  -2.496   1.235  0.00  0.00    +0.385 N 
ATOM     25  C   UNL     1       0.681  -2.051   1.131  0.00  0.00    -0.078 C 
ATOM     26  C   UNL     1       0.727  -0.527   1.004  0.00  0.00    -0.015 C 
ATOM     27  H   UNL     1      -1.153  -2.040   2.021  0.00  0.00    -0.081 HD
ENDBRANCH  19  24
BRANCH  19  28
ATOM     28  C   UNL     1       0.036  -4.307   2.671  0.00  0.00    -0.059 A 
ATOM     29  C   UNL     1      -0.054  -3.514   3.799  0.00  0.00    +0.002 A 
ATOM     30  C   UNL     1       0.666  -3.841   4.933  0.00  0.00    +0.000 A 
ATOM     31  C   UNL     1       1.475  -4.962   4.939  0.00  0.00    +0.000 A 
ATOM     32  C   UNL     1       1.564  -5.756   3.811  0.00  0.00    +0.000 A 
ATOM     33  C   UNL     1       0.841  -5.431   2.678  0.00  0.00    +0.002 A 
ENDBRANCH  19  28
ENDBRANCH  18  19
ENDBRANCH   1  18
TORSDOF 7
