REMARK  Name = ZINC15857597
REMARK  14 active torsions:
REMARK  status: ('A' for Active; 'I' for Inactive)
REMARK    1  A    between atoms: C_1  and  C_2
REMARK    2  A    between atoms: C_6  and  C_35
REMARK    3  A    between atoms: C_7  and  N_8
REMARK    4  A    between atoms: C_9  and  C_23
REMARK    5  A    between atoms: C_12  and  S_13
REMARK    6  A    between atoms: S_13  and  C_14
REMARK    7  A    between atoms: C_14  and  C_16
REMARK    8  A    between atoms: C_14  and  C_17
REMARK    9  A    between atoms: N_19  and  C_20
REMARK   10  A    between atoms: C_20  and  C_21
REMARK   11  A    between atoms: C_27  and  S_29
REMARK   12  A    between atoms: S_29  and  N_32
REMARK   13  A    between atoms: N_32  and  C_33
REMARK   14  A    between atoms: N_32  and  C_34
REMARK                            x       y       z     vdW  Elec       q    Type
REMARK                         _______ _______ _______ _____ _____    ______ ____
ROOT
ATOM      1  N   UNL     1      -6.393   0.937  -1.145  0.00  0.00    -0.270 N 
ATOM      2  C   UNL     1      -7.062  -0.254  -0.967  0.00  0.00    +0.169 A 
ATOM      3  N   UNL     1      -6.206  -1.102  -0.446  0.00  0.00    -0.128 NA
ATOM      4  N   UNL     1      -5.063  -0.535  -0.293  0.00  0.00    -0.122 NA
ATOM      5  C   UNL     1      -5.117   0.712  -0.707  0.00  0.00    +0.197 A 
ENDROOT
BRANCH   1  12
ATOM      6  C   UNL     1      -7.565   2.801   0.658  0.00  0.00    +0.046 C 
ATOM      7  C   UNL     1      -7.491   3.066  -0.823  0.00  0.00    -0.026 A 
ATOM      8  C   UNL     1      -7.996   4.243  -1.341  0.00  0.00    +0.005 A 
ATOM      9  C   UNL     1      -7.934   4.484  -2.701  0.00  0.00    +0.001 A 
ATOM     10  C   UNL     1      -7.361   3.551  -3.546  0.00  0.00    +0.005 A 
ATOM     11  C   UNL     1      -6.849   2.375  -3.034  0.00  0.00    -0.026 A 
ATOM     12  C   UNL     1      -6.911   2.130  -1.669  0.00  0.00    +0.056 A 
ATOM     13  C   UNL     1      -6.226   1.359  -3.955  0.00  0.00    +0.046 C 
ENDBRANCH   1  12
BRANCH   2  14
ATOM     14  C   UNL     1      -8.478  -0.524  -1.293  0.00  0.00    +0.021 A 
ATOM     15  C   UNL     1      -9.188   0.354  -2.114  0.00  0.00    +0.012 A 
ATOM     16  C   UNL     1     -10.508   0.093  -2.420  0.00  0.00    +0.003 A 
ATOM     17  C   UNL     1     -11.131  -1.030  -1.905  0.00  0.00    +0.028 A 
ATOM     18  C   UNL     1     -10.435  -1.901  -1.087  0.00  0.00    +0.106 A 
ATOM     19  C   UNL     1      -9.113  -1.655  -0.778  0.00  0.00    +0.040 A 
BRANCH  18  20
ATOM     20  S   UNL     1     -11.239  -3.328  -0.437  0.00  0.00    +0.060 S 
ATOM     21  O   UNL     1     -12.317  -3.622  -1.315  0.00  0.00    -0.153 OA
ATOM     22  O   UNL     1     -10.217  -4.271  -0.142  0.00  0.00    -0.153 OA
BRANCH  20  23
ATOM     23  N   UNL     1     -11.913  -2.893   1.012  0.00  0.00    -0.183 NA
ATOM     24  C   UNL     1     -13.281  -2.371   1.055  0.00  0.00    +0.131 C 
ATOM     25  C   UNL     1     -11.142  -3.031   2.249  0.00  0.00    +0.131 C 
ENDBRANCH  20  23
ENDBRANCH  18  20
ENDBRANCH   2  14
BRANCH   5  26
ATOM     26  S   UNL     1      -3.795   1.877  -0.691  0.00  0.00    -0.073 S 
BRANCH  26  27
ATOM     27  C   UNL     1      -2.482   0.853   0.018  0.00  0.00    +0.137 C 
ATOM     28  C   UNL     1      -2.849   0.476   1.455  0.00  0.00    +0.029 C 
BRANCH  27  29
ATOM     29  C   UNL     1      -1.187   1.624   0.017  0.00  0.00    +0.226 C 
ATOM     30  O   UNL     1      -1.204   2.837   0.023  0.00  0.00    -0.275 OA
ATOM     31  N   UNL     1      -0.011   0.966   0.007  0.00  0.00    -0.311 N 
ATOM     32  H   UNL     1       0.002  -0.004   0.002  0.00  0.00    +0.149 HD
BRANCH  31  33
ATOM     33  C   UNL     1       1.248   1.716  -0.001  0.00  0.00    +0.131 C 
BRANCH  33  34
ATOM     34  C   UNL     1       2.406   0.752  -0.017  0.00  0.00    -0.016 C 
ATOM     35  C   UNL     1       3.317   0.838  -0.955  0.00  0.00    +0.005 C 
ENDBRANCH  33  34
ENDBRANCH  31  33
ENDBRANCH  27  29
ENDBRANCH  26  27
ENDBRANCH   5  26
TORSDOF 9
