REMARK  Name = ZINC40755636
REMARK  4 active torsions:
REMARK  status: ('A' for Active; 'I' for Inactive)
REMARK    1  A    between atoms: C_10  and  N_11
REMARK    2  A    between atoms: C_13  and  N_29
REMARK    3  A    between atoms: C_14  and  N_18
REMARK    4  A    between atoms: N_18  and  C_19
REMARK                            x       y       z     vdW  Elec       q    Type
REMARK                         _______ _______ _______ _____ _____    ______ ____
ROOT
ATOM      1  N   UNL     1       4.870   0.096  -0.045  0.00  0.00    -0.297 N 
ATOM      2  C   UNL     1       6.082  -0.578   0.045  0.00  0.00    +0.149 A 
ATOM      3  C   UNL     1       7.281   0.130   0.148  0.00  0.00    +0.105 A 
ATOM      4  C   UNL     1       8.470  -0.597   0.236  0.00  0.00    +0.145 A 
ATOM      5  N   UNL     1       8.416  -1.926   0.218  0.00  0.00    -0.219 NA
ATOM      6  C   UNL     1       7.263  -2.556   0.119  0.00  0.00    +0.225 A 
ATOM      7  N   UNL     1       6.118  -1.909   0.039  0.00  0.00    -0.219 NA
ATOM      8  H   UNL     1       4.857   1.063  -0.124  0.00  0.00    +0.154 HD
ENDROOT
BRANCH   1  18
ATOM      9  C   UNL     1       0.199   0.944  -1.758  0.00  0.00    +0.001 A 
ATOM     10  C   UNL     1       1.386   1.674  -1.792  0.00  0.00    +0.001 A 
ATOM     11  C   UNL     1       2.526   1.183  -1.233  0.00  0.00    +0.010 A 
ATOM     12  C   UNL     1       2.510  -0.076  -0.613  0.00  0.00    +0.003 A 
ATOM     13  C   UNL     1       1.304  -0.819  -0.578  0.00  0.00    -0.016 A 
ATOM     14  C   UNL     1       0.146  -0.280  -1.166  0.00  0.00    +0.008 A 
ATOM     15  C   UNL     1       1.286  -2.079   0.043  0.00  0.00    +0.008 A 
ATOM     16  C   UNL     1       2.422  -2.577   0.605  0.00  0.00    +0.002 A 
ATOM     17  C   UNL     1       3.613  -1.857   0.577  0.00  0.00    +0.024 A 
ATOM     18  C   UNL     1       3.672  -0.617  -0.022  0.00  0.00    +0.040 A 
ENDBRANCH   1  18
BRANCH   3  19
ATOM     19  N   UNL     1       7.291   1.534   0.162  0.00  0.00    -0.353 N 
ATOM     20  H   UNL     1       6.457   2.025   0.100  0.00  0.00    +0.143 HD
ATOM     21  H   UNL     1       8.132   2.012   0.234  0.00  0.00    +0.143 HD
ENDBRANCH   3  19
BRANCH   4  22
ATOM     22  N   UNL     1       9.691   0.059   0.340  0.00  0.00    -0.322 N 
ATOM     23  H   UNL     1       9.722   1.028   0.351  0.00  0.00    +0.148 HD
BRANCH  22  24
ATOM     24  C   UNL     1      10.932  -0.715   0.431  0.00  0.00    +0.034 C 
ATOM     25  C   UNL     1      11.084  -1.585  -0.818  0.00  0.00    +0.029 C 
ATOM     26  C   UNL     1      12.380  -2.393  -0.723  0.00  0.00    -0.008 C 
ATOM     27  C   UNL     1      13.570  -1.437  -0.619  0.00  0.00    +0.007 C 
ATOM     28  C   UNL     1      13.418  -0.567   0.631  0.00  0.00    -0.008 C 
ATOM     29  C   UNL     1      12.123   0.241   0.535  0.00  0.00    +0.029 C 
ATOM     30  C   UNL     1      13.372  -1.461   1.872  0.00  0.00    +0.007 C 
ATOM     31  C   UNL     1      12.181  -2.417   1.768  0.00  0.00    -0.008 C 
ATOM     32  C   UNL     1      12.334  -3.286   0.518  0.00  0.00    +0.007 C 
ATOM     33  C   UNL     1      10.886  -1.609   1.672  0.00  0.00    +0.029 C 
ENDBRANCH  22  24
ENDBRANCH   4  22
TORSDOF 4
