REMARK  Name = ZINC04222529
REMARK  12 active torsions:
REMARK  status: ('A' for Active; 'I' for Inactive)
REMARK    1  A    between atoms: C_1  and  C_2
REMARK    2  A    between atoms: C_10  and  C_30
REMARK    3  A    between atoms: C_11  and  C_13
REMARK    4  A    between atoms: C_13  and  C_14
REMARK    5  A    between atoms: N_16  and  C_17
REMARK    6  A    between atoms: C_17  and  C_18
REMARK    7  A    between atoms: C_18  and  O_19
REMARK    8  A    between atoms: O_19  and  C_20
REMARK    9  A    between atoms: C_23  and  O_29
REMARK   10  A    between atoms: C_25  and  C_26
REMARK   11  A    between atoms: C_25  and  C_27
REMARK   12  A    between atoms: C_27  and  O_28
REMARK                            x       y       z     vdW  Elec       q    Type
REMARK                         _______ _______ _______ _____ _____    ______ ____
ROOT
ATOM      1  C   UNL     1      -0.502  -4.713   2.729  0.00  0.00    +0.073 C 
ATOM      2  C   UNL     1      -0.972  -3.358   2.266  0.00  0.00    +0.076 A 
ATOM      3  N   UNL     1      -0.467  -2.176   2.527  0.00  0.00    -0.249 NA
ATOM      4  C   UNL     1      -0.992  -1.055   2.045  0.00  0.00    +0.056 A 
ATOM      5  C   UNL     1      -2.091  -1.203   1.258  0.00  0.00    +0.013 A 
ATOM      6  S   UNL     1      -2.323  -2.960   1.247  0.00  0.00    -0.077 S 
ATOM      7  C   UNL     1      -2.878  -0.135   0.586  0.00  0.00    +0.049 C 
ATOM      8  C   UNL     1      -2.491   1.223   1.183  0.00  0.00    +0.011 C 
ATOM      9  C   UNL     1      -0.966   1.320   1.278  0.00  0.00    -0.020 C 
ATOM     10  C   UNL     1      -0.437   0.333   2.327  0.00  0.00    +0.053 C 
ATOM     11  C   UNL     1      -0.546   2.726   1.718  0.00  0.00    +0.010 C 
ATOM     12  C   UNL     1      -1.090   3.769   0.731  0.00  0.00    +0.032 C 
ATOM     13  C   UNL     1      -2.619   3.687   0.714  0.00  0.00    +0.123 C 
ATOM     14  C   UNL     1      -3.031   2.297   0.233  0.00  0.00    +0.021 C 
ATOM     15  C   UNL     1      -4.558   2.213   0.191  0.00  0.00    +0.016 C 
ATOM     16  C   UNL     1      -0.346   1.002  -0.084  0.00  0.00    +0.012 C 
ENDROOT
BRANCH  13  17
ATOM     17  O   UNL     1      -3.142   4.676  -0.176  0.00  0.00    -0.391 OA
ATOM     18  H   UNL     1      -2.918   5.584   0.070  0.00  0.00    +0.210 HD
ENDBRANCH  13  17
BRANCH  10  19
ATOM     19  C   UNL     1       1.091   0.294   2.265  0.00  0.00    +0.106 C 
BRANCH  19  20
ATOM     20  C   UNL     1       1.620  -0.518   3.419  0.00  0.00    +0.214 C 
ATOM     21  O   UNL     1       0.851  -1.015   4.214  0.00  0.00    -0.276 OA
ATOM     22  N   UNL     1       2.949  -0.690   3.569  0.00  0.00    -0.313 N 
ATOM     23  H   UNL     1       3.564  -0.292   2.933  0.00  0.00    +0.149 HD
BRANCH  22  24
ATOM     24  C   UNL     1       3.463  -1.479   4.691  0.00  0.00    +0.132 C 
BRANCH  24  25
ATOM     25  C   UNL     1       4.991  -1.518   4.629  0.00  0.00    +0.178 C 
BRANCH  25  26
ATOM     26  O   UNL     1       5.510  -0.201   4.823  0.00  0.00    -0.381 OA
ATOM     27  C   UNL     1       6.937  -0.126   4.783  0.00  0.00    +0.194 C 
ENDBRANCH  25  26
ENDBRANCH  24  25
ENDBRANCH  22  24
ENDBRANCH  19  20
ENDBRANCH  10  19
BRANCH  14  28
ATOM     28  C   UNL     1      -2.471   2.060  -1.171  0.00  0.00    +0.165 C 
BRANCH  28  29
ATOM     29  O   UNL     1      -3.098   2.956  -2.091  0.00  0.00    -0.394 OA
ATOM     30  H   UNL     1      -2.791   2.861  -3.003  0.00  0.00    +0.209 HD
ENDBRANCH  28  29
ENDBRANCH  14  28
TORSDOF 8
