REMARK  Name = ZINC36642550
REMARK  13 active torsions:
REMARK  status: ('A' for Active; 'I' for Inactive)
REMARK    1  A    between atoms: C_1  and  C_2
REMARK    2  A    between atoms: C_2  and  N_3
REMARK    3  A    between atoms: N_3  and  C_4
REMARK    4  A    between atoms: N_3  and  C_6
REMARK    5  A    between atoms: C_4  and  C_5
REMARK    6  A    between atoms: C_6  and  C_7
REMARK    7  A    between atoms: C_7  and  N_8
REMARK    8  A    between atoms: C_12  and  O_18
REMARK    9  A    between atoms: O_18  and  C_19
REMARK   10  A    between atoms: C_19  and  C_20
REMARK   11  A    between atoms: C_21  and  C_23
REMARK   12  A    between atoms: C_26  and  N_32
REMARK   13  A    between atoms: C_27  and  N_29
REMARK                            x       y       z     vdW  Elec       q    Type
REMARK                         _______ _______ _______ _____ _____    ______ ____
ROOT
ATOM      1  N   UNL     1       1.091  -4.222  -2.982  0.00  0.00    -0.248 N 
ATOM      2  C   UNL     1       0.282  -4.832  -3.927  0.00  0.00    +0.168 A 
ATOM      3  N   UNL     1      -0.220  -6.045  -3.921  0.00  0.00    -0.221 NA
ATOM      4  C   UNL     1      -1.002  -6.512  -4.919  0.00  0.00    +0.122 A 
ATOM      5  C   UNL     1      -1.603  -7.792  -5.035  0.00  0.00    +0.147 A 
ATOM      6  C   UNL     1      -2.375  -8.106  -6.127  0.00  0.00    +0.048 A 
ATOM      7  C   UNL     1      -2.593  -7.191  -7.147  0.00  0.00    +0.005 A 
ATOM      8  C   UNL     1      -2.022  -5.935  -7.065  0.00  0.00    +0.017 A 
ATOM      9  C   UNL     1      -1.248  -5.610  -5.977  0.00  0.00    +0.044 A 
ATOM     10  S   UNL     1      -0.350  -4.167  -5.460  0.00  0.00    -0.052 S 
ATOM     11  C   UNL     1       1.465  -4.897  -1.878  0.00  0.00    +0.252 C 
ATOM     12  O   UNL     1       1.138  -6.060  -1.736  0.00  0.00    -0.270 OA
ENDROOT
BRANCH  11  13
ATOM     13  C   UNL     1       2.271  -4.227  -0.841  0.00  0.00    +0.040 A 
ATOM     14  C   UNL     1       2.140  -2.850  -0.633  0.00  0.00    +0.015 A 
ATOM     15  C   UNL     1       2.893  -2.227   0.335  0.00  0.00    +0.026 A 
ATOM     16  C   UNL     1       3.786  -2.966   1.107  0.00  0.00    +0.060 A 
ATOM     17  C   UNL     1       3.919  -4.336   0.903  0.00  0.00    +0.148 A 
ATOM     18  C   UNL     1       3.163  -4.967  -0.060  0.00  0.00    +0.047 A 
BRANCH  16  19
ATOM     19  N   UNL     1       4.546  -2.333   2.084  0.00  0.00    -0.328 N 
ATOM     20  C   UNL     1       5.865  -1.773   1.760  0.00  0.00    +0.105 C 
ATOM     21  C   UNL     1       5.898  -0.304   2.195  0.00  0.00    +0.019 C 
ATOM     22  C   UNL     1       5.520  -0.207   3.675  0.00  0.00    +0.003 C 
ATOM     23  C   UNL     1       4.099  -0.739   3.877  0.00  0.00    +0.019 C 
ATOM     24  C   UNL     1       4.044  -2.207   3.459  0.00  0.00    +0.105 C 
ENDBRANCH  16  19
BRANCH  17  25
ATOM     25  N   UNL     1       4.869  -5.118   1.726  0.00  0.00    +0.058 N 
ATOM     26  O   UNL     1       4.985  -6.308   1.549  0.00  0.00    -0.126 OA
ATOM     27  O   UNL     1       5.529  -4.566   2.575  0.00  0.00    -0.126 OA
ENDBRANCH  17  25
ENDBRANCH  11  13
BRANCH   1  28
ATOM     28  C   UNL     1       1.539  -2.842  -3.184  0.00  0.00    +0.097 C 
BRANCH  28  29
ATOM     29  C   UNL     1       0.396  -1.880  -2.851  0.00  0.00    -0.059 C 
BRANCH  29  30
ATOM     30  N   UNL     1       0.882  -0.496  -2.933  0.00  0.00    +0.380 N 
ATOM     31  H   UNL     1       1.680  -0.384  -2.325  0.00  0.00    -0.082 HD
BRANCH  30  33
ATOM     32  C   UNL     1       1.894   1.202  -4.378  0.00  0.00    -0.017 C 
ATOM     33  C   UNL     1       1.273  -0.195  -4.316  0.00  0.00    -0.082 C 
ENDBRANCH  30  33
BRANCH  30  34
ATOM     34  C   UNL     1      -0.186   0.422  -2.514  0.00  0.00    -0.082 C 
ATOM     35  C   UNL     1      -0.474   0.224  -1.025  0.00  0.00    -0.017 C 
ENDBRANCH  30  34
ENDBRANCH  29  30
ENDBRANCH  28  29
ENDBRANCH   1  28
BRANCH   5  36
ATOM     36  O   UNL     1      -1.412  -8.716  -4.056  0.00  0.00    -0.490 OA
BRANCH  36  37
ATOM     37  C   UNL     1      -2.044  -9.985  -4.231  0.00  0.00    +0.226 C 
ATOM     38  C   UNL     1      -1.718 -10.886  -3.038  0.00  0.00    +0.048 C 
ENDBRANCH  36  37
ENDBRANCH   5  36
TORSDOF 10
