REMARK  Name = ZINC06529050
REMARK  4 active torsions:
REMARK  status: ('A' for Active; 'I' for Inactive)
REMARK    1  A    between atoms: C_4  and  C_7
REMARK    2  A    between atoms: C_8  and  C_9
REMARK    3  A    between atoms: C_14  and  C_17
REMARK    4  A    between atoms: C_23  and  O_25
REMARK                            x       y       z     vdW  Elec       q    Type
REMARK                         _______ _______ _______ _____ _____    ______ ____
ROOT
ATOM      1  C   UNL     1      -0.102   6.004  -0.533  0.00  0.00    +0.217 C 
ATOM      2  N   UNL     1       0.874   5.039   0.009  0.00  0.00    -0.313 N 
ATOM      3  C   UNL     1       0.486   3.724   0.015  0.00  0.00    +0.080 A 
ATOM      4  C   UNL     1      -0.861   3.335   0.029  0.00  0.00    +0.072 A 
ATOM      5  C   UNL     1      -1.090   1.905   0.017  0.00  0.00    +0.003 A 
ATOM      6  C   UNL     1      -0.013   1.076   0.008  0.00  0.00    +0.056 A 
ATOM      7  S   UNL     1       1.372   2.203   0.001  0.00  0.00    -0.081 S 
ATOM      8  C   UNL     1      -1.875   4.419   0.050  0.00  0.00    +0.220 C 
ATOM      9  N   UNL     1      -1.468   5.636  -0.185  0.00  0.00    -0.223 NA
ATOM     10  H   UNL     1       1.849   5.391   0.378  0.00  0.00    +0.149 HD
ENDROOT
BRANCH   5  11
ATOM     11  C   UNL     1      -2.468   1.358   0.018  0.00  0.00    -0.017 A 
ATOM     12  C   UNL     1      -3.400   1.811   0.951  0.00  0.00    +0.008 A 
ATOM     13  C   UNL     1      -4.682   1.301   0.945  0.00  0.00    +0.001 A 
ATOM     14  C   UNL     1      -5.041   0.336   0.022  0.00  0.00    +0.000 A 
ATOM     15  C   UNL     1      -4.120  -0.121  -0.903  0.00  0.00    +0.001 A 
ATOM     16  C   UNL     1      -2.836   0.385  -0.910  0.00  0.00    +0.008 A 
ENDBRANCH   5  11
BRANCH   1  18
ATOM     17  C   UNL     1       0.383   7.173  -2.637  0.00  0.00    +0.007 C 
ATOM     18  C   UNL     1       0.030   6.046  -2.034  0.00  0.00    +0.019 C 
BRANCH  17  22
ATOM     19  C   UNL     1       0.754   7.292  -6.866  0.00  0.00    +0.000 A 
ATOM     20  C   UNL     1       1.003   8.431  -6.120  0.00  0.00    +0.001 A 
ATOM     21  C   UNL     1       0.884   8.399  -4.746  0.00  0.00    +0.008 A 
ATOM     22  C   UNL     1       0.512   7.214  -4.109  0.00  0.00    -0.025 A 
ATOM     23  C   UNL     1       0.269   6.068  -4.866  0.00  0.00    +0.008 A 
ATOM     24  C   UNL     1       0.385   6.115  -6.240  0.00  0.00    +0.001 A 
ENDBRANCH  17  22
ENDBRANCH   1  18
BRANCH   8  25
ATOM     25  O   UNL     1      -3.178   4.153   0.305  0.00  0.00    -0.492 OA
ATOM     26  H   UNL     1      -3.914   4.971   0.317  0.00  0.00    +0.294 HD
ENDBRANCH   8  25
TORSDOF 4
