REMARK  Name = ZINC20082477
REMARK  14 active torsions:
REMARK  status: ('A' for Active; 'I' for Inactive)
REMARK    1  A    between atoms: C_1  and  C_2
REMARK    2  A    between atoms: C_2  and  C_3
REMARK    3  A    between atoms: C_10  and  C_15
REMARK    4  A    between atoms: C_15  and  C_17
REMARK    5  A    between atoms: C_15  and  N_27
REMARK    6  A    between atoms: N_21  and  C_22
REMARK    7  A    between atoms: C_22  and  C_23
REMARK    8  A    between atoms: C_22  and  C_24
REMARK    9  A    between atoms: C_22  and  C_25
REMARK   10  A    between atoms: C_25  and  C_26
REMARK   11  A    between atoms: N_27  and  C_28
REMARK   12  A    between atoms: N_27  and  C_34
REMARK   13  A    between atoms: C_28  and  C_29
REMARK   14  A    between atoms: C_34  and  C_35
REMARK                            x       y       z     vdW  Elec       q    Type
REMARK                         _______ _______ _______ _____ _____    ______ ____
ROOT
ATOM      1  C   UNL     1       6.637  -0.188  -0.402  0.00  0.00    +0.163 C 
ENDROOT
BRANCH   1   9
ATOM      2  C   UNL     1       0.617  -1.165   0.645  0.00  0.00    -0.047 A 
ATOM      3  C   UNL     1       0.161  -0.012   0.019  0.00  0.00    +0.005 A 
ATOM      4  C   UNL     1       1.047   0.871  -0.560  0.00  0.00    +0.026 A 
ATOM      5  C   UNL     1       2.412   0.606  -0.518  0.00  0.00    +0.049 A 
ATOM      6  C   UNL     1       2.870  -0.563   0.117  0.00  0.00    -0.001 A 
ATOM      7  C   UNL     1       1.953  -1.445   0.698  0.00  0.00    +0.013 A 
ATOM      8  C   UNL     1       4.309  -0.833   0.155  0.00  0.00    +0.021 A 
ATOM      9  C   UNL     1       5.150   0.059  -0.424  0.00  0.00    +0.042 A 
ATOM     10  C   UNL     1       4.639   1.217  -1.048  0.00  0.00    +0.254 A 
ATOM     11  O   UNL     1       5.413   2.005  -1.563  0.00  0.00    -0.268 OA
ATOM     12  N   UNL     1       3.320   1.473  -1.089  0.00  0.00    -0.322 N 
ATOM     13  H   UNL     1       2.968   2.389  -1.586  0.00  0.00    +0.169 HD
BRANCH   2  15
ATOM     14  C   UNL     1      -0.806  -3.154   0.236  0.00  0.00    +0.009 C 
ATOM     15  C   UNL     1      -0.371  -2.115   1.271  0.00  0.00    +0.032 C 
ENDBRANCH   2  15
ENDBRANCH   1   9
BRANCH   1  16
ATOM     16  C   UNL     1       7.297   0.805   0.519  0.00  0.00    +0.174 A 
ATOM     17  N   UNL     1       7.334   2.106   0.370  0.00  0.00    -0.111 NA
ATOM     18  N   UNL     1       7.987   2.603   1.363  0.00  0.00    -0.023 NA
ATOM     19  N   UNL     1       8.375   1.650   2.138  0.00  0.00    -0.043 NA
ATOM     20  N   UNL     1       7.969   0.527   1.652  0.00  0.00    -0.222 N 
BRANCH  20  21
ATOM     21  C   UNL     1       8.196  -0.802   2.225  0.00  0.00    +0.062 C 
ATOM     22  C   UNL     1       6.850  -1.464   2.528  0.00  0.00    +0.036 C 
ATOM     23  C   UNL     1       8.973  -1.663   1.226  0.00  0.00    +0.036 C 
BRANCH  21  24
ATOM     24  C   UNL     1       9.002  -0.669   3.518  0.00  0.00    +0.026 C 
ATOM     25  C   UNL     1       9.239  -2.057   4.116  0.00  0.00    +0.006 C 
ENDBRANCH  21  24
ENDBRANCH  20  21
ENDBRANCH   1  16
BRANCH   1  26
ATOM     26  N   UNL     1       7.179  -0.034  -1.759  0.00  0.00    -0.277 NA
BRANCH  26  27
ATOM     27  C   UNL     1       8.640   0.120  -1.728  0.00  0.00    +0.160 C 
BRANCH  27  28
ATOM     28  C   UNL     1       9.132   0.519  -3.095  0.00  0.00    +0.119 A 
ATOM     29  C   UNL     1       9.273   1.779  -3.543  0.00  0.00    +0.046 A 
ATOM     30  C   UNL     1       9.759   1.690  -4.868  0.00  0.00    +0.041 A 
ATOM     31  C   UNL     1       9.886   0.381  -5.150  0.00  0.00    +0.195 A 
ATOM     32  O   UNL     1       9.511  -0.324  -4.070  0.00  0.00    -0.467 OA
ENDBRANCH  27  28
ENDBRANCH  26  27
BRANCH  26  33
ATOM     33  C   UNL     1       6.786  -1.161  -2.615  0.00  0.00    +0.128 C 
BRANCH  33  34
ATOM     34  C   UNL     1       5.362  -0.973  -3.071  0.00  0.00    +0.004 A 
ATOM     35  C   UNL     1       4.873  -0.136  -4.017  0.00  0.00    +0.012 A 
ATOM     36  C   UNL     1       3.514  -0.134  -4.273  0.00  0.00    +0.008 A 
ATOM     37  C   UNL     1       2.712  -0.969  -3.570  0.00  0.00    +0.045 A 
ATOM     38  S   UNL     1       3.884  -1.802  -2.511  0.00  0.00    -0.100 S 
ENDBRANCH  33  34
ENDBRANCH  26  33
ENDBRANCH   1  26
TORSDOF 10
