REMARK  Name = ZINC22332917
REMARK  2 active torsions:
REMARK  status: ('A' for Active; 'I' for Inactive)
REMARK    1  A    between atoms: C_14  and  N_17
REMARK    2  A    between atoms: C_18  and  C_20
REMARK                            x       y       z     vdW  Elec       q    Type
REMARK                         _______ _______ _______ _____ _____    ______ ____
ROOT
ATOM      1  C   UNL     1       2.924   3.873  -0.003  0.00  0.00    +0.002 A 
ATOM      2  C   UNL     1       1.586   4.151   0.013  0.00  0.00    +0.010 A 
ATOM      3  C   UNL     1       0.658   3.107   0.015  0.00  0.00    +0.005 A 
ATOM      4  C   UNL     1      -0.799   3.038   0.027  0.00  0.00    -0.017 A 
ATOM      5  C   UNL     1      -1.140   1.735   0.016  0.00  0.00    +0.020 A 
ATOM      6  N   UNL     1      -0.011   0.966   0.007  0.00  0.00    -0.357 N 
ATOM      7  H   UNL     1      -0.093  -0.131   0.006  0.00  0.00    +0.166 HD
ATOM      8  C   UNL     1       1.107   1.772   0.001  0.00  0.00    +0.065 A 
ATOM      9  C   UNL     1       2.473   1.512  -0.015  0.00  0.00    +0.065 A 
ATOM     10  C   UNL     1       3.371   2.559  -0.017  0.00  0.00    +0.022 A 
ATOM     11 CL   UNL     1       3.047  -0.126  -0.034  0.00  0.00    -0.081 Cl
ATOM     12  C   UNL     1      -2.569   1.242   0.016  0.00  0.00    +0.055 C 
ATOM     13  C   UNL     1      -3.483   2.401  -0.398  0.00  0.00    +0.028 C 
ATOM     14  C   UNL     1      -3.155   3.636   0.446  0.00  0.00    +0.078 C 
ATOM     15  C   UNL     1      -1.781   4.181   0.044  0.00  0.00    +0.059 C 
ENDROOT
BRANCH  14  16
ATOM     16  N   UNL     1      -4.175   4.665   0.224  0.00  0.00    -0.312 N 
ATOM     17  C   UNL     1      -5.320   4.643   0.935  0.00  0.00    +0.217 C 
ATOM     18  O   UNL     1      -5.506   3.772   1.758  0.00  0.00    -0.275 OA
ATOM     19  H   UNL     1      -4.006   5.455  -0.522  0.00  0.00    +0.149 HD
BRANCH  17  20
ATOM     20  C   UNL     1      -6.369   5.700   0.707  0.00  0.00    +0.079 C 
ATOM     21  C   UNL     1      -7.553   5.465   1.654  0.00  0.00    +0.017 C 
ATOM     22  C   UNL     1      -8.672   6.439   1.280  0.00  0.00    +0.027 C 
ATOM     23  C   UNL     1      -8.128   7.832   1.164  0.00  0.00    -0.031 C 
ATOM     24  C   UNL     1      -6.870   8.112   1.039  0.00  0.00    -0.030 C 
ATOM     25  C   UNL     1      -5.780   7.081   1.003  0.00  0.00    +0.039 C 
ENDBRANCH  17  20
ENDBRANCH  14  16
TORSDOF 2
