REMARK  Name = ZINC01871633
REMARK  3 active torsions:
REMARK  status: ('A' for Active; 'I' for Inactive)
REMARK    1  A    between atoms: C_1  and  C_2
REMARK    2  A    between atoms: C_1  and  C_7
REMARK    3  A    between atoms: C_2  and  C_3
REMARK                            x       y       z     vdW  Elec       q    Type
REMARK                         _______ _______ _______ _____ _____    ______ ____
ROOT
ATOM      1  C   UNL     1      -0.718   1.572   1.248  0.00  0.00    +0.136 A 
ATOM      2  N   UNL     1      -0.374   2.726   1.792  0.00  0.00    -0.200 NA
ATOM      3  C   UNL     1      -0.998   3.161   2.885  0.00  0.00    +0.217 A 
ATOM      4  N   UNL     1      -1.961   2.428   3.434  0.00  0.00    -0.181 NA
ATOM      5  C   UNL     1      -2.300   1.266   2.887  0.00  0.00    +0.217 A 
ATOM      6  N   UNL     1      -1.675   0.840   1.791  0.00  0.00    -0.200 NA
ATOM      7  N   UNL     1      -3.299   0.501   3.454  0.00  0.00    -0.327 N 
ATOM      8  N   UNL     1      -0.642   4.369   3.449  0.00  0.00    -0.327 N 
ATOM      9  H   UNL     1      -3.546  -0.348   3.054  0.00  0.00    +0.145 HD
ATOM     10  H   UNL     1      -3.754   0.812   4.252  0.00  0.00    +0.145 HD
ATOM     11  H   UNL     1      -1.094   4.683   4.247  0.00  0.00    +0.145 HD
ATOM     12  H   UNL     1       0.061   4.903   3.048  0.00  0.00    +0.145 HD
ENDROOT
BRANCH   1  13
ATOM     13  C   UNL     1      -0.013   1.086   0.008  0.00  0.00    +0.079 C 
BRANCH  13  14
ATOM     14  C   UNL     1      -0.753   1.593  -1.232  0.00  0.00    +0.049 C 
BRANCH  14  15
ATOM     15  C   UNL     1      -0.037   1.099  -2.490  0.00  0.00    +0.135 C 
ATOM     16 BR   UNL     1      -0.010  -0.867  -2.501  0.00  0.00    -0.060 Br
ATOM     17 BR   UNL     1      -0.987   1.750  -4.083  0.00  0.00    -0.060 Br
ATOM     18 BR   UNL     1       1.808   1.780  -2.504  0.00  0.00    -0.060 Br
ENDBRANCH  14  15
ENDBRANCH  13  14
ENDBRANCH   1  13
TORSDOF 3
