REMARK  Name = ZINC63491761
REMARK  12 active torsions:
REMARK  status: ('A' for Active; 'I' for Inactive)
REMARK    1  A    between atoms: C_1  and  C_2
REMARK    2  A    between atoms: C_2  and  O_3
REMARK    3  A    between atoms: O_3  and  C_4
REMARK    4  A    between atoms: C_8  and  C_10
REMARK    5  A    between atoms: C_25  and  C_27
REMARK    6  A    between atoms: C_27  and  C_28
REMARK    7  A    between atoms: C_32  and  O_37
REMARK    8  A    between atoms: C_33  and  O_34
REMARK    9  A    between atoms: O_34  and  C_35
REMARK   10  A    between atoms: C_35  and  C_36
REMARK   11  A    between atoms: O_37  and  C_38
REMARK   12  A    between atoms: C_38  and  C_39
REMARK                            x       y       z     vdW  Elec       q    Type
REMARK                         _______ _______ _______ _____ _____    ______ ____
ROOT
ATOM      1  C   UNL     1       2.222  -4.257  -3.827  0.00  0.00    +0.133 C 
ATOM      2  C   UNL     1       1.188  -4.825  -4.804  0.00  0.00    +0.131 C 
ATOM      3  C   UNL     1       0.627  -6.086  -4.159  0.00  0.00    -0.035 C 
ATOM      4  C   UNL     1      -0.690  -5.923  -4.098  0.00  0.00    -0.001 A 
ATOM      5  C   UNL     1      -1.767  -6.817  -3.646  0.00  0.00    +0.010 A 
ATOM      6  C   UNL     1      -3.029  -6.315  -3.711  0.00  0.00    +0.001 A 
ATOM      7  C   UNL     1      -3.323  -5.030  -4.176  0.00  0.00    +0.002 A 
ATOM      8  C   UNL     1      -2.395  -4.142  -4.616  0.00  0.00    +0.026 A 
ATOM      9  C   UNL     1      -1.032  -4.557  -4.599  0.00  0.00    +0.043 A 
ATOM     10  N   UNL     1       0.056  -3.914  -4.989  0.00  0.00    -0.375 N 
ATOM     11  C   UNL     1       1.511  -7.199  -3.654  0.00  0.00    +0.052 C 
ATOM     12  C   UNL     1       2.576  -6.546  -2.755  0.00  0.00    +0.113 C 
ATOM     13  N   UNL     1       3.114  -5.355  -3.423  0.00  0.00    -0.292 N 
ATOM     14  C   UNL     1       4.436  -5.267  -3.671  0.00  0.00    +0.221 C 
ATOM     15  O   UNL     1       4.885  -4.285  -4.225  0.00  0.00    -0.275 OA
ATOM     16  H   UNL     1       0.107  -3.007  -5.329  0.00  0.00    +0.160 HD
ENDROOT
BRANCH   1  21
ATOM     17  C   UNL     1       0.115  -4.002  -0.701  0.00  0.00    +0.121 A 
ATOM     18  C   UNL     1       0.246  -2.656  -0.391  0.00  0.00    +0.045 A 
ATOM     19  C   UNL     1       1.014  -1.835  -1.192  0.00  0.00    +0.004 A 
ATOM     20  C   UNL     1       1.654  -2.354  -2.304  0.00  0.00    +0.006 A 
ATOM     21  C   UNL     1       1.525  -3.695  -2.615  0.00  0.00    -0.021 A 
ATOM     22  C   UNL     1       0.762  -4.521  -1.813  0.00  0.00    +0.051 A 
BRANCH  17  23
ATOM     23  O   UNL     1      -0.640  -4.811   0.087  0.00  0.00    -0.492 OA
BRANCH  23  25
ATOM     24  C   UNL     1      -2.077  -5.268   1.976  0.00  0.00    +0.048 C 
ATOM     25  C   UNL     1      -1.277  -4.209   1.216  0.00  0.00    +0.225 C 
ENDBRANCH  23  25
ENDBRANCH  17  23
ENDBRANCH   1  21
BRANCH  14  26
ATOM     26  C   UNL     1       5.356  -6.387  -3.261  0.00  0.00    +0.135 C 
BRANCH  26  27
ATOM     27  C   UNL     1       6.771  -6.043  -3.650  0.00  0.00    +0.007 A 
ATOM     28  C   UNL     1       7.287  -6.494  -4.851  0.00  0.00    +0.008 A 
ATOM     29  C   UNL     1       8.584  -6.181  -5.210  0.00  0.00    +0.004 A 
ATOM     30  C   UNL     1       9.372  -5.415  -4.370  0.00  0.00    +0.049 A 
ATOM     31  C   UNL     1       8.861  -4.960  -3.165  0.00  0.00    +0.162 A 
ATOM     32  C   UNL     1       7.553  -5.271  -2.806  0.00  0.00    +0.165 A 
BRANCH  32  33
ATOM     33  O   UNL     1       7.045  -4.822  -1.627  0.00  0.00    -0.488 OA
BRANCH  33  34
ATOM     34  C   UNL     1       7.218  -5.662  -0.484  0.00  0.00    +0.226 C 
ATOM     35  C   UNL     1       6.586  -4.996   0.739  0.00  0.00    +0.048 C 
ENDBRANCH  33  34
ENDBRANCH  32  33
BRANCH  31  36
ATOM     36  O   UNL     1       9.634  -4.207  -2.338  0.00  0.00    -0.489 OA
BRANCH  36  37
ATOM     37  C   UNL     1      10.965  -3.923  -2.774  0.00  0.00    +0.226 C 
ATOM     38  C   UNL     1      11.676  -3.071  -1.721  0.00  0.00    +0.048 C 
ENDBRANCH  36  37
ENDBRANCH  31  36
ENDBRANCH  26  27
ENDBRANCH  14  26
TORSDOF 9
