REMARK  Name = ZINC66122958
REMARK  12 active torsions:
REMARK  status: ('A' for Active; 'I' for Inactive)
REMARK    1  A    between atoms: C_1  and  C_2
REMARK    2  A    between atoms: C_2  and  C_3
REMARK    3  A    between atoms: C_3  and  C_4
REMARK    4  A    between atoms: N_9  and  C_10
REMARK    5  A    between atoms: C_10  and  C_11
REMARK    6  A    between atoms: N_13  and  N_14
REMARK    7  A    between atoms: N_14  and  C_15
REMARK    8  A    between atoms: C_15  and  N_17
REMARK    9  A    between atoms: N_17  and  C_18
REMARK   10  A    between atoms: C_23  and  C_24
REMARK   11  A    between atoms: C_24  and  C_25
REMARK   12  A    between atoms: C_24  and  C_26
REMARK                            x       y       z     vdW  Elec       q    Type
REMARK                         _______ _______ _______ _____ _____    ______ ____
ROOT
ATOM      1  N   UNL     1       6.186  -1.623   1.233  0.00  0.00    -0.246 N 
ATOM      2  H   UNL     1       6.043  -2.011   2.111  0.00  0.00    +0.172 HD
ENDROOT
BRANCH   1   5
ATOM      3  C   UNL     1       3.842  -1.635   0.818  0.00  0.00    +0.249 C 
ATOM      4  O   UNL     1       3.664  -2.119   1.915  0.00  0.00    -0.272 OA
ATOM      5  N   UNL     1       5.092  -1.355   0.400  0.00  0.00    -0.234 N 
ATOM      6  H   UNL     1       5.235  -0.967  -0.478  0.00  0.00    +0.173 HD
BRANCH   3   7
ATOM      7  C   UNL     1       2.665  -1.346  -0.078  0.00  0.00    +0.222 C 
BRANCH   7  13
ATOM      8  C   UNL     1       0.648  -0.957   1.411  0.00  0.00    +0.135 A 
ATOM      9  N   UNL     1      -0.358  -1.687   1.802  0.00  0.00    -0.133 NA
ATOM     10  N   UNL     1      -0.267  -2.867   1.301  0.00  0.00    -0.122 NA
ATOM     11  C   UNL     1       0.812  -2.954   0.557  0.00  0.00    +0.203 A 
ATOM     12  S   UNL     1       1.359  -4.373  -0.333  0.00  0.00    -0.009 SA
ATOM     13  N   UNL     1       1.427  -1.736   0.601  0.00  0.00    -0.296 N 
BRANCH   8  14
ATOM     14  C   UNL     1       0.903   0.482   1.779  0.00  0.00    +0.076 C 
BRANCH  14  16
ATOM     15  C   UNL     1       0.485   2.859   1.132  0.00  0.00    +0.004 C 
ATOM     16  C   UNL     1       0.226   1.398   0.758  0.00  0.00    +0.004 C 
ENDBRANCH  14  16
ENDBRANCH   8  14
ENDBRANCH   7  13
ENDBRANCH   3   7
ENDBRANCH   1   5
BRANCH   1  17
ATOM     17  C   UNL     1       7.436  -1.344   0.815  0.00  0.00    +0.151 C 
ATOM     18  S   UNL     1       8.773  -1.672   1.833  0.00  0.00    -0.017 S 
BRANCH  17  19
ATOM     19  N   UNL     1       7.634  -0.805  -0.405  0.00  0.00    -0.296 N 
ATOM     20  H   UNL     1       6.887  -0.693  -1.013  0.00  0.00    +0.154 HD
BRANCH  19  21
ATOM     21  C   UNL     1       8.918  -0.409  -0.794  0.00  0.00    +0.036 A 
ATOM     22  C   UNL     1       9.723   0.305   0.085  0.00  0.00    +0.023 A 
ATOM     23  C   UNL     1      10.989   0.695  -0.303  0.00  0.00    +0.002 A 
ATOM     24  C   UNL     1      11.457   0.377  -1.565  0.00  0.00    +0.000 A 
ATOM     25  C   UNL     1      10.658  -0.333  -2.442  0.00  0.00    +0.006 A 
ATOM     26  C   UNL     1       9.393  -0.732  -2.058  0.00  0.00    -0.024 A 
BRANCH  26  27
ATOM     27  C   UNL     1       8.525  -1.512  -3.013  0.00  0.00    +0.015 C 
ATOM     28  C   UNL     1       8.264  -0.673  -4.266  0.00  0.00    +0.012 C 
ATOM     29  C   UNL     1       9.238  -2.808  -3.407  0.00  0.00    +0.012 C 
ENDBRANCH  26  27
ENDBRANCH  19  21
ENDBRANCH  17  19
ENDBRANCH   1  17
TORSDOF 9
