REMARK  Name = ZINC40781397
REMARK  4 active torsions:
REMARK  status: ('A' for Active; 'I' for Inactive)
REMARK    1  A    between atoms: C_5  and  N_7
REMARK    2  A    between atoms: C_9  and  N_22
REMARK    3  A    between atoms: C_10  and  N_14
REMARK    4  A    between atoms: N_14  and  C_15
REMARK                            x       y       z     vdW  Elec       q    Type
REMARK                         _______ _______ _______ _____ _____    ______ ____
ROOT
ATOM      1  N   UNL     1       1.221  -2.047   0.334  0.00  0.00    -0.297 N 
ATOM      2  C   UNL     1       0.042  -2.776   0.443  0.00  0.00    +0.149 A 
ATOM      3  C   UNL     1       0.060  -4.170   0.364  0.00  0.00    +0.106 A 
ATOM      4  C   UNL     1      -1.153  -4.852   0.480  0.00  0.00    +0.149 A 
ATOM      5  N   UNL     1      -2.271  -4.154   0.659  0.00  0.00    -0.219 NA
ATOM      6  C   UNL     1      -2.244  -2.838   0.728  0.00  0.00    +0.225 A 
ATOM      7  N   UNL     1      -1.121  -2.156   0.629  0.00  0.00    -0.219 NA
ATOM      8  H   UNL     1       2.052  -2.499   0.119  0.00  0.00    +0.154 HD
ENDROOT
BRANCH   1  13
ATOM      9  C   UNL     1       0.169   1.293   1.451  0.00  0.00    +0.002 A 
ATOM     10  C   UNL     1       1.183   2.075   0.928  0.00  0.00    +0.001 A 
ATOM     11  C   UNL     1       2.210   1.492   0.209  0.00  0.00    +0.017 A 
ATOM     12  C   UNL     1       2.226   0.125   0.010  0.00  0.00    +0.039 A 
ATOM     13  C   UNL     1       1.208  -0.664   0.534  0.00  0.00    +0.047 A 
ATOM     14  C   UNL     1       0.179  -0.074   1.256  0.00  0.00    +0.024 A 
ATOM     15 BR   UNL     1       3.630  -0.672  -0.975  0.00  0.00    -0.048 Br
ENDBRANCH   1  13
BRANCH   3  16
ATOM     16  N   UNL     1       1.264  -4.866   0.174  0.00  0.00    -0.353 N 
ATOM     17  H   UNL     1       2.099  -4.378   0.095  0.00  0.00    +0.143 HD
ATOM     18  H   UNL     1       1.261  -5.835   0.121  0.00  0.00    +0.143 HD
ENDBRANCH   3  16
BRANCH   4  19
ATOM     19  N   UNL     1      -1.191  -6.240   0.408  0.00  0.00    -0.298 N 
ATOM     20  H   UNL     1      -0.365  -6.746   0.355  0.00  0.00    +0.154 HD
BRANCH  19  21
ATOM     21  C   UNL     1      -2.421  -6.907   0.413  0.00  0.00    +0.033 A 
ATOM     22  C   UNL     1      -2.535  -8.151   1.020  0.00  0.00    +0.026 A 
ATOM     23  C   UNL     1      -3.750  -8.808   1.024  0.00  0.00    +0.040 A 
ATOM     24  C   UNL     1      -4.854  -8.226   0.424  0.00  0.00    +0.124 A 
ATOM     25  C   UNL     1      -4.743  -6.986  -0.182  0.00  0.00    +0.040 A 
ATOM     26  C   UNL     1      -3.531  -6.323  -0.183  0.00  0.00    +0.026 A 
ATOM     27  F   UNL     1      -6.042  -8.870   0.429  0.00  0.00    -0.205 F 
ENDBRANCH  19  21
ENDBRANCH   4  19
TORSDOF 4
