REMARK  Name = ZINC02682887
REMARK  10 active torsions:
REMARK  status: ('A' for Active; 'I' for Inactive)
REMARK    1  A    between atoms: C_1  and  C_2
REMARK    2  A    between atoms: C_2  and  C_3
REMARK    3  A    between atoms: C_3  and  C_4
REMARK    4  A    between atoms: N_6  and  C_7
REMARK    5  A    between atoms: C_7  and  C_9
REMARK    6  A    between atoms: C_7  and  N_13
REMARK    7  A    between atoms: N_13  and  C_14
REMARK    8  A    between atoms: C_14  and  N_16
REMARK    9  A    between atoms: N_16  and  C_17
REMARK   10  A    between atoms: C_21  and  O_23
REMARK                            x       y       z     vdW  Elec       q    Type
REMARK                         _______ _______ _______ _____ _____    ______ ____
ROOT
ATOM      1  N   UNL     1       1.072   7.274   0.233  0.00  0.00    -0.305 N 
ATOM      2  H   UNL     1       0.225   7.747   0.243  0.00  0.00    +0.150 HD
ENDROOT
BRANCH   1   3
ATOM      3  C   UNL     1       1.092   5.931   0.124  0.00  0.00    +0.136 C 
ATOM      4  S   UNL     1       2.587   5.095   0.106  0.00  0.00    -0.019 S 
BRANCH   3   5
ATOM      5  N   UNL     1      -0.064   5.245   0.030  0.00  0.00    -0.297 N 
ATOM      6  H   UNL     1      -0.908   5.721  -0.021  0.00  0.00    +0.154 HD
BRANCH   5   7
ATOM      7  C   UNL     1      -0.048   3.846   0.007  0.00  0.00    +0.036 A 
ATOM      8  C   UNL     1      -0.942   3.127   0.791  0.00  0.00    +0.023 A 
ATOM      9  C   UNL     1      -0.925   1.746   0.768  0.00  0.00    +0.005 A 
ATOM     10  C   UNL     1      -0.021   1.076  -0.034  0.00  0.00    +0.045 A 
ATOM     11  C   UNL     1       0.878   1.789  -0.815  0.00  0.00    +0.119 A 
ATOM     12  C   UNL     1       0.861   3.175  -0.799  0.00  0.00    +0.068 A 
BRANCH  11  13
ATOM     13  O   UNL     1       1.770   1.129  -1.599  0.00  0.00    -0.507 OA
ATOM     14  H   UNL     1       1.448   0.942  -2.491  0.00  0.00    +0.292 HD
ENDBRANCH  11  13
ENDBRANCH   5   7
ENDBRANCH   3   5
ENDBRANCH   1   3
BRANCH   1  15
ATOM     15  C   UNL     1       2.329   8.019   0.335  0.00  0.00    +0.211 C 
BRANCH  15  18
ATOM     16  C   UNL     1       3.560   8.192  -1.761  0.00  0.00    +0.214 C 
ATOM     17  O   UNL     1       4.184   7.202  -1.442  0.00  0.00    -0.276 OA
ATOM     18  N   UNL     1       2.609   8.682  -0.941  0.00  0.00    -0.294 N 
ATOM     19  H   UNL     1       2.110   9.474  -1.196  0.00  0.00    +0.151 HD
BRANCH  16  20
ATOM     20  C   UNL     1       3.848   8.874  -3.074  0.00  0.00    +0.095 C 
BRANCH  20  22
ATOM     21  C   UNL     1       5.253   8.815  -5.138  0.00  0.00    +0.004 C 
ATOM     22  C   UNL     1       4.961   8.122  -3.806  0.00  0.00    +0.006 C 
ENDBRANCH  20  22
ENDBRANCH  16  20
ENDBRANCH  15  18
BRANCH  15  23
ATOM     23  C   UNL     1       2.210   9.070   1.440  0.00  0.00    +0.225 C 
ATOM     24 CL   UNL     1       1.866   8.255   3.011  0.00  0.00    -0.080 Cl
ATOM     25 CL   UNL     1       3.757   9.988   1.566  0.00  0.00    -0.080 Cl
ATOM     26 CL   UNL     1       0.868  10.207   1.047  0.00  0.00    -0.080 Cl
ENDBRANCH  15  23
ENDBRANCH   1  15
TORSDOF 9
