REMARK  Name = ZINC07260531
REMARK  5 active torsions:
REMARK  status: ('A' for Active; 'I' for Inactive)
REMARK    1  A    between atoms: C_1  and  C_2
REMARK    2  A    between atoms: C_3  and  C_21
REMARK    3  A    between atoms: C_4  and  C_15
REMARK    4  A    between atoms: C_21  and  O_23
REMARK    5  A    between atoms: O_23  and  C_24
REMARK                            x       y       z     vdW  Elec       q    Type
REMARK                         _______ _______ _______ _____ _____    ______ ____
ROOT
ATOM      1  C   UNL     1      -0.018   1.503   0.010  0.00  0.00    +0.061 C 
ATOM      2  C   UNL     1       0.002  -0.004   0.002  0.00  0.00    +0.017 C 
ATOM      3  C   UNL     1      -1.158  -0.682   0.004  0.00  0.00    +0.065 C 
ATOM      4  C   UNL     1      -1.197  -2.183  -0.014  0.00  0.00    +0.094 C 
ATOM      5  C   UNL     1       0.139  -2.758   0.361  0.00  0.00    +0.042 A 
ATOM      6  C   UNL     1       0.244  -4.106   0.736  0.00  0.00    +0.126 A 
ATOM      7  N   UNL     1       1.430  -4.607   1.064  0.00  0.00    -0.208 NA
ATOM      8  C   UNL     1       2.523  -3.850   1.043  0.00  0.00    +0.180 A 
ATOM      9  S   UNL     1       4.031  -4.538   1.473  0.00  0.00    -0.011 S 
ATOM     10  N   UNL     1       2.465  -2.553   0.689  0.00  0.00    -0.322 N 
ATOM     11  C   UNL     1       1.266  -1.989   0.345  0.00  0.00    +0.110 A 
ATOM     12  N   UNL     1       1.201  -0.661  -0.013  0.00  0.00    -0.304 N 
ATOM     13  N   UNL     1      -0.878  -4.906   0.763  0.00  0.00    -0.343 N 
ATOM     14  H   UNL     1       2.008  -0.190  -0.273  0.00  0.00    +0.153 HD
ATOM     15  H   UNL     1      -0.803  -5.838   1.022  0.00  0.00    +0.144 HD
ATOM     16  H   UNL     1      -1.742  -4.538   0.523  0.00  0.00    +0.144 HD
ATOM     17  H   UNL     1       3.274  -2.017   0.678  0.00  0.00    +0.169 HD
ENDROOT
BRANCH   4  18
ATOM     18  C   UNL     1      -1.566  -2.652  -1.398  0.00  0.00    -0.035 A 
ATOM     19  C   UNL     1      -0.764  -2.326  -2.475  0.00  0.00    +0.004 A 
ATOM     20  C   UNL     1      -1.102  -2.756  -3.745  0.00  0.00    +0.000 A 
ATOM     21  C   UNL     1      -2.243  -3.513  -3.936  0.00  0.00    +0.000 A 
ATOM     22  C   UNL     1      -3.045  -3.840  -2.859  0.00  0.00    +0.000 A 
ATOM     23  C   UNL     1      -2.704  -3.413  -1.589  0.00  0.00    +0.004 A 
ENDBRANCH   4  18
BRANCH   3  24
ATOM     24  C   UNL     1      -2.375   0.038   0.024  0.00  0.00    +0.337 C 
ATOM     25  O   UNL     1      -2.362   1.255   0.039  0.00  0.00    -0.245 OA
BRANCH  24  26
ATOM     26  O   UNL     1      -3.550  -0.625   0.026  0.00  0.00    -0.465 OA
ATOM     27  C   UNL     1      -4.741   0.166   0.047  0.00  0.00    +0.280 C 
ENDBRANCH  24  26
ENDBRANCH   3  24
TORSDOF 3
