REMARK  Name = ZINC03425740
REMARK  6 active torsions:
REMARK  status: ('A' for Active; 'I' for Inactive)
REMARK    1  A    between atoms: C_1  and  C_2
REMARK    2  A    between atoms: C_5  and  C_14
REMARK    3  A    between atoms: C_12  and  C_13
REMARK    4  A    between atoms: C_14  and  S_15
REMARK    5  A    between atoms: S_15  and  C_16
REMARK    6  A    between atoms: C_20  and  N_22
REMARK                            x       y       z     vdW  Elec       q    Type
REMARK                         _______ _______ _______ _____ _____    ______ ____
ROOT
ATOM      1  C   UNL     1       0.013  -2.109  -3.782  0.00  0.00    +0.113 C 
ENDROOT
BRANCH   1   6
ATOM      2  C   UNL     1      -0.018   1.503   0.010  0.00  0.00    +0.044 C 
ATOM      3  C   UNL     1       0.002  -0.004   0.002  0.00  0.00    -0.047 A 
ATOM      4  C   UNL     1       0.006  -0.676  -1.188  0.00  0.00    +0.015 A 
ATOM      5  C   UNL     1       0.025  -2.074  -1.195  0.00  0.00    +0.022 A 
ATOM      6  C   UNL     1       0.029  -2.824  -2.455  0.00  0.00    -0.020 A 
ATOM      7  C   UNL     1       0.049  -4.179  -2.393  0.00  0.00    +0.097 A 
ATOM      8  C   UNL     1       0.063  -4.825  -1.138  0.00  0.00    +0.338 A 
ATOM      9  O   UNL     1       0.080  -6.042  -1.097  0.00  0.00    -0.245 OA
ATOM     10  O   UNL     1       0.059  -4.131   0.011  0.00  0.00    -0.422 OA
ATOM     11  C   UNL     1       0.040  -2.781   0.019  0.00  0.00    +0.140 A 
ATOM     12  C   UNL     1       0.036  -2.078   1.217  0.00  0.00    +0.050 A 
ATOM     13  C   UNL     1       0.023  -0.699   1.202  0.00  0.00    -0.044 A 
ATOM     14  C   UNL     1       0.025   0.061   2.504  0.00  0.00    +0.044 C 
ENDBRANCH   1   6
BRANCH   1  15
ATOM     15  S   UNL     1      -1.650  -1.456  -4.096  0.00  0.00    -0.081 S 
BRANCH  15  16
ATOM     16  C   UNL     1      -1.506  -0.661  -5.662  0.00  0.00    +0.192 A 
ATOM     17  N   UNL     1      -0.338  -0.673  -6.287  0.00  0.00    -0.207 NA
ATOM     18  C   UNL     1      -0.193  -0.083  -7.471  0.00  0.00    +0.122 A 
ATOM     19  C   UNL     1      -1.288   0.553  -8.051  0.00  0.00    +0.086 A 
ATOM     20  C   UNL     1      -2.498   0.545  -7.364  0.00  0.00    +0.122 A 
ATOM     21  N   UNL     1      -2.571  -0.070  -6.186  0.00  0.00    -0.207 NA
ATOM     22  N   UNL     1       1.033  -0.099  -8.119  0.00  0.00    -0.343 N 
ATOM     23  H   UNL     1       1.792  -0.544  -7.709  0.00  0.00    +0.144 HD
ATOM     24  H   UNL     1       1.132   0.333  -8.981  0.00  0.00    +0.144 HD
BRANCH  20  25
ATOM     25  N   UNL     1      -3.615   1.165  -7.902  0.00  0.00    -0.343 N 
ATOM     26  H   UNL     1      -3.556   1.608  -8.763  0.00  0.00    +0.144 HD
ATOM     27  H   UNL     1      -4.455   1.155  -7.418  0.00  0.00    +0.144 HD
ENDBRANCH  20  25
ENDBRANCH  15  16
ENDBRANCH   1  15
TORSDOF 4
