REMARK  Name = ZINC63557230
REMARK  9 active torsions:
REMARK  status: ('A' for Active; 'I' for Inactive)
REMARK    1  A    between atoms: C_1  and  C_2
REMARK    2  A    between atoms: C_2  and  C_3
REMARK    3  A    between atoms: C_2  and  C_4
REMARK    4  A    between atoms: C_2  and  C_5
REMARK    5  A    between atoms: C_9  and  N_12
REMARK    6  A    between atoms: C_13  and  C_15
REMARK    7  A    between atoms: N_20  and  C_22
REMARK    8  A    between atoms: C_22  and  C_23
REMARK    9  A    between atoms: C_23  and  C_24
REMARK                            x       y       z     vdW  Elec       q    Type
REMARK                         _______ _______ _______ _____ _____    ______ ____
ROOT
ATOM      1  C   UNL     1       2.823   3.076  -6.053  0.00  0.00    +0.101 C 
ATOM      2  C   UNL     1       1.585   3.403  -6.920  0.00  0.00    +0.110 C 
ATOM      3  C   UNL     1       2.158   4.092  -8.139  0.00  0.00    +0.216 C 
ATOM      4  O   UNL     1       1.517   4.753  -8.929  0.00  0.00    -0.276 OA
ATOM      5  N   UNL     1       3.480   3.864  -8.220  0.00  0.00    -0.300 N 
ATOM      6  C   UNL     1       3.945   3.019  -7.113  0.00  0.00    +0.121 C 
ENDROOT
BRANCH   1   8
ATOM      7  N   UNL     1       1.689   1.572  -4.449  0.00  0.00    -0.290 N 
ATOM      8  C   UNL     1       2.662   1.744  -5.365  0.00  0.00    +0.220 C 
ATOM      9  O   UNL     1       3.409   0.828  -5.637  0.00  0.00    -0.275 OA
ATOM     10  H   UNL     1       1.092   2.305  -4.231  0.00  0.00    +0.151 HD
BRANCH   7  14
ATOM     11  C   UNL     1       0.718  -0.497  -1.257  0.00  0.00    +0.135 C 
ATOM     12  N   UNL     1       2.091   0.084  -1.372  0.00  0.00    -0.241 NA
ATOM     13  N   UNL     1       2.571   0.091  -2.738  0.00  0.00    -0.227 NA
ATOM     14  C   UNL     1       1.534   0.277  -3.780  0.00  0.00    +0.216 C 
ATOM     15  S   UNL     1      -0.021   0.229  -2.788  0.00  0.00    -0.101 S 
ATOM     16  H   UNL     1       2.739  -0.394  -0.763  0.00  0.00    +0.142 HD
ATOM     17  H   UNL     1       3.133  -0.725  -2.928  0.00  0.00    +0.143 HD
BRANCH  11  19
ATOM     18  C   UNL     1      -0.019   1.526   0.010  0.00  0.00    +0.013 C 
ATOM     19  C   UNL     1       0.002  -0.004   0.002  0.00  0.00    -0.012 C 
ATOM     20  C   UNL     1       0.742  -0.511   1.242  0.00  0.00    +0.013 C 
ATOM     21  C   UNL     1      -1.433  -0.534   0.013  0.00  0.00    +0.013 C 
ENDBRANCH  11  19
ENDBRANCH   7  14
ENDBRANCH   1   8
BRANCH   5  22
ATOM     22  C   UNL     1       4.347   4.393  -9.276  0.00  0.00    +0.112 C 
BRANCH  22  23
ATOM     23  C   UNL     1       4.900   5.753  -8.849  0.00  0.00    +0.052 C 
BRANCH  23  24
ATOM     24  C   UNL     1       5.792   6.297  -9.935  0.00  0.00    -0.040 C 
ATOM     25  C   UNL     1       5.443   7.158 -10.919  0.00  0.00    +0.002 A 
ATOM     26  C   UNL     1       4.178   7.819 -11.258  0.00  0.00    +0.048 A 
ATOM     27  C   UNL     1       4.136   8.648 -12.328  0.00  0.00    +0.124 A 
ATOM     28  C   UNL     1       5.271   8.888 -13.119  0.00  0.00    +0.040 A 
ATOM     29  C   UNL     1       6.467   8.316 -12.869  0.00  0.00    +0.029 A 
ATOM     30  C   UNL     1       6.624   7.428 -11.769  0.00  0.00    +0.043 A 
ATOM     31  N   UNL     1       7.663   6.761 -11.328  0.00  0.00    -0.380 N 
ATOM     32  C   UNL     1       7.259   5.995 -10.143  0.00  0.00    +0.144 C 
ATOM     33  F   UNL     1       2.973   9.258 -12.643  0.00  0.00    -0.205 F 
ATOM     34  H   UNL     1       8.551   6.774 -11.718  0.00  0.00    +0.160 HD
ENDBRANCH  23  24
ENDBRANCH  22  23
ENDBRANCH   5  22
TORSDOF 6
