REMARK  Name = ZINC60356704
REMARK  9 active torsions:
REMARK  status: ('A' for Active; 'I' for Inactive)
REMARK    1  A    between atoms: C_4  and  C_7
REMARK    2  A    between atoms: C_7  and  N_8
REMARK    3  A    between atoms: C_12  and  C_14
REMARK    4  A    between atoms: N_19  and  C_20
REMARK    5  A    between atoms: C_20  and  C_21
REMARK    6  A    between atoms: C_21  and  C_22
REMARK    7  A    between atoms: N_24  and  C_25
REMARK    8  A    between atoms: C_29  and  S_31
REMARK    9  A    between atoms: S_31  and  N_34
REMARK                            x       y       z     vdW  Elec       q    Type
REMARK                         _______ _______ _______ _____ _____    ______ ____
ROOT
ATOM      1  C   UNL     1       6.467  -0.697   2.122  0.00  0.00    +0.043 C 
ATOM      2  C   UNL     1       6.582   0.688   1.451  0.00  0.00    +0.018 C 
ATOM      3  C   UNL     1       8.089   1.023   1.598  0.00  0.00    +0.017 C 
ATOM      4  C   UNL     1       8.738  -0.373   1.427  0.00  0.00    +0.084 C 
ATOM      5  N   UNL     1       7.809  -1.308   2.103  0.00  0.00    -0.300 NA
ENDROOT
BRANCH   1  10
ATOM      6  N   UNL     1       4.145  -0.959   1.353  0.00  0.00    +0.385 N 
ATOM      7  C   UNL     1       3.208  -1.884   2.026  0.00  0.00    -0.078 C 
ATOM      8  C   UNL     1       3.852  -3.284   1.867  0.00  0.00    -0.020 C 
ATOM      9  C   UNL     1       5.361  -2.954   2.019  0.00  0.00    -0.016 C 
ATOM     10  C   UNL     1       5.485  -1.573   1.341  0.00  0.00    -0.051 C 
ATOM     11  H   UNL     1       4.177  -0.085   1.857  0.00  0.00    -0.081 HD
BRANCH   6  12
ATOM     12  C   UNL     1       3.698  -0.720  -0.026  0.00  0.00    -0.043 C 
BRANCH  12  16
ATOM     13  C   UNL     1      -0.025   1.374   0.023  0.00  0.00    +0.000 A 
ATOM     14  C   UNL     1       1.165   2.079   0.007  0.00  0.00    +0.000 A 
ATOM     15  C   UNL     1       2.369   1.401  -0.009  0.00  0.00    +0.002 A 
ATOM     16  C   UNL     1       2.385   0.019  -0.008  0.00  0.00    -0.064 A 
ATOM     17  C   UNL     1       1.196  -0.686   0.010  0.00  0.00    +0.002 A 
ATOM     18  C   UNL     1      -0.009  -0.008   0.024  0.00  0.00    +0.000 A 
ENDBRANCH  12  16
ENDBRANCH   6  12
ENDBRANCH   1  10
BRANCH   5  19
ATOM     19  C   UNL     1       8.265  -1.617   3.465  0.00  0.00    +0.094 C 
BRANCH  19  20
ATOM     20  C   UNL     1       9.535  -2.468   3.396  0.00  0.00    +0.111 C 
BRANCH  20  21
ATOM     21  C   UNL     1      10.004  -2.785   4.793  0.00  0.00    +0.218 C 
ATOM     22  O   UNL     1       9.383  -2.371   5.749  0.00  0.00    -0.275 OA
ATOM     23  N   UNL     1      11.112  -3.528   4.979  0.00  0.00    -0.285 N 
ATOM     24  H   UNL     1      11.571  -3.914   4.217  0.00  0.00    +0.155 HD
BRANCH  23  25
ATOM     25  C   UNL     1      11.602  -3.741   6.273  0.00  0.00    +0.035 A 
ATOM     26  C   UNL     1      12.971  -3.813   6.495  0.00  0.00    +0.023 A 
ATOM     27  C   UNL     1      13.451  -4.024   7.773  0.00  0.00    +0.004 A 
ATOM     28  C   UNL     1      12.570  -4.164   8.830  0.00  0.00    +0.028 A 
ATOM     29  C   UNL     1      11.207  -4.093   8.611  0.00  0.00    +0.107 A 
ATOM     30  C   UNL     1      10.721  -3.876   7.337  0.00  0.00    +0.051 A 
BRANCH  29  31
ATOM     31  S   UNL     1      10.089  -4.273   9.961  0.00  0.00    +0.056 S 
ATOM     32  O   UNL     1       8.855  -4.712   9.411  0.00  0.00    -0.153 OA
ATOM     33  O   UNL     1      10.779  -5.005  10.965  0.00  0.00    -0.153 OA
BRANCH  31  34
ATOM     34  N   UNL     1       9.821  -2.760  10.579  0.00  0.00    -0.204 NA
ATOM     35  H   UNL     1      10.258  -1.990  10.184  0.00  0.00    +0.144 HD
ATOM     36  H   UNL     1       9.226  -2.644  11.337  0.00  0.00    +0.144 HD
ENDBRANCH  31  34
ENDBRANCH  29  31
ENDBRANCH  23  25
ENDBRANCH  20  21
ENDBRANCH  19  20
ENDBRANCH   5  19
TORSDOF 9
