REMARK  Name = ZINC63107765
REMARK  7 active torsions:
REMARK  status: ('A' for Active; 'I' for Inactive)
REMARK    1  A    between atoms: C_1  and  C_2
REMARK    2  A    between atoms: C_2  and  C_3
REMARK    3  A    between atoms: C_3  and  C_4
REMARK    4  A    between atoms: N_6  and  C_7
REMARK    5  A    between atoms: C_11  and  N_14
REMARK    6  A    between atoms: C_12  and  C_13
REMARK    7  A    between atoms: C_15  and  C_17
REMARK                            x       y       z     vdW  Elec       q    Type
REMARK                         _______ _______ _______ _____ _____    ______ ____
ROOT
ATOM      1  N   UNL     1       2.829  -6.888  -4.071  0.00  0.00    -0.281 N 
ATOM      2  C   UNL     1       2.381  -8.104  -4.443  0.00  0.00    +0.248 C 
ATOM      3  O   UNL     1       1.437  -8.606  -3.866  0.00  0.00    -0.270 OA
ATOM      4  H   UNL     1       3.624  -6.517  -4.484  0.00  0.00    +0.155 HD
ENDROOT
BRANCH   2   5
ATOM      5  C   UNL     1       3.038  -8.826  -5.556  0.00  0.00    +0.039 A 
ATOM      6  C   UNL     1       4.131  -8.242  -6.215  0.00  0.00    +0.014 A 
ATOM      7  C   UNL     1       4.752  -8.886  -7.241  0.00  0.00    +0.016 A 
ATOM      8  C   UNL     1       4.299 -10.149  -7.649  0.00  0.00    +0.065 A 
ATOM      9  C   UNL     1       3.195 -10.752  -6.992  0.00  0.00    +0.080 A 
ATOM     10  C   UNL     1       2.571 -10.075  -5.934  0.00  0.00    +0.041 A 
ATOM     11  N   UNL     1       2.775 -11.960  -7.394  0.00  0.00    -0.223 NA
ATOM     12  C   UNL     1       3.377 -12.589  -8.392  0.00  0.00    +0.180 A 
ATOM     13  N   UNL     1       4.426 -12.062  -9.046  0.00  0.00    -0.301 N 
ATOM     14  H   UNL     1       4.837 -12.559  -9.770  0.00  0.00    +0.171 HD
ATOM     15  C   UNL     1       4.916 -10.849  -8.708  0.00  0.00    +0.260 A 
ATOM     16  O   UNL     1       5.965 -10.323  -9.364  0.00  0.00    -0.267 OA
ATOM     17  S   UNL     1       2.800 -14.129  -8.865  0.00  0.00    -0.011 S 
ENDBRANCH   2   5
BRANCH   1  22
ATOM     18  C   UNL     1       1.402  -4.064  -2.192  0.00  0.00    +0.038 A 
ATOM     19  C   UNL     1       0.798  -4.733  -1.135  0.00  0.00    +0.024 A 
ATOM     20  C   UNL     1       0.870  -6.110  -1.056  0.00  0.00    +0.004 A 
ATOM     21  C   UNL     1       1.543  -6.827  -2.028  0.00  0.00    +0.024 A 
ATOM     22  C   UNL     1       2.148  -6.163  -3.088  0.00  0.00    +0.038 A 
ATOM     23  C   UNL     1       2.072  -4.780  -3.173  0.00  0.00    -0.008 A 
ATOM     24  C   UNL     1       2.723  -4.057  -4.324  0.00  0.00    +0.047 C 
BRANCH  18  27
ATOM     25  C   UNL     1       0.314  -2.012  -1.673  0.00  0.00    +0.217 C 
ATOM     26  O   UNL     1      -0.587  -2.634  -1.152  0.00  0.00    -0.275 OA
ATOM     27  N   UNL     1       1.328  -2.668  -2.271  0.00  0.00    -0.285 N 
ATOM     28  H   UNL     1       2.006  -2.174  -2.757  0.00  0.00    +0.155 HD
BRANCH  25  29
ATOM     29  C   UNL     1       0.301  -0.505  -1.650  0.00  0.00    +0.096 C 
BRANCH  29  31
ATOM     30  C   UNL     1      -0.962   1.512  -0.892  0.00  0.00    +0.004 C 
ATOM     31  C   UNL     1      -0.949  -0.017  -0.915  0.00  0.00    +0.006 C 
ENDBRANCH  29  31
ENDBRANCH  25  29
ENDBRANCH  18  27
ENDBRANCH   1  22
TORSDOF 5
