REMARK  Name = ZINC37358491
REMARK  9 active torsions:
REMARK  status: ('A' for Active; 'I' for Inactive)
REMARK    1  A    between atoms: C_1  and  O_2
REMARK    2  A    between atoms: O_2  and  C_3
REMARK    3  A    between atoms: C_3  and  C_4
REMARK    4  A    between atoms: C_4  and  N_5
REMARK    5  A    between atoms: C_13  and  C_29
REMARK    6  A    between atoms: C_15  and  N_28
REMARK    7  A    between atoms: N_16  and  C_20
REMARK    8  A    between atoms: C_23  and  O_26
REMARK    9  A    between atoms: O_26  and  C_27
REMARK                            x       y       z     vdW  Elec       q    Type
REMARK                         _______ _______ _______ _____ _____    ______ ____
ROOT
ATOM      1  N   UNL     1       1.926  -2.884   1.157  0.00  0.00    +0.383 N 
ATOM      2  C   UNL     1       3.316  -2.448   0.968  0.00  0.00    -0.059 C 
ATOM      3  C   UNL     1       3.738  -2.709  -0.482  0.00  0.00    +0.089 C 
ATOM      4  N   UNL     1       3.500  -4.128  -0.789  0.00  0.00    -0.303 N 
ATOM      5  C   UNL     1       2.178  -4.692  -0.477  0.00  0.00    +0.089 C 
ATOM      6  C   UNL     1       1.829  -4.338   0.972  0.00  0.00    -0.059 C 
ATOM      7  C   UNL     1       4.491  -4.909  -1.356  0.00  0.00    +0.220 A 
ATOM      8  N   UNL     1       4.215  -6.183  -1.616  0.00  0.00    -0.214 NA
ATOM      9  C   UNL     1       5.107  -7.002  -2.159  0.00  0.00    +0.089 A 
ATOM     10  C   UNL     1       6.387  -6.489  -2.464  0.00  0.00    +0.086 A 
ATOM     11  C   UNL     1       7.557  -6.997  -3.017  0.00  0.00    +0.131 A 
ATOM     12  N   UNL     1       8.457  -5.995  -3.051  0.00  0.00    -0.216 N 
ATOM     13  N   UNL     1       7.891  -4.828  -2.526  0.00  0.00    -0.144 NA
ATOM     14  C   UNL     1       6.651  -5.071  -2.159  0.00  0.00    +0.189 A 
ATOM     15  N   UNL     1       5.655  -4.348  -1.613  0.00  0.00    -0.193 NA
ATOM     16  H   UNL     1       1.336  -2.420   0.483  0.00  0.00    -0.082 HD
ENDROOT
BRANCH   9  17
ATOM     17  C   UNL     1       4.769  -8.416  -2.436  0.00  0.00    +0.001 A 
ATOM     18  C   UNL     1       5.654  -9.432  -2.072  0.00  0.00    +0.011 A 
ATOM     19  C   UNL     1       5.334 -10.748  -2.333  0.00  0.00    +0.020 A 
ATOM     20  C   UNL     1       4.138 -11.062  -2.955  0.00  0.00    +0.041 A 
ATOM     21  C   UNL     1       3.256 -10.058  -3.319  0.00  0.00    +0.020 A 
ATOM     22  C   UNL     1       3.562  -8.739  -3.058  0.00  0.00    +0.011 A 
ATOM     23 CL   UNL     1       3.742 -12.721  -3.281  0.00  0.00    -0.084 Cl
ENDBRANCH   9  17
BRANCH  12  24
ATOM     24  C   UNL     1       9.765  -6.105  -3.541  0.00  0.00    +0.068 A 
ATOM     25  C   UNL     1      10.474  -7.287  -3.369  0.00  0.00    +0.031 A 
ATOM     26  C   UNL     1      11.763  -7.395  -3.852  0.00  0.00    +0.048 A 
ATOM     27  C   UNL     1      12.350  -6.323  -4.508  0.00  0.00    +0.120 A 
ATOM     28  C   UNL     1      11.643  -5.141  -4.680  0.00  0.00    +0.048 A 
ATOM     29  C   UNL     1      10.352  -5.034  -4.203  0.00  0.00    +0.031 A 
BRANCH  27  30
ATOM     30  O   UNL     1      13.619  -6.430  -4.984  0.00  0.00    -0.495 OA
ATOM     31  C   UNL     1      14.161  -5.287  -5.649  0.00  0.00    +0.277 C 
ENDBRANCH  27  30
ENDBRANCH  12  24
BRANCH  11  32
ATOM     32  N   UNL     1       7.760  -8.293  -3.451  0.00  0.00    -0.342 N 
ATOM     33  H   UNL     1       7.010  -8.903  -3.526  0.00  0.00    +0.144 HD
ATOM     34  H   UNL     1       8.654  -8.594  -3.680  0.00  0.00    +0.144 HD
ENDBRANCH  11  32
BRANCH   1  35
ATOM     35  C   UNL     1       1.486  -2.535   2.514  0.00  0.00    -0.050 C 
BRANCH  35  36
ATOM     36  C   UNL     1       1.468  -1.012   2.668  0.00  0.00    +0.141 C 
BRANCH  36  38
ATOM     37  C   UNL     1       0.383   0.967   1.862  0.00  0.00    +0.193 C 
ATOM     38  O   UNL     1       0.482  -0.457   1.796  0.00  0.00    -0.385 OA
ENDBRANCH  36  38
ENDBRANCH  35  36
ENDBRANCH   1  35
TORSDOF 7
