REMARK  Name = ZINC16913530
REMARK  9 active torsions:
REMARK  status: ('A' for Active; 'I' for Inactive)
REMARK    1  A    between atoms: C_1  and  N_63
REMARK    2  A    between atoms: C_2  and  N_63
REMARK    3  A    between atoms: C_3  and  C_4
REMARK    4  A    between atoms: C_3  and  N_63
REMARK    5  A    between atoms: C_4  and  C_5
REMARK    6  A    between atoms: C_5  and  N_6
REMARK    7  A    between atoms: C_19  and  C_21
REMARK    8  A    between atoms: C_24  and  S_27
REMARK    9  A    between atoms: S_27  and  N_30
REMARK                            x       y       z     vdW  Elec       q    Type
REMARK                         _______ _______ _______ _____ _____    ______ ____
ROOT
ATOM      1  N   UNL     1      -2.005  -5.685   0.477  0.00  0.00    -0.246 N 
ATOM      2  C   UNL     1      -1.226  -4.548   0.619  0.00  0.00    +0.168 A 
ATOM      3  N   UNL     1      -1.561  -3.377   1.106  0.00  0.00    -0.224 NA
ATOM      4  C   UNL     1      -0.690  -2.346   1.184  0.00  0.00    +0.084 A 
ATOM      5  C   UNL     1      -0.923  -1.044   1.684  0.00  0.00    +0.078 A 
ATOM      6  C   UNL     1       0.077  -0.100   1.696  0.00  0.00    +0.168 A 
ATOM      7  C   UNL     1       1.354  -0.402   1.214  0.00  0.00    +0.167 A 
ATOM      8  C   UNL     1       1.612  -1.668   0.717  0.00  0.00    +0.066 A 
ATOM      9  C   UNL     1       0.613  -2.610   0.706  0.00  0.00    +0.044 A 
ATOM     10  S   UNL     1       0.490  -4.304   0.183  0.00  0.00    -0.052 S 
ATOM     11  O   UNL     1       2.146   0.701   1.343  0.00  0.00    -0.453 OA
ATOM     12  C   UNL     1       1.464   1.554   2.282  0.00  0.00    +0.466 C 
ATOM     13  O   UNL     1       0.078   1.199   2.125  0.00  0.00    -0.453 OA
ATOM     14  C   UNL     1      -3.294  -5.672   0.869  0.00  0.00    +0.252 C 
ATOM     15  O   UNL     1      -3.744  -4.702   1.448  0.00  0.00    -0.270 OA
ENDROOT
BRANCH  14  16
ATOM     16  C   UNL     1      -4.162  -6.837   0.595  0.00  0.00    +0.037 A 
ATOM     17  C   UNL     1      -3.714  -8.127   0.882  0.00  0.00    +0.015 A 
ATOM     18  C   UNL     1      -4.531  -9.210   0.629  0.00  0.00    +0.029 A 
ATOM     19  C   UNL     1      -5.788  -9.019   0.082  0.00  0.00    +0.106 A 
ATOM     20  C   UNL     1      -6.235  -7.742  -0.210  0.00  0.00    +0.029 A 
ATOM     21  C   UNL     1      -5.431  -6.651   0.043  0.00  0.00    +0.015 A 
BRANCH  19  22
ATOM     22  S   UNL     1      -6.822 -10.407  -0.244  0.00  0.00    +0.061 S 
ATOM     23  O   UNL     1      -6.391 -11.448   0.622  0.00  0.00    -0.153 OA
ATOM     24  O   UNL     1      -8.159  -9.925  -0.249  0.00  0.00    -0.153 OA
BRANCH  22  25
ATOM     25  N   UNL     1      -6.495 -10.910  -1.787  0.00  0.00    -0.177 NA
ATOM     26  C   UNL     1      -7.178 -10.445  -3.003  0.00  0.00    +0.109 C 
ATOM     27  C   UNL     1      -6.558 -11.203  -4.196  0.00  0.00    +0.018 C 
ATOM     28  C   UNL     1      -5.960 -12.469  -3.527  0.00  0.00    +0.018 C 
ATOM     29  C   UNL     1      -5.474 -11.903  -2.169  0.00  0.00    +0.109 C 
ENDBRANCH  22  25
ENDBRANCH  19  22
ENDBRANCH  14  16
BRANCH   1  30
ATOM     30  C   UNL     1      -1.427  -6.902  -0.098  0.00  0.00    +0.114 C 
BRANCH  30  31
ATOM     31  C   UNL     1      -0.644  -7.654   0.980  0.00  0.00    +0.001 C 
BRANCH  31  32
ATOM     32  C   UNL     1      -0.160  -8.993   0.419  0.00  0.00    -0.078 C 
BRANCH  32  35
ATOM     33  C   UNL     1       0.868 -11.096   1.037  0.00  0.00    -0.097 C 
ATOM     34  C   UNL     1       1.833  -9.008   1.793  0.00  0.00    -0.097 C 
ATOM     35  N   UNL     1       0.574  -9.716   1.478  0.00  0.00    +0.376 N 
ATOM     36  H   UNL     1      -0.008  -9.753   2.323  0.00  0.00    -0.083 HD
ENDBRANCH  32  35
ENDBRANCH  31  32
ENDBRANCH  30  31
ENDBRANCH   1  30
TORSDOF 7
