REMARK  Name = ZINC65748507
REMARK  12 active torsions:
REMARK  status: ('A' for Active; 'I' for Inactive)
REMARK    1  A    between atoms: C_1  and  C_2
REMARK    2  A    between atoms: C_2  and  C_3
REMARK    3  A    between atoms: C_2  and  C_4
REMARK    4  A    between atoms: C_8  and  C_28
REMARK    5  A    between atoms: C_9  and  O_10
REMARK    6  A    between atoms: O_10  and  C_11
REMARK    7  A    between atoms: C_13  and  O_27
REMARK    8  A    between atoms: C_15  and  O_26
REMARK    9  A    between atoms: C_17  and  O_25
REMARK   10  A    between atoms: C_19  and  C_22
REMARK   11  A    between atoms: C_28  and  C_29
REMARK   12  A    between atoms: C_28  and  C_30
REMARK                            x       y       z     vdW  Elec       q    Type
REMARK                         _______ _______ _______ _____ _____    ______ ____
ROOT
ATOM      1  C   UNL     1      -0.251  -2.823  -1.922  0.00  0.00    +0.340 C 
ATOM      2  C   UNL     1       0.788  -2.879  -3.045  0.00  0.00    +0.214 C 
ATOM      3  C   UNL     1       1.585  -4.182  -2.928  0.00  0.00    +0.180 C 
ATOM      4  C   UNL     1       0.614  -5.366  -2.975  0.00  0.00    +0.186 C 
ATOM      5  C   UNL     1      -0.418  -5.214  -1.855  0.00  0.00    +0.266 C 
ATOM      6  O   UNL     1      -1.102  -3.968  -2.005  0.00  0.00    -0.322 OA
ENDROOT
BRANCH   5   7
ATOM      7  C   UNL     1      -1.412  -6.345  -1.931  0.00  0.00    +0.387 C 
ATOM      8  O   UNL     1      -1.047  -7.492  -1.736  0.00  0.00    -0.243 OA
ATOM      9  O   UNL     1      -2.581  -6.112  -2.188  0.00  0.00    -0.243 OA
ENDBRANCH   5   7
BRANCH   4  10
ATOM     10  O   UNL     1      -0.051  -5.389  -4.240  0.00  0.00    -0.386 OA
ATOM     11  H   UNL     1      -0.681  -6.115  -4.339  0.00  0.00    +0.210 HD
ENDBRANCH   4  10
BRANCH   3  12
ATOM     12  O   UNL     1       2.509  -4.276  -4.013  0.00  0.00    -0.386 OA
ATOM     13  H   UNL     1       3.048  -5.079  -4.003  0.00  0.00    +0.210 HD
ENDBRANCH   3  12
BRANCH   2  14
ATOM     14  O   UNL     1       1.675  -1.764  -2.930  0.00  0.00    -0.383 OA
ATOM     15  H   UNL     1       1.236  -0.904  -2.991  0.00  0.00    +0.210 HD
ENDBRANCH   2  14
BRANCH   1  16
ATOM     16  O   UNL     1      -1.035  -1.636  -2.058  0.00  0.00    -0.460 OA
BRANCH  16  22
ATOM     17  C   UNL     1      -1.412  -0.526   0.013  0.00  0.00    -0.003 A 
ATOM     18  C   UNL     1      -2.259  -0.205   1.056  0.00  0.00    +0.007 A 
ATOM     19  C   UNL     1      -3.556  -0.683   1.066  0.00  0.00    +0.001 A 
ATOM     20  C   UNL     1      -4.009  -1.484   0.033  0.00  0.00    +0.007 A 
ATOM     21  C   UNL     1      -3.166  -1.807  -1.012  0.00  0.00    -0.003 A 
ATOM     22  C   UNL     1      -1.865  -1.324  -1.028  0.00  0.00    +0.131 A 
BRANCH  17  24
ATOM     23  C   UNL     1      -0.019   1.526   0.010  0.00  0.00    +0.012 C 
ATOM     24  C   UNL     1       0.002  -0.004   0.002  0.00  0.00    +0.016 C 
ATOM     25  C   UNL     1       0.742  -0.511   1.242  0.00  0.00    +0.012 C 
ENDBRANCH  17  24
BRANCH  21  26
ATOM     26  C   UNL     1      -3.659  -2.680  -2.137  0.00  0.00    +0.016 C 
ATOM     27  C   UNL     1      -4.092  -4.036  -1.578  0.00  0.00    +0.012 C 
ATOM     28  C   UNL     1      -4.851  -2.005  -2.820  0.00  0.00    +0.012 C 
ENDBRANCH  21  26
ENDBRANCH  16  22
ENDBRANCH   1  16
TORSDOF 8
