REMARK  Name = ZINC43262553
REMARK  8 active torsions:
REMARK  status: ('A' for Active; 'I' for Inactive)
REMARK    1  A    between atoms: C_1  and  C_2
REMARK    2  A    between atoms: C_2  and  C_3
REMARK    3  A    between atoms: C_3  and  C_5
REMARK    4  A    between atoms: C_3  and  N_25
REMARK    5  A    between atoms: C_5  and  C_7
REMARK    6  A    between atoms: C_5  and  N_13
REMARK    7  A    between atoms: C_15  and  C_22
REMARK    8  A    between atoms: C_19  and  C_21
REMARK                            x       y       z     vdW  Elec       q    Type
REMARK                         _______ _______ _______ _____ _____    ______ ____
ROOT
ATOM      1  C   UNL     1      -0.760  -0.159   1.549  0.00  0.00    +0.079 C 
ENDROOT
BRANCH   1   2
ATOM      2  N   UNL     1      -0.450  -1.556   1.879  0.00  0.00    -0.293 NA
ATOM      3  C   UNL     1      -0.838  -1.869   3.260  0.00  0.00    +0.098 C 
ATOM      4  C   UNL     1      -0.370  -3.282   3.616  0.00  0.00    +0.089 C 
ATOM      5  C   UNL     1      -1.007  -4.283   2.648  0.00  0.00    +0.015 C 
ATOM      6  C   UNL     1      -0.627  -3.907   1.213  0.00  0.00    +0.019 C 
ATOM      7  C   UNL     1      -1.087  -2.475   0.928  0.00  0.00    +0.054 C 
ATOM      8  C   UNL     1      -0.692  -2.088  -0.499  0.00  0.00    +0.024 C 
BRANCH   4   9
ATOM      9  C   UNL     1       1.131  -3.358   3.504  0.00  0.00    +0.215 C 
ATOM     10  O   UNL     1       1.713  -2.680   2.684  0.00  0.00    -0.276 OA
ATOM     11  N   UNL     1       1.826  -4.179   4.316  0.00  0.00    -0.329 N 
ATOM     12  H   UNL     1       1.360  -4.722   4.972  0.00  0.00    +0.145 HD
ATOM     13  H   UNL     1       2.792  -4.229   4.244  0.00  0.00    +0.145 HD
ENDBRANCH   4   9
ENDBRANCH   1   2
BRANCH   1  14
ATOM     14  C   UNL     1       0.101   0.287   0.395  0.00  0.00    +0.006 A 
ATOM     15  C   UNL     1      -0.252   0.979  -0.716  0.00  0.00    +0.014 A 
ATOM     16  C   UNL     1       0.717   1.282  -1.654  0.00  0.00    +0.023 A 
ATOM     17  C   UNL     1       1.993   0.877  -1.434  0.00  0.00    +0.055 A 
ATOM     18  S   UNL     1       1.852   0.048   0.140  0.00  0.00    -0.085 S 
ATOM     19 BR   UNL     1       3.525   1.132  -2.513  0.00  0.00    -0.043 Br
ENDBRANCH   1  14
BRANCH   1  20
ATOM     20  C   UNL     1      -0.481   0.727   2.765  0.00  0.00    -0.053 C 
BRANCH  20  21
ATOM     21  N   UNL     1      -0.748   2.130   2.421  0.00  0.00    +0.381 N 
ATOM     22  H   UNL     1      -1.713   2.231   2.145  0.00  0.00    -0.090 HD
ATOM     23  H   UNL     1      -0.564   2.714   3.223  0.00  0.00    -0.090 HD
ATOM     24  H   UNL     1      -0.149   2.408   1.658  0.00  0.00    -0.090 HD
ENDBRANCH  20  21
BRANCH  20  26
ATOM     25  C   UNL     1       1.231   1.362   4.470  0.00  0.00    +0.002 C 
ATOM     26  C   UNL     1       0.983   0.574   3.183  0.00  0.00    -0.018 C 
ENDBRANCH  20  26
ENDBRANCH   1  20
TORSDOF 6
