REMARK  Name = ZINC13073112
REMARK  10 active torsions:
REMARK  status: ('A' for Active; 'I' for Inactive)
REMARK    1  A    between atoms: C_1  and  C_2
REMARK    2  A    between atoms: C_6  and  C_8
REMARK    3  A    between atoms: N_10  and  C_23
REMARK    4  A    between atoms: N_13  and  C_14
REMARK    5  A    between atoms: C_20  and  C_22
REMARK    6  A    between atoms: C_23  and  N_66
REMARK    7  A    between atoms: C_24  and  N_66
REMARK    8  A    between atoms: C_25  and  C_26
REMARK    9  A    between atoms: C_25  and  N_66
REMARK   10  A    between atoms: N_28  and  C_29
REMARK                            x       y       z     vdW  Elec       q    Type
REMARK                         _______ _______ _______ _____ _____    ______ ____
ROOT
ATOM      1  C   UNL     1       3.718  -0.600  -0.147  0.00  0.00    +0.163 A 
ATOM      2  N   UNL     1       4.913  -0.109   0.028  0.00  0.00    -0.152 NA
ATOM      3  N   UNL     1       5.827  -1.171   0.002  0.00  0.00    -0.257 N 
ATOM      4  C   UNL     1       5.126  -2.305  -0.203  0.00  0.00    +0.177 A 
ATOM      5  S   UNL     1       5.773  -3.886  -0.323  0.00  0.00    -0.011 S 
ATOM      6  N   UNL     1       3.824  -1.969  -0.296  0.00  0.00    -0.300 N 
ENDROOT
BRANCH   1  12
ATOM      7  C   UNL     1       1.288   3.627  -1.209  0.00  0.00    +0.044 C 
ATOM      8  C   UNL     1       1.287   2.211  -0.694  0.00  0.00    -0.050 A 
ATOM      9  C   UNL     1       0.108   1.637  -0.255  0.00  0.00    +0.003 A 
ATOM     10  C   UNL     1       0.099   0.337   0.220  0.00  0.00    +0.001 A 
ATOM     11  C   UNL     1       1.268  -0.395   0.257  0.00  0.00    +0.011 A 
ATOM     12  C   UNL     1       2.461   0.179  -0.184  0.00  0.00    +0.019 A 
ATOM     13  C   UNL     1       2.463   1.490  -0.661  0.00  0.00    +0.015 A 
ENDBRANCH   1  12
BRANCH   6  14
ATOM     14  C   UNL     1       2.712  -2.896  -0.519  0.00  0.00    +0.094 C 
ATOM     15  C   UNL     1       2.634  -3.887   0.644  0.00  0.00    +0.025 C 
ATOM     16  C   UNL     1       1.472  -4.856   0.412  0.00  0.00    +0.002 C 
ATOM     17  C   UNL     1       1.699  -5.620  -0.894  0.00  0.00    +0.000 C 
ATOM     18  C   UNL     1       1.777  -4.629  -2.057  0.00  0.00    +0.005 C 
ATOM     19  C   UNL     1       2.938  -3.660  -1.825  0.00  0.00    +0.009 C 
ATOM     20  C   UNL     1       3.016  -2.669  -2.988  0.00  0.00    +0.009 C 
ENDBRANCH   6  14
BRANCH   3  21
ATOM     21  C   UNL     1       7.280  -1.068   0.163  0.00  0.00    +0.072 C 
BRANCH  21  23
ATOM     22  C   UNL     1       7.525   0.423  -1.729  0.00  0.00    -0.093 C 
ATOM     23  N   UNL     1       7.896  -0.894  -1.169  0.00  0.00    +0.397 N 
ATOM     24  H   UNL     1       7.551  -1.631  -1.795  0.00  0.00    -0.079 HD
BRANCH  23  25
ATOM     25  C   UNL     1       9.366  -1.002  -1.064  0.00  0.00    +0.021 C 
BRANCH  25  26
ATOM     26  C   UNL     1       9.951  -1.042  -2.452  0.00  0.00    +0.201 C 
ATOM     27  O   UNL     1       9.223  -0.970  -3.420  0.00  0.00    -0.278 OA
ATOM     28  N   UNL     1      11.283  -1.157  -2.619  0.00  0.00    -0.287 N 
ATOM     29  H   UNL     1      11.860  -1.282  -1.849  0.00  0.00    +0.155 HD
BRANCH  28  30
ATOM     30  C   UNL     1      11.836  -1.096  -3.904  0.00  0.00    +0.033 A 
ATOM     31  C   UNL     1      11.149  -1.635  -4.983  0.00  0.00    +0.026 A 
ATOM     32  C   UNL     1      11.693  -1.569  -6.251  0.00  0.00    +0.040 A 
ATOM     33  C   UNL     1      12.929  -0.974  -6.444  0.00  0.00    +0.124 A 
ATOM     34  C   UNL     1      13.618  -0.440  -5.369  0.00  0.00    +0.040 A 
ATOM     35  C   UNL     1      13.075  -0.500  -4.100  0.00  0.00    +0.026 A 
ATOM     36  F   UNL     1      13.462  -0.915  -7.684  0.00  0.00    -0.205 F 
ENDBRANCH  28  30
ENDBRANCH  25  26
ENDBRANCH  23  25
ENDBRANCH  21  23
ENDBRANCH   3  21
TORSDOF 7
