REMARK  Name = ZINC35780884
REMARK  12 active torsions:
REMARK  status: ('A' for Active; 'I' for Inactive)
REMARK    1  A    between atoms: C_1  and  C_2
REMARK    2  A    between atoms: N_8  and  C_9
REMARK    3  A    between atoms: C_10  and  C_20
REMARK    4  A    between atoms: C_11  and  C_14
REMARK    5  A    between atoms: C_20  and  N_21
REMARK    6  A    between atoms: N_21  and  C_22
REMARK    7  A    between atoms: N_21  and  C_29
REMARK    8  A    between atoms: C_22  and  C_23
REMARK    9  A    between atoms: C_29  and  C_30
REMARK   10  A    between atoms: C_30  and  C_32
REMARK   11  A    between atoms: C_30  and  O_39
REMARK   12  A    between atoms: C_32  and  C_33
REMARK                            x       y       z     vdW  Elec       q    Type
REMARK                         _______ _______ _______ _____ _____    ______ ____
ROOT
ATOM      1  C   UNL     1       3.400  -1.012   3.887  0.00  0.00    -0.035 C 
ENDROOT
BRANCH   1   3
ATOM      2  C   UNL     1       4.048  -0.012   6.144  0.00  0.00    +0.222 A 
ATOM      3  C   UNL     1       3.385  -0.926   5.391  0.00  0.00    +0.025 A 
ATOM      4  C   UNL     1       2.680  -1.780   6.265  0.00  0.00    +0.117 A 
ATOM      5  N   UNL     1       2.917  -1.386   7.494  0.00  0.00    -0.076 NA
ATOM      6  O   UNL     1       3.787  -0.270   7.437  0.00  0.00    -0.339 OA
BRANCH   2  13
ATOM      7  C   UNL     1       2.793   2.324   5.623  0.00  0.00    +0.028 C 
ATOM      8  C   UNL     1       4.280   2.293   5.264  0.00  0.00    +0.073 C 
ATOM      9  C   UNL     1       5.011   3.416   6.007  0.00  0.00    +0.022 C 
ATOM     10  C   UNL     1       6.516   3.294   5.754  0.00  0.00    +0.003 C 
ATOM     11  C   UNL     1       7.018   1.952   6.292  0.00  0.00    +0.019 C 
ATOM     12  C   UNL     1       6.310   0.812   5.552  0.00  0.00    +0.108 C 
ATOM     13  N   UNL     1       4.857   1.003   5.665  0.00  0.00    -0.296 N 
ENDBRANCH   2  13
BRANCH   4  14
ATOM     14  C   UNL     1       1.821  -2.922   5.864  0.00  0.00    +0.004 A 
ATOM     15  C   UNL     1       0.920  -2.784   4.811  0.00  0.00    +0.010 A 
ATOM     16  C   UNL     1       0.123  -3.849   4.442  0.00  0.00    +0.001 A 
ATOM     17  C   UNL     1       0.219  -5.053   5.116  0.00  0.00    +0.000 A 
ATOM     18  C   UNL     1       1.112  -5.196   6.163  0.00  0.00    +0.001 A 
ATOM     19  C   UNL     1       1.917  -4.139   6.536  0.00  0.00    +0.010 A 
ENDBRANCH   4  14
ENDBRANCH   1   3
BRANCH   1  20
ATOM     20  N   UNL     1       4.593  -1.750   3.450  0.00  0.00    +0.386 N 
ATOM     21  H   UNL     1       5.417  -1.318   3.841  0.00  0.00    -0.081 HD
BRANCH  20  22
ATOM     22  C   UNL     1       4.676  -1.723   1.984  0.00  0.00    -0.046 C 
BRANCH  22  23
ATOM     23  C   UNL     1       4.795  -0.275   1.506  0.00  0.00    +0.102 C 
ATOM     24  C   UNL     1       4.946  -0.241  -0.030  0.00  0.00    +0.032 C 
ATOM     25  C   UNL     1       5.986   0.894  -0.234  0.00  0.00    +0.030 C 
ATOM     26  C   UNL     1       6.872   0.710   1.023  0.00  0.00    +0.160 C 
ATOM     27  O   UNL     1       5.964   0.329   2.071  0.00  0.00    -0.378 OA
ENDBRANCH  22  23
ENDBRANCH  20  22
BRANCH  20  28
ATOM     28  C   UNL     1       4.504  -3.142   3.910  0.00  0.00    -0.046 C 
BRANCH  28  29
ATOM     29  C   UNL     1       5.829  -3.856   3.636  0.00  0.00    +0.102 C 
BRANCH  29  30
ATOM     30  O   UNL     1       6.005  -4.008   2.227  0.00  0.00    -0.393 OA
ATOM     31  H   UNL     1       5.309  -4.524   1.797  0.00  0.00    +0.210 HD
ENDBRANCH  29  30
BRANCH  29  32
ATOM     32  C   UNL     1       5.813  -5.234   4.301  0.00  0.00    +0.064 C 
BRANCH  32  33
ATOM     33  C   UNL     1       7.162  -5.886   4.136  0.00  0.00    -0.045 A 
ATOM     34  C   UNL     1       7.418  -6.673   3.029  0.00  0.00    +0.004 A 
ATOM     35  C   UNL     1       8.655  -7.272   2.877  0.00  0.00    +0.000 A 
ATOM     36  C   UNL     1       9.635  -7.083   3.833  0.00  0.00    +0.000 A 
ATOM     37  C   UNL     1       9.379  -6.296   4.941  0.00  0.00    +0.000 A 
ATOM     38  C   UNL     1       8.144  -5.694   5.090  0.00  0.00    +0.004 A 
ENDBRANCH  32  33
ENDBRANCH  29  32
ENDBRANCH  28  29
ENDBRANCH  20  28
ENDBRANCH   1  20
TORSDOF 11
