REMARK  Name = ZINC14460259
REMARK  3 active torsions:
REMARK  status: ('A' for Active; 'I' for Inactive)
REMARK    1  A    between atoms: C_1  and  C_2
REMARK    2  A    between atoms: C_3  and  N_25
REMARK    3  A    between atoms: C_9  and  C_18
REMARK                            x       y       z     vdW  Elec       q    Type
REMARK                         _______ _______ _______ _____ _____    ______ ____
ROOT
ATOM      1  C   UNL     1       4.301   1.490   0.113  0.00  0.00    +0.048 C 
ATOM      2  C   UNL     1       3.517   1.152  -1.129  0.00  0.00    +0.001 A 
ATOM      3  C   UNL     1       4.145   0.533  -2.189  0.00  0.00    +0.131 A 
ATOM      4  C   UNL     1       3.424   0.224  -3.328  0.00  0.00    +0.033 A 
ATOM      5  C   UNL     1       2.081   0.532  -3.401  0.00  0.00    +0.008 A 
ATOM      6  C   UNL     1       1.439   1.153  -2.338  0.00  0.00    -0.019 A 
ATOM      7  C   UNL     1       2.161   1.466  -1.199  0.00  0.00    +0.036 A 
ATOM      8  N   UNL     1       1.577   2.093  -0.099  0.00  0.00    -0.336 N 
ATOM      9  C   UNL     1       0.140   1.830  -0.010  0.00  0.00    +0.105 C 
ATOM     10  C   UNL     1      -0.544   2.300  -1.296  0.00  0.00    +0.029 C 
ATOM     11  C   UNL     1      -0.024   1.454  -2.478  0.00  0.00    +0.049 C 
ATOM     12  C   UNL     1      -0.838   0.182  -2.407  0.00  0.00    -0.023 C 
ATOM     13  C   UNL     1      -1.940   0.380  -1.727  0.00  0.00    -0.030 C 
ATOM     14  C   UNL     1      -2.021   1.818  -1.253  0.00  0.00    +0.033 C 
ATOM     15  H   UNL     1       1.763   3.085  -0.107  0.00  0.00    +0.147 HD
ENDROOT
BRANCH   9  16
ATOM     16  C   UNL     1      -0.436   2.575   1.167  0.00  0.00    -0.026 A 
ATOM     17  C   UNL     1      -0.003   3.857   1.452  0.00  0.00    +0.005 A 
ATOM     18  C   UNL     1      -0.534   4.543   2.528  0.00  0.00    +0.002 A 
ATOM     19  C   UNL     1      -1.491   3.943   3.326  0.00  0.00    +0.020 A 
ATOM     20  C   UNL     1      -1.921   2.659   3.044  0.00  0.00    +0.041 A 
ATOM     21  C   UNL     1      -1.392   1.975   1.963  0.00  0.00    +0.025 A 
ATOM     22 CL   UNL     1      -3.122   1.905   4.046  0.00  0.00    -0.084 Cl
ENDBRANCH   9  16
BRANCH   3  23
ATOM     23  N   UNL     1       5.585   0.202  -2.109  0.00  0.00    +0.057 N 
ATOM     24  O   UNL     1       6.289   0.302  -3.098  0.00  0.00    -0.126 OA
ATOM     25  O   UNL     1       6.066  -0.171  -1.054  0.00  0.00    -0.126 OA
ENDBRANCH   3  23
TORSDOF 2
