REMARK  Name = ZINC58846419
REMARK  8 active torsions:
REMARK  status: ('A' for Active; 'I' for Inactive)
REMARK    1  A    between atoms: C_1  and  C_2
REMARK    2  A    between atoms: C_5  and  C_36
REMARK    3  A    between atoms: C_6  and  C_8
REMARK    4  A    between atoms: C_19  and  S_24
REMARK    5  A    between atoms: S_24  and  N_27
REMARK    6  A    between atoms: N_27  and  C_28
REMARK    7  A    between atoms: C_29  and  C_35
REMARK    8  A    between atoms: C_33  and  C_34
REMARK                            x       y       z     vdW  Elec       q    Type
REMARK                         _______ _______ _______ _____ _____    ______ ____
ROOT
ATOM      1  C   UNL     1       1.555  -2.831   2.402  0.00  0.00    +0.105 C 
ATOM      2  C   UNL     1       0.106  -3.215   2.404  0.00  0.00    +0.029 C 
ATOM      3  C   UNL     1      -0.796  -2.096   1.843  0.00  0.00    +0.033 C 
ATOM      4  C   UNL     1      -2.124  -2.321   2.536  0.00  0.00    -0.030 C 
ATOM      5  C   UNL     1      -1.977  -3.078   3.592  0.00  0.00    -0.023 C 
ATOM      6  C   UNL     1      -0.525  -3.444   3.775  0.00  0.00    +0.049 C 
ATOM      7  C   UNL     1       0.046  -2.556   4.844  0.00  0.00    -0.018 A 
ATOM      8  C   UNL     1      -0.639  -2.448   6.046  0.00  0.00    +0.034 A 
ATOM      9  C   UNL     1      -0.161  -1.636   7.054  0.00  0.00    +0.109 A 
ATOM     10  C   UNL     1       1.009  -0.921   6.873  0.00  0.00    +0.030 A 
ATOM     11  C   UNL     1       1.700  -1.025   5.683  0.00  0.00    +0.025 A 
ATOM     12  C   UNL     1       1.221  -1.848   4.667  0.00  0.00    +0.031 A 
ATOM     13  N   UNL     1       1.952  -1.976   3.502  0.00  0.00    -0.336 N 
ATOM     14  H   UNL     1       2.756  -1.443   3.409  0.00  0.00    +0.147 HD
ENDROOT
BRANCH   1  20
ATOM     15  C   UNL     1       2.374   1.415  -0.116  0.00  0.00    +0.044 C 
ATOM     16  C   UNL     1       2.250  -0.087  -0.095  0.00  0.00    -0.050 A 
ATOM     17  C   UNL     1       2.414  -0.810  -1.262  0.00  0.00    +0.003 A 
ATOM     18  C   UNL     1       2.299  -2.187  -1.243  0.00  0.00    +0.004 A 
ATOM     19  C   UNL     1       2.021  -2.842  -0.057  0.00  0.00    -0.045 A 
ATOM     20  C   UNL     1       1.859  -2.118   1.110  0.00  0.00    -0.024 A 
ATOM     21  C   UNL     1       1.977  -0.741   1.091  0.00  0.00    +0.009 A 
ATOM     22  C   UNL     1       1.896  -4.343  -0.036  0.00  0.00    +0.044 C 
ENDBRANCH   1  20
BRANCH   9  23
ATOM     23  S   UNL     1      -1.042  -1.511   8.575  0.00  0.00    +0.072 S 
ATOM     24  O   UNL     1      -0.587  -0.325   9.211  0.00  0.00    -0.150 OA
ATOM     25  O   UNL     1      -2.412  -1.734   8.270  0.00  0.00    -0.150 OA
BRANCH  23  26
ATOM     26  N   UNL     1      -0.556  -2.775   9.528  0.00  0.00    -0.216 N 
ATOM     27  H   UNL     1      -1.188  -3.470   9.770  0.00  0.00    +0.174 HD
BRANCH  26  28
ATOM     28  C   UNL     1       0.762  -2.841   9.983  0.00  0.00    +0.054 A 
ATOM     29  C   UNL     1       1.179  -2.027  11.029  0.00  0.00    -0.028 A 
ATOM     30  C   UNL     1       2.483  -2.094  11.477  0.00  0.00    +0.005 A 
ATOM     31  C   UNL     1       3.375  -2.970  10.885  0.00  0.00    +0.001 A 
ATOM     32  C   UNL     1       2.964  -3.782   9.844  0.00  0.00    +0.005 A 
ATOM     33  C   UNL     1       1.659  -3.723   9.395  0.00  0.00    -0.028 A 
ATOM     34  C   UNL     1       1.210  -4.613   8.264  0.00  0.00    +0.046 C 
ATOM     35  C   UNL     1       0.208  -1.071  11.674  0.00  0.00    +0.046 C 
ENDBRANCH  26  28
ENDBRANCH  23  26
ENDBRANCH   9  23
TORSDOF 4
