REMARK  Name = ZINC35038924
REMARK  9 active torsions:
REMARK  status: ('A' for Active; 'I' for Inactive)
REMARK    1  A    between atoms: C_1  and  C_2
REMARK    2  A    between atoms: C_2  and  C_3
REMARK    3  A    between atoms: C_3  and  C_4
REMARK    4  A    between atoms: C_4  and  N_5
REMARK    5  A    between atoms: N_5  and  C_6
REMARK    6  A    between atoms: C_6  and  C_8
REMARK    7  A    between atoms: C_6  and  C_9
REMARK    8  A    between atoms: N_19  and  C_20
REMARK    9  A    between atoms: N_29  and  C_30
REMARK                            x       y       z     vdW  Elec       q    Type
REMARK                         _______ _______ _______ _____ _____    ______ ____
ROOT
ATOM      1  C   UNL     1      -3.386  -1.599  -1.885  0.00  0.00    +0.138 A 
ATOM      2  N   UNL     1      -2.704  -1.659  -2.989  0.00  0.00    -0.231 NA
ATOM      3  C   UNL     1      -2.894  -0.763  -3.990  0.00  0.00    +0.078 A 
ATOM      4  C   UNL     1      -2.161  -0.827  -5.178  0.00  0.00    +0.028 A 
ATOM      5  C   UNL     1      -2.386   0.102  -6.168  0.00  0.00    +0.002 A 
ATOM      6  C   UNL     1      -3.333   1.104  -6.002  0.00  0.00    +0.001 A 
ATOM      7  C   UNL     1      -4.068   1.188  -4.840  0.00  0.00    +0.015 A 
ATOM      8  C   UNL     1      -3.856   0.257  -3.825  0.00  0.00    +0.065 A 
ATOM      9  C   UNL     1      -4.611   0.296  -2.564  0.00  0.00    +0.266 A 
ATOM     10  O   UNL     1      -5.455   1.149  -2.358  0.00  0.00    -0.267 OA
ATOM     11  N   UNL     1      -4.335  -0.656  -1.642  0.00  0.00    -0.263 N 
ENDROOT
BRANCH  11  12
ATOM     12  C   UNL     1      -5.029  -0.666  -0.425  0.00  0.00    +0.051 A 
ATOM     13  C   UNL     1      -4.831   0.353   0.497  0.00  0.00    +0.029 A 
ATOM     14  C   UNL     1      -5.517   0.341   1.696  0.00  0.00    +0.040 A 
ATOM     15  C   UNL     1      -6.401  -0.686   1.978  0.00  0.00    +0.124 A 
ATOM     16  C   UNL     1      -6.600  -1.704   1.060  0.00  0.00    +0.040 A 
ATOM     17  C   UNL     1      -5.921  -1.693  -0.142  0.00  0.00    +0.029 A 
ATOM     18  F   UNL     1      -7.071  -0.696   3.152  0.00  0.00    -0.205 F 
ENDBRANCH  11  12
BRANCH   1  19
ATOM     19  C   UNL     1      -3.115  -2.632  -0.822  0.00  0.00    +0.141 C 
ATOM     20  C   UNL     1      -2.325  -3.794  -1.428  0.00  0.00    +0.036 C 
BRANCH  19  21
ATOM     21  N   UNL     1      -2.338  -2.026   0.262  0.00  0.00    -0.276 N 
ATOM     22  C   UNL     1      -2.788  -2.088   1.531  0.00  0.00    +0.303 C 
ATOM     23  O   UNL     1      -3.840  -2.647   1.776  0.00  0.00    -0.253 OA
ATOM     24  N   UNL     1      -2.073  -1.530   2.528  0.00  0.00    -0.296 N 
ATOM     25  H   UNL     1      -1.234  -1.083   2.332  0.00  0.00    +0.151 HD
BRANCH  24  26
ATOM     26  C   UNL     1      -2.563  -1.597   3.907  0.00  0.00    +0.074 C 
ATOM     27  C   UNL     1      -2.131  -2.923   4.537  0.00  0.00    +0.022 C 
ATOM     28  C   UNL     1      -2.642  -2.993   5.977  0.00  0.00    +0.002 C 
ATOM     29  C   UNL     1      -2.058  -1.831   6.783  0.00  0.00    +0.000 C 
ATOM     30  C   UNL     1      -2.489  -0.505   6.153  0.00  0.00    +0.002 C 
ATOM     31  C   UNL     1      -1.978  -0.435   4.713  0.00  0.00    +0.022 C 
ENDBRANCH  24  26
BRANCH  21  32
ATOM     32  C   UNL     1      -1.071  -1.352  -0.034  0.00  0.00    +0.110 C 
BRANCH  32  33
ATOM     33  C   UNL     1      -1.317   0.150  -0.191  0.00  0.00    +0.019 C 
BRANCH  33  35
ATOM     34  C   UNL     1      -0.225   2.372  -0.528  0.00  0.00    +0.004 C 
ATOM     35  C   UNL     1       0.021   0.870  -0.372  0.00  0.00    -0.002 C 
ENDBRANCH  33  35
ENDBRANCH  32  33
ENDBRANCH  21  32
ENDBRANCH  19  21
ENDBRANCH   1  19
TORSDOF 7
