REMARK  Name = ZINC41034319
REMARK  5 active torsions:
REMARK  status: ('A' for Active; 'I' for Inactive)
REMARK    1  A    between atoms: C_1  and  C_2
REMARK    2  A    between atoms: C_7  and  C_9
REMARK    3  A    between atoms: C_7  and  N_12
REMARK    4  A    between atoms: C_13  and  C_15
REMARK    5  A    between atoms: C_16  and  C_17
REMARK                            x       y       z     vdW  Elec       q    Type
REMARK                         _______ _______ _______ _____ _____    ______ ____
ROOT
ATOM      1  N   UNL     1      -0.612  -2.548   1.244  0.00  0.00    -0.296 N 
ATOM      2  C   UNL     1      -0.840  -3.876   1.239  0.00  0.00    +0.238 C 
ATOM      3  O   UNL     1       0.097  -4.655   1.226  0.00  0.00    -0.271 OA
ATOM      4  H   UNL     1      -1.357  -1.928   1.254  0.00  0.00    +0.150 HD
ENDROOT
BRANCH   1  10
ATOM      5  C   UNL     1      -0.019   1.526   0.010  0.00  0.00    +0.007 C 
ATOM      6  C   UNL     1       0.002  -0.004   0.002  0.00  0.00    -0.012 C 
ATOM      7  C   UNL     1       0.718  -0.497  -1.257  0.00  0.00    +0.003 C 
ATOM      8  C   UNL     1       0.739  -2.027  -1.265  0.00  0.00    +0.003 C 
ATOM      9  C   UNL     1       1.479  -2.534  -0.026  0.00  0.00    +0.037 C 
ATOM     10  C   UNL     1       0.763  -2.041   1.233  0.00  0.00    +0.136 C 
ATOM     11  C   UNL     1       0.742  -0.511   1.242  0.00  0.00    +0.040 C 
BRANCH  10  12
ATOM     12  C   UNL     1       1.492  -2.540   2.454  0.00  0.00    +0.379 C 
ATOM     13  O   UNL     1       2.657  -2.231   2.638  0.00  0.00    -0.244 OA
ATOM     14  O   UNL     1       0.916  -3.253   3.258  0.00  0.00    -0.244 OA
ENDBRANCH  10  12
ENDBRANCH   1  10
BRANCH   2  15
ATOM     15  C   UNL     1      -2.166  -4.365   1.249  0.00  0.00    +0.068 C 
ATOM     16  C   UNL     1      -2.396  -5.703   1.244  0.00  0.00    +0.020 C 
BRANCH  16  17
ATOM     17  C   UNL     1      -3.723  -6.193   1.254  0.00  0.00    +0.014 A 
ATOM     18  C   UNL     1      -4.172  -7.509   1.257  0.00  0.00    +0.017 A 
ATOM     19  C   UNL     1      -5.535  -7.673   1.267  0.00  0.00    +0.028 A 
ATOM     20  C   UNL     1      -6.332  -6.573   1.274  0.00  0.00    +0.079 A 
ATOM     21  S   UNL     1      -5.256  -5.283   1.274  0.00  0.00    -0.077 S 
ATOM     22 CL   UNL     1      -8.067  -6.514   1.287  0.00  0.00    -0.076 Cl
ENDBRANCH  16  17
ENDBRANCH   2  15
TORSDOF 4
