REMARK  Name = ZINC33085588
REMARK  7 active torsions:
REMARK  status: ('A' for Active; 'I' for Inactive)
REMARK    1  A    between atoms: C_1  and  C_2
REMARK    2  A    between atoms: C_3  and  C_27
REMARK    3  A    between atoms: C_4  and  C_21
REMARK    4  A    between atoms: C_9  and  S_11
REMARK    5  A    between atoms: S_11  and  C_12
REMARK    6  A    between atoms: C_12  and  C_13
REMARK    7  A    between atoms: N_29  and  C_30
REMARK                            x       y       z     vdW  Elec       q    Type
REMARK                         _______ _______ _______ _____ _____    ______ ____
ROOT
ATOM      1  C   UNL     1      -3.698   7.123  -0.016  0.00  0.00    +0.061 C 
ATOM      2  C   UNL     1      -2.438   7.941  -0.146  0.00  0.00    +0.018 C 
ATOM      3  C   UNL     1      -1.255   7.310  -0.163  0.00  0.00    +0.060 C 
ATOM      4  C   UNL     1       0.060   8.033  -0.284  0.00  0.00    +0.177 C 
ATOM      5  N   UNL     1      -0.182   9.424  -0.657  0.00  0.00    -0.220 N 
ATOM      6  C   UNL     1      -1.406  10.007  -0.625  0.00  0.00    +0.219 A 
ATOM      7  N   UNL     1      -1.274  11.248  -1.008  0.00  0.00    -0.187 NA
ATOM      8  C   UNL     1       0.012  11.494  -1.297  0.00  0.00    +0.211 A 
ATOM      9  N   UNL     1       0.713  10.398  -1.095  0.00  0.00    -0.141 NA
ATOM     10  N   UNL     1      -2.541   9.307  -0.239  0.00  0.00    -0.287 N 
ATOM     11  H   UNL     1      -3.495   9.804  -0.011  0.00  0.00    +0.155 HD
ENDROOT
BRANCH   4  12
ATOM     12  C   UNL     1       0.783   7.985   1.037  0.00  0.00    -0.018 A 
ATOM     13  C   UNL     1       0.203   8.542   2.162  0.00  0.00    +0.006 A 
ATOM     14  C   UNL     1       0.864   8.495   3.375  0.00  0.00    +0.000 A 
ATOM     15  C   UNL     1       2.109   7.899   3.461  0.00  0.00    +0.000 A 
ATOM     16  C   UNL     1       2.690   7.347   2.335  0.00  0.00    +0.000 A 
ATOM     17  C   UNL     1       2.027   7.391   1.123  0.00  0.00    +0.006 A 
ENDBRANCH   4  12
BRANCH   3  18
ATOM     18  C   UNL     1      -1.242   5.899  -0.069  0.00  0.00    +0.248 C 
ATOM     19  O   UNL     1      -2.291   5.279  -0.064  0.00  0.00    -0.270 OA
ATOM     20  N   UNL     1      -0.070   5.239   0.017  0.00  0.00    -0.282 N 
ATOM     21  H   UNL     1       0.873   5.801   0.086  0.00  0.00    +0.155 HD
BRANCH  20  22
ATOM     22  C   UNL     1      -0.052   3.841   0.017  0.00  0.00    +0.034 A 
ATOM     23  C   UNL     1       0.988   3.158  -0.601  0.00  0.00    +0.023 A 
ATOM     24  C   UNL     1       1.002   1.777  -0.600  0.00  0.00    +0.002 A 
ATOM     25  C   UNL     1      -0.017   1.074   0.016  0.00  0.00    +0.000 A 
ATOM     26  C   UNL     1      -1.057   1.751   0.627  0.00  0.00    +0.002 A 
ATOM     27  C   UNL     1      -1.074   3.132   0.634  0.00  0.00    +0.023 A 
ENDBRANCH  20  22
ENDBRANCH   3  18
BRANCH   8  28
ATOM     28  S   UNL     1       0.660  13.034  -1.856  0.00  0.00    -0.080 S 
BRANCH  28  29
ATOM     29  C   UNL     1      -0.792  14.120  -1.928  0.00  0.00    +0.112 C 
BRANCH  29  30
ATOM     30  C   UNL     1      -0.372  15.489  -2.398  0.00  0.00    -0.037 A 
ATOM     31  C   UNL     1       0.006  16.449  -1.479  0.00  0.00    +0.006 A 
ATOM     32  C   UNL     1       0.396  17.703  -1.911  0.00  0.00    +0.020 A 
ATOM     33  C   UNL     1       0.397  18.000  -3.262  0.00  0.00    +0.041 A 
ATOM     34  C   UNL     1       0.013  17.040  -4.181  0.00  0.00    +0.020 A 
ATOM     35  C   UNL     1      -0.372  15.785  -3.749  0.00  0.00    +0.006 A 
ATOM     36 CL   UNL     1       0.881  19.577  -3.804  0.00  0.00    -0.084 Cl
ENDBRANCH  29  30
ENDBRANCH  28  29
ENDBRANCH   8  28
TORSDOF 6
