REMARK  Name = ZINC63215752
REMARK  3 active torsions:
REMARK  status: ('A' for Active; 'I' for Inactive)
REMARK    1  A    between atoms: C_4  and  N_10
REMARK    2  A    between atoms: CA_5  and  C_7
REMARK    3  A    between atoms: C_11  and  C_13
REMARK                            x       y       z     vdW  Elec       q    Type
REMARK                         _______ _______ _______ _____ _____    ______ ____
ROOT
ATOM      1  N   UNL     1       3.730  -0.632   0.234  0.00  0.00    -0.268 N 
ATOM      2  C   UNL     1       4.894   0.046   0.266  0.00  0.00    +0.223 C 
ATOM      3  O   UNL     1       4.894   1.256   0.186  0.00  0.00    -0.275 OA
ATOM      4  H   UNL     1       3.731  -1.600   0.298  0.00  0.00    +0.156 HD
ENDROOT
BRANCH   2   5
ATOM      5  C   UNL     1       6.197  -0.699   0.399  0.00  0.00    +0.093 C 
ATOM      6  C   UNL     1       7.358   0.298   0.408  0.00  0.00    +0.016 C 
ATOM      7  C   UNL     1       8.679  -0.455   0.577  0.00  0.00    +0.020 C 
ATOM      8  C   UNL     1       8.872  -1.411  -0.605  0.00  0.00    +0.109 C 
ATOM      9  N   UNL     1       7.691  -2.279  -0.708  0.00  0.00    -0.285 N 
ATOM     10  C   UNL     1       6.361  -1.658  -0.784  0.00  0.00    +0.122 C 
ATOM     11  C   UNL     1       7.824  -3.620  -0.733  0.00  0.00    +0.300 C 
ATOM     12  O   UNL     1       6.849  -4.325  -0.908  0.00  0.00    -0.253 OA
ATOM     13  N   UNL     1       9.039  -4.180  -0.563  0.00  0.00    -0.313 N 
ATOM     14  H   UNL     1       9.826  -3.618  -0.497  0.00  0.00    +0.146 HD
ATOM     15  H   UNL     1       9.125  -5.144  -0.507  0.00  0.00    +0.146 HD
ENDBRANCH   2   5
BRANCH   1  19
ATOM     16  C   UNL     1       0.182   1.333  -0.132  0.00  0.00    +0.131 A 
ATOM     17  C   UNL     1       1.375   2.032   0.003  0.00  0.00    +0.132 A 
ATOM     18  N   UNL     1       2.518   1.382   0.121  0.00  0.00    -0.236 NA
ATOM     19  C   UNL     1       2.531   0.054   0.111  0.00  0.00    +0.158 A 
ATOM     20  CA  UNL     1       1.325  -0.652  -0.025  0.00  0.00    +0.192 A 
ATOM     21  N   UNL     1       0.180   0.017  -0.143  0.00  0.00    -0.244 NA
BRANCH  20  22
ATOM     22  C   UNL     1       1.327  -2.127  -0.037  0.00  0.00    +0.408 C 
ATOM     23  O   UNL     1       2.202  -2.742   0.556  0.00  0.00    -0.239 OA
ATOM     24  OXT UNL     1       0.454  -2.734  -0.641  0.00  0.00    -0.239 OA
ENDBRANCH  20  22
ENDBRANCH   1  19
TORSDOF 3
