REMARK  Name = ZINC00921264
REMARK  11 active torsions:
REMARK  status: ('A' for Active; 'I' for Inactive)
REMARK    1  A    between atoms: C_1  and  O_2
REMARK    2  A    between atoms: O_2  and  C_3
REMARK    3  A    between atoms: C_8  and  C_9
REMARK    4  A    between atoms: C_9  and  N_10
REMARK    5  A    between atoms: N_10  and  C_11
REMARK    6  A    between atoms: C_11  and  C_13
REMARK    7  A    between atoms: C_11  and  C_20
REMARK    8  A    between atoms: C_16  and  O_19
REMARK    9  A    between atoms: N_22  and  C_23
REMARK   10  A    between atoms: C_29  and  C_31
REMARK   11  A    between atoms: C_31  and  N_32
REMARK                            x       y       z     vdW  Elec       q    Type
REMARK                         _______ _______ _______ _____ _____    ______ ____
ROOT
ATOM      1  N   UNL     1      -5.617   3.995  -1.845  0.00  0.00    -0.280 N 
ATOM      2  C   UNL     1      -4.270   4.053  -1.828  0.00  0.00    +0.238 C 
ATOM      3  O   UNL     1      -3.640   3.821  -2.838  0.00  0.00    -0.274 OA
ENDROOT
BRANCH   1   4
ATOM      4  C   UNL     1      -6.382   4.385  -0.658  0.00  0.00    +0.147 C 
BRANCH   4  10
ATOM      5  C   UNL     1      -7.128   6.649  -1.434  0.00  0.00    +0.125 A 
ATOM      6  C   UNL     1      -7.138   8.032  -1.321  0.00  0.00    +0.046 A 
ATOM      7  C   UNL     1      -6.416   8.646  -0.317  0.00  0.00    +0.004 A 
ATOM      8  C   UNL     1      -5.684   7.884   0.576  0.00  0.00    +0.001 A 
ATOM      9  C   UNL     1      -5.677   6.506   0.468  0.00  0.00    +0.009 A 
ATOM     10  C   UNL     1      -6.394   5.887  -0.538  0.00  0.00    +0.012 A 
BRANCH   5  12
ATOM     11  C   UNL     1      -8.482   6.891  -3.374  0.00  0.00    +0.277 C 
ATOM     12  O   UNL     1      -7.838   6.042  -2.422  0.00  0.00    -0.495 OA
ENDBRANCH   5  12
ENDBRANCH   4  10
ENDBRANCH   1   4
BRANCH   1  13
ATOM     13  C   UNL     1      -6.315   3.544  -3.051  0.00  0.00    +0.193 C 
BRANCH  13  14
ATOM     14  C   UNL     1      -7.772   3.323  -2.735  0.00  0.00    -0.018 A 
ATOM     15  C   UNL     1      -8.133   2.485  -1.696  0.00  0.00    +0.009 A 
ATOM     16  C   UNL     1      -9.468   2.285  -1.400  0.00  0.00    +0.046 A 
ATOM     17  C   UNL     1     -10.446   2.917  -2.154  0.00  0.00    +0.117 A 
ATOM     18  C   UNL     1     -10.081   3.752  -3.200  0.00  0.00    +0.046 A 
ATOM     19  C   UNL     1      -8.745   3.953  -3.488  0.00  0.00    +0.009 A 
BRANCH  17  20
ATOM     20  O   UNL     1     -11.760   2.717  -1.870  0.00  0.00    -0.507 OA
ATOM     21  H   UNL     1     -12.155   1.971  -2.342  0.00  0.00    +0.292 HD
ENDBRANCH  17  20
ENDBRANCH  13  14
BRANCH  13  22
ATOM     22  C   UNL     1      -5.704   2.253  -3.532  0.00  0.00    +0.238 C 
ATOM     23  O   UNL     1      -4.776   1.759  -2.926  0.00  0.00    -0.273 OA
ATOM     24  N   UNL     1      -6.188   1.647  -4.634  0.00  0.00    -0.311 N 
ATOM     25  H   UNL     1      -6.930   2.042  -5.118  0.00  0.00    +0.149 HD
BRANCH  24  26
ATOM     26  C   UNL     1      -5.594   0.392  -5.101  0.00  0.00    +0.073 C 
ATOM     27  C   UNL     1      -4.381   0.699  -5.981  0.00  0.00    +0.022 C 
ATOM     28  C   UNL     1      -3.760  -0.612  -6.469  0.00  0.00    +0.002 C 
ATOM     29  C   UNL     1      -4.794  -1.394  -7.281  0.00  0.00    +0.000 C 
ATOM     30  C   UNL     1      -6.008  -1.701  -6.401  0.00  0.00    +0.002 C 
ATOM     31  C   UNL     1      -6.628  -0.391  -5.913  0.00  0.00    +0.022 C 
ENDBRANCH  24  26
ENDBRANCH  13  22
ENDBRANCH   1  13
BRANCH   2  32
ATOM     32  C   UNL     1      -3.547   4.406  -0.553  0.00  0.00    +0.241 C 
BRANCH  32  33
ATOM     33  N   UNL     1      -2.109   4.190  -0.732  0.00  0.00    -0.235 N 
ATOM     34  C   UNL     1      -1.414   3.031  -0.480  0.00  0.00    +0.090 A 
ATOM     35  C   UNL     1      -1.774   1.769  -0.019  0.00  0.00    +0.029 A 
ATOM     36  C   UNL     1      -0.819   0.803   0.131  0.00  0.00    +0.002 A 
ATOM     37  C   UNL     1       0.508   1.067  -0.182  0.00  0.00    +0.002 A 
ATOM     38  C   UNL     1       0.886   2.295  -0.640  0.00  0.00    +0.032 A 
ATOM     39  C   UNL     1      -0.073   3.305  -0.799  0.00  0.00    +0.113 A 
ATOM     40  N   UNL     1      -0.004   4.583  -1.220  0.00  0.00    -0.129 NA
ATOM     41  N   UNL     1      -1.171   5.125  -1.193  0.00  0.00    -0.064 NA
ENDBRANCH  32  33
ENDBRANCH   2  32
TORSDOF 10
