REMARK  Name = ZINC39990498
REMARK  16 active torsions:
REMARK  status: ('A' for Active; 'I' for Inactive)
REMARK    1  A    between atoms: C_1  and  C_2
REMARK    2  A    between atoms: C_2  and  C_3
REMARK    3  A    between atoms: C_3  and  C_4
REMARK    4  A    between atoms: C_4  and  N_5
REMARK    5  A    between atoms: C_6  and  N_29
REMARK    6  A    between atoms: C_7  and  C_15
REMARK    7  A    between atoms: C_8  and  C_14
REMARK    8  A    between atoms: C_9  and  C_12
REMARK    9  A    between atoms: N_19  and  C_23
REMARK   10  A    between atoms: C_23  and  C_24
REMARK   11  A    between atoms: C_24  and  C_25
REMARK   12  A    between atoms: C_25  and  O_26
REMARK   13  A    between atoms: O_26  and  C_27
REMARK   14  A    between atoms: C_27  and  C_28
REMARK   15  A    between atoms: C_31  and  C_38
REMARK   16  A    between atoms: C_34  and  C_37
REMARK                            x       y       z     vdW  Elec       q    Type
REMARK                         _______ _______ _______ _____ _____    ______ ____
ROOT
ATOM      1  N   UNL     1       1.193  -2.816   3.028  0.00  0.00    -0.295 N 
ATOM      2  C   UNL     1       2.545  -2.753   2.925  0.00  0.00    +0.112 A 
ATOM      3  C   UNL     1       3.362  -3.226   3.965  0.00  0.00    +0.019 A 
ATOM      4  C   UNL     1       2.769  -3.766   5.118  0.00  0.00    -0.017 A 
ATOM      5  C   UNL     1       1.381  -3.819   5.199  0.00  0.00    +0.120 A 
ATOM      6  C   UNL     1       0.601  -3.324   4.123  0.00  0.00    +0.270 A 
ATOM      7  O   UNL     1      -0.615  -3.362   4.191  0.00  0.00    -0.266 OA
ATOM      8  C   UNL     1       3.623  -4.281   6.249  0.00  0.00    +0.046 C 
ENDROOT
BRANCH   3   9
ATOM      9  C   UNL     1       4.820  -3.156   3.848  0.00  0.00    +0.032 C 
ATOM     10  C   UNL     1       5.534  -2.369   4.698  0.00  0.00    +0.077 C 
ATOM     11  C   UNL     1       6.949  -2.224   4.830  0.00  0.00    +0.258 C 
ATOM     12  O   UNL     1       7.713  -2.856   4.123  0.00  0.00    -0.269 OA
ATOM     13  N   UNL     1       7.404  -1.383   5.742  0.00  0.00    -0.255 N 
ATOM     14  C   UNL     1       6.556  -0.682   6.527  0.00  0.00    +0.121 C 
ATOM     15  S   UNL     1       6.921   0.449   7.759  0.00  0.00    -0.027 S 
ATOM     16  S   UNL     1       4.957  -1.228   5.947  0.00  0.00    -0.061 S 
BRANCH  13  17
ATOM     17  C   UNL     1       8.849  -1.208   5.906  0.00  0.00    +0.117 C 
BRANCH  17  18
ATOM     18  C   UNL     1       9.334  -0.083   4.990  0.00  0.00    +0.047 C 
BRANCH  18  19
ATOM     19  C   UNL     1      10.844   0.099   5.161  0.00  0.00    +0.161 C 
BRANCH  19  20
ATOM     20  O   UNL     1      11.296   1.151   4.306  0.00  0.00    -0.380 OA
BRANCH  20  21
ATOM     21  C   UNL     1      12.700   1.404   4.389  0.00  0.00    +0.156 C 
ATOM     22  C   UNL     1      13.071   2.542   3.437  0.00  0.00    +0.034 C 
ENDBRANCH  20  21
ENDBRANCH  19  20
ENDBRANCH  18  19
ENDBRANCH  17  18
ENDBRANCH  13  17
ENDBRANCH   3   9
BRANCH   2  23
ATOM     23  N   UNL     1       3.115  -2.227   1.802  0.00  0.00    -0.315 N 
ATOM     24  C   UNL     1       3.411  -0.790   1.716  0.00  0.00    +0.109 C 
ATOM     25  C   UNL     1       4.886  -0.612   1.343  0.00  0.00    +0.004 C 
ATOM     26  C   UNL     1       5.181  -1.393   0.060  0.00  0.00    +0.009 C 
ATOM     27  C   UNL     1       4.919  -2.882   0.295  0.00  0.00    +0.004 C 
ATOM     28  C   UNL     1       3.450  -3.087   0.659  0.00  0.00    +0.109 C 
ATOM     29  C   UNL     1       5.246  -3.666  -0.977  0.00  0.00    +0.009 C 
ATOM     30  C   UNL     1       5.180   0.872   1.117  0.00  0.00    +0.009 C 
ENDBRANCH   2  23
BRANCH   5  31
ATOM     31  C   UNL     1       0.745  -4.364   6.361  0.00  0.00    +0.105 C 
ATOM     32  N   UNL     1       0.241  -4.797   7.282  0.00  0.00    -0.191 NA
ENDBRANCH   5  31
BRANCH   1  33
ATOM     33  C   UNL     1       0.364  -2.316   1.928  0.00  0.00    +0.126 C 
BRANCH  33  34
ATOM     34  C   UNL     1      -0.042  -0.868   2.212  0.00  0.00    +0.021 C 
BRANCH  34  36
ATOM     35  C   UNL     1      -1.482   1.029   1.456  0.00  0.00    +0.004 C 
ATOM     36  C   UNL     1      -0.992  -0.380   1.116  0.00  0.00    -0.002 C 
ENDBRANCH  34  36
ENDBRANCH  33  34
ENDBRANCH   1  33
TORSDOF 11
