REMARK  Name = ZINC66123213
REMARK  13 active torsions:
REMARK  status: ('A' for Active; 'I' for Inactive)
REMARK    1  A    between atoms: C_1  and  C_2
REMARK    2  A    between atoms: C_2  and  C_3
REMARK    3  A    between atoms: C_3  and  C_5
REMARK    4  A    between atoms: C_3  and  C_6
REMARK    5  A    between atoms: C_6  and  C_8
REMARK    6  A    between atoms: C_6  and  N_24
REMARK    7  A    between atoms: N_10  and  N_11
REMARK    8  A    between atoms: N_11  and  C_12
REMARK    9  A    between atoms: C_12  and  N_14
REMARK   10  A    between atoms: N_14  and  C_15
REMARK   11  A    between atoms: C_20  and  C_21
REMARK   12  A    between atoms: C_21  and  C_22
REMARK   13  A    between atoms: C_21  and  C_23
REMARK                            x       y       z     vdW  Elec       q    Type
REMARK                         _______ _______ _______ _____ _____    ______ ____
ROOT
ATOM      1  C   UNL     1      -2.350   1.158   1.444  0.00  0.00    +0.250 C 
ATOM      2  O   UNL     1      -3.419   1.494   1.907  0.00  0.00    -0.272 OA
ATOM      3  N   UNL     1      -1.292   1.991   1.516  0.00  0.00    -0.234 N 
ATOM      4  H   UNL     1      -0.458   1.754   1.082  0.00  0.00    +0.173 HD
ENDROOT
BRANCH   3   5
ATOM      5  N   UNL     1      -1.399   3.200   2.216  0.00  0.00    -0.246 N 
ATOM      6  H   UNL     1      -2.207   3.403   2.713  0.00  0.00    +0.172 HD
BRANCH   5   7
ATOM      7  C   UNL     1      -0.379   4.080   2.200  0.00  0.00    +0.151 C 
ATOM      8  S   UNL     1      -0.455   5.496   3.160  0.00  0.00    -0.017 S 
BRANCH   7   9
ATOM      9  N   UNL     1       0.700   3.847   1.427  0.00  0.00    -0.296 N 
ATOM     10  H   UNL     1       0.716   3.079   0.836  0.00  0.00    +0.154 HD
BRANCH   9  11
ATOM     11  C   UNL     1       1.798   4.713   1.479  0.00  0.00    +0.036 A 
ATOM     12  C   UNL     1       1.604   6.087   1.410  0.00  0.00    +0.023 A 
ATOM     13  C   UNL     1       2.689   6.939   1.461  0.00  0.00    +0.002 A 
ATOM     14  C   UNL     1       3.968   6.426   1.580  0.00  0.00    +0.000 A 
ATOM     15  C   UNL     1       4.164   5.059   1.649  0.00  0.00    +0.006 A 
ATOM     16  C   UNL     1       3.083   4.202   1.605  0.00  0.00    -0.024 A 
BRANCH  16  17
ATOM     17  C   UNL     1       3.297   2.712   1.687  0.00  0.00    +0.015 C 
ATOM     18  C   UNL     1       4.271   2.276   0.591  0.00  0.00    +0.012 C 
ATOM     19  C   UNL     1       3.877   2.355   3.057  0.00  0.00    +0.012 C 
ENDBRANCH  16  17
ENDBRANCH   9  11
ENDBRANCH   7   9
ENDBRANCH   5   7
ENDBRANCH   3   5
BRANCH   1  20
ATOM     20  C   UNL     1      -2.203  -0.191   0.788  0.00  0.00    +0.165 C 
BRANCH  20  21
ATOM     21  N   UNL     1      -3.418  -0.977   1.012  0.00  0.00    -0.288 N 
ATOM     22  C   UNL     1      -3.364  -2.324   0.986  0.00  0.00    +0.298 C 
ATOM     23  O   UNL     1      -2.306  -2.885   0.776  0.00  0.00    -0.253 OA
ATOM     24  N   UNL     1      -4.482  -3.047   1.192  0.00  0.00    -0.313 N 
ATOM     25  H   UNL     1      -4.262  -0.529   1.180  0.00  0.00    +0.151 HD
ATOM     26  H   UNL     1      -5.326  -2.599   1.359  0.00  0.00    +0.146 HD
ATOM     27  H   UNL     1      -4.443  -4.016   1.173  0.00  0.00    +0.146 HD
ENDBRANCH  20  21
BRANCH  20  28
ATOM     28  C   UNL     1      -1.985  -0.006  -0.715  0.00  0.00    +0.015 C 
ATOM     29  C   UNL     1      -3.240   0.606  -1.341  0.00  0.00    +0.010 C 
BRANCH  28  31
ATOM     30  C   UNL     1      -0.375  -1.912  -0.837  0.00  0.00    +0.004 C 
ATOM     31  C   UNL     1      -1.704  -1.364  -1.360  0.00  0.00    +0.002 C 
ENDBRANCH  28  31
ENDBRANCH  20  28
ENDBRANCH   1  20
TORSDOF 9
