REMARK  Name = ZINC17063377
REMARK  10 active torsions:
REMARK  status: ('A' for Active; 'I' for Inactive)
REMARK    1  A    between atoms: C_1  and  C_2
REMARK    2  A    between atoms: C_2  and  C_8
REMARK    3  A    between atoms: N_3  and  N_4
REMARK    4  A    between atoms: N_4  and  C_5
REMARK    5  A    between atoms: C_5  and  N_7
REMARK    6  A    between atoms: C_10  and  C_14
REMARK    7  A    between atoms: C_14  and  C_20
REMARK    8  A    between atoms: N_15  and  N_16
REMARK    9  A    between atoms: N_16  and  C_17
REMARK   10  A    between atoms: C_17  and  N_19
REMARK                            x       y       z     vdW  Elec       q    Type
REMARK                         _______ _______ _______ _____ _____    ______ ____
ROOT
ATOM      1  C   UNL     1      -0.037  -0.955  -2.070  0.00  0.00    +0.087 A 
ATOM      2  N   UNL     1       0.537  -0.365  -3.112  0.00  0.00    -0.244 NA
ATOM      3  C   UNL     1       1.069  -1.071  -4.102  0.00  0.00    +0.087 A 
ATOM      4  C   UNL     1       1.040  -2.468  -4.075  0.00  0.00    +0.029 A 
ATOM      5  C   UNL     1       0.449  -3.114  -3.003  0.00  0.00    +0.004 A 
ATOM      6  C   UNL     1      -0.092  -2.349  -1.983  0.00  0.00    +0.029 A 
ENDROOT
BRANCH   1   8
ATOM      7  C   UNL     1      -0.406  -0.522   0.449  0.00  0.00    +0.069 C 
ATOM      8  C   UNL     1      -0.616  -0.133  -0.992  0.00  0.00    +0.081 C 
ATOM      9  N   UNL     1      -1.306   0.927  -1.284  0.00  0.00    -0.184 NA
BRANCH   9  10
ATOM     10  N   UNL     1      -1.611   1.218  -2.620  0.00  0.00    -0.218 N 
ATOM     11  H   UNL     1      -1.372   0.591  -3.320  0.00  0.00    +0.176 HD
BRANCH  10  12
ATOM     12  C   UNL     1      -2.237   2.370  -2.932  0.00  0.00    +0.147 C 
ATOM     13  S   UNL     1      -2.610   2.726  -4.565  0.00  0.00    -0.017 S 
BRANCH  12  14
ATOM     14  N   UNL     1      -2.570   3.242  -1.960  0.00  0.00    -0.339 N 
ATOM     15  H   UNL     1      -2.359   3.040  -1.035  0.00  0.00    +0.144 HD
ATOM     16  H   UNL     1      -3.020   4.071  -2.185  0.00  0.00    +0.144 HD
ENDBRANCH  12  14
ENDBRANCH  10  12
ENDBRANCH   9  10
ENDBRANCH   1   8
BRANCH   3  17
ATOM     17  C   UNL     1       1.697  -0.376  -5.240  0.00  0.00    +0.081 C 
ATOM     18  N   UNL     1       2.458   0.655  -5.031  0.00  0.00    -0.184 NA
ATOM     19  C   UNL     1       1.455  -0.861  -6.646  0.00  0.00    +0.069 C 
BRANCH  18  20
ATOM     20  N   UNL     1       2.806   1.015  -3.722  0.00  0.00    -0.218 N 
ATOM     21  H   UNL     1       2.515   0.469  -2.975  0.00  0.00    +0.176 HD
BRANCH  20  22
ATOM     22  C   UNL     1       3.544   2.121  -3.501  0.00  0.00    +0.147 C 
ATOM     23  S   UNL     1       3.969   2.561  -1.902  0.00  0.00    -0.017 S 
BRANCH  22  24
ATOM     24  N   UNL     1       3.948   2.880  -4.539  0.00  0.00    -0.339 N 
ATOM     25  H   UNL     1       3.707   2.631  -5.445  0.00  0.00    +0.144 HD
ATOM     26  H   UNL     1       4.479   3.676  -4.380  0.00  0.00    +0.144 HD
ENDBRANCH  22  24
ENDBRANCH  20  22
ENDBRANCH  18  20
ENDBRANCH   3  17
TORSDOF 8
