REMARK  Name = ZINC65008656
REMARK  13 active torsions:
REMARK  status: ('A' for Active; 'I' for Inactive)
REMARK    1  A    between atoms: C_1  and  C_2
REMARK    2  A    between atoms: C_2  and  C_3
REMARK    3  A    between atoms: C_2  and  C_4
REMARK    4  A    between atoms: C_2  and  C_5
REMARK    5  A    between atoms: C_8  and  O_31
REMARK    6  A    between atoms: C_9  and  S_11
REMARK    7  A    between atoms: S_11  and  N_14
REMARK    8  A    between atoms: N_14  and  C_15
REMARK    9  A    between atoms: C_15  and  C_16
REMARK   10  A    between atoms: C_16  and  C_17
REMARK   11  A    between atoms: C_19  and  C_22
REMARK   12  A    between atoms: C_25  and  N_28
REMARK   13  A    between atoms: O_31  and  C_32
REMARK                            x       y       z     vdW  Elec       q    Type
REMARK                         _______ _______ _______ _____ _____    ______ ____
ROOT
ATOM      1  N   UNL     1       5.247  -1.534  -2.833  0.00  0.00    -0.189 NA
ATOM      2  H   UNL     1       5.907  -1.661  -2.132  0.00  0.00    +0.148 HD
ENDROOT
BRANCH   1   3
ATOM      3  S   UNL     1       4.355  -0.140  -2.886  0.00  0.00    +0.062 S 
ATOM      4  O   UNL     1       4.427   0.337  -4.223  0.00  0.00    -0.153 OA
ATOM      5  O   UNL     1       4.763   0.646  -1.774  0.00  0.00    -0.153 OA
BRANCH   3  10
ATOM      6  C   UNL     1       0.707  -0.490  -1.238  0.00  0.00    -0.040 A 
ATOM      7  C   UNL     1       0.035  -1.285  -2.148  0.00  0.00    +0.008 A 
ATOM      8  C   UNL     1       0.679  -1.732  -3.285  0.00  0.00    +0.048 A 
ATOM      9  C   UNL     1       2.002  -1.383  -3.514  0.00  0.00    +0.146 A 
ATOM     10  C   UNL     1       2.675  -0.585  -2.599  0.00  0.00    +0.147 A 
ATOM     11  C   UNL     1       2.024  -0.136  -1.466  0.00  0.00    +0.036 A 
BRANCH   6  13
ATOM     12  C   UNL     1      -0.019   1.526   0.010  0.00  0.00    +0.015 C 
ATOM     13  C   UNL     1       0.002  -0.004   0.002  0.00  0.00    -0.013 C 
ATOM     14  C   UNL     1       0.742  -0.511   1.242  0.00  0.00    +0.015 C 
ATOM     15  C   UNL     1      -1.433  -0.534   0.013  0.00  0.00    +0.015 C 
ENDBRANCH   6  13
BRANCH   9  16
ATOM     16  O   UNL     1       2.639  -1.822  -4.631  0.00  0.00    -0.493 OA
ATOM     17  C   UNL     1       1.885  -2.639  -5.528  0.00  0.00    +0.277 C 
ENDBRANCH   9  16
ENDBRANCH   3  10
ENDBRANCH   1   3
BRANCH   1  18
ATOM     18  C   UNL     1       5.041  -2.575  -3.843  0.00  0.00    +0.112 C 
BRANCH  18  19
ATOM     19  C   UNL     1       6.209  -3.562  -3.804  0.00  0.00    +0.080 C 
BRANCH  19  20
ATOM     20  C   UNL     1       5.997  -4.633  -4.843  0.00  0.00    +0.080 A 
ATOM     21  N   UNL     1       6.391  -4.641  -6.089  0.00  0.00    -0.244 NA
ATOM     22  C   UNL     1       6.128  -5.664  -6.890  0.00  0.00    +0.078 A 
ATOM     23  C   UNL     1       5.424  -6.703  -6.341  0.00  0.00    +0.075 A 
ATOM     24  S   UNL     1       5.202  -6.106  -4.673  0.00  0.00    -0.080 S 
BRANCH  22  25
ATOM     25  C   UNL     1       6.571  -5.682  -8.305  0.00  0.00    +0.001 A 
ATOM     26  C   UNL     1       7.378  -4.658  -8.799  0.00  0.00    +0.012 A 
ATOM     27  C   UNL     1       7.787  -4.680 -10.117  0.00  0.00    +0.033 A 
ATOM     28  C   UNL     1       7.397  -5.715 -10.947  0.00  0.00    +0.126 A 
ATOM     29  C   UNL     1       6.596  -6.734 -10.463  0.00  0.00    +0.033 A 
ATOM     30  C   UNL     1       6.186  -6.726  -9.145  0.00  0.00    +0.012 A 
BRANCH  28  31
ATOM     31  N   UNL     1       7.839  -5.733 -12.360  0.00  0.00    +0.056 N 
ATOM     32  O   UNL     1       8.539  -4.844 -12.786  0.00  0.00    -0.126 OA
ATOM     33  O   UNL     1       7.500  -6.637 -13.088  0.00  0.00    -0.126 OA
ENDBRANCH  28  31
ENDBRANCH  22  25
ENDBRANCH  19  20
ENDBRANCH  18  19
ENDBRANCH   1  18
TORSDOF 9
