REMARK  Name = ZINC30975776
REMARK  11 active torsions:
REMARK  status: ('A' for Active; 'I' for Inactive)
REMARK    1  A    between atoms: C_1  and  C_2
REMARK    2  A    between atoms: C_2  and  C_3
REMARK    3  A    between atoms: C_3  and  C_5
REMARK    4  A    between atoms: C_3  and  N_6
REMARK    5  A    between atoms: C_7  and  C_9
REMARK    6  A    between atoms: C_14  and  N_15
REMARK    7  A    between atoms: C_16  and  C_18
REMARK    8  A    between atoms: N_21  and  C_24
REMARK    9  A    between atoms: C_24  and  C_25
REMARK   10  A    between atoms: C_27  and  C_30
REMARK   11  A    between atoms: C_33  and  C_36
REMARK                            x       y       z     vdW  Elec       q    Type
REMARK                         _______ _______ _______ _____ _____    ______ ____
ROOT
ATOM      1  C   UNL     1      -0.062   5.616   0.009  0.00  0.00    +0.072 C 
ATOM      2  C   UNL     1       0.800   6.231   1.116  0.00  0.00    -0.006 C 
ATOM      3  C   UNL     1       0.706   7.757   1.040  0.00  0.00    -0.077 C 
ATOM      4  N   UNL     1      -0.695   8.171   1.198  0.00  0.00    +0.386 N 
ATOM      5  C   UNL     1      -1.533   7.631   0.120  0.00  0.00    -0.077 C 
ATOM      6  C   UNL     1      -1.505   6.101   0.168  0.00  0.00    -0.006 C 
ATOM      7  H   UNL     1      -1.062   7.755   2.148  0.00  0.00    -0.081 HD
ENDROOT
BRANCH   1   9
ATOM      8  N   UNL     1       1.154   3.462   0.006  0.00  0.00    -0.285 N 
ATOM      9  C   UNL     1      -0.021   4.114   0.116  0.00  0.00    +0.220 C 
ATOM     10  O   UNL     1      -1.045   3.491   0.300  0.00  0.00    -0.275 OA
ATOM     11  H   UNL     1       2.092   4.030  -0.075  0.00  0.00    +0.155 HD
BRANCH   8  17
ATOM     12  C   UNL     1       2.244   1.379   0.590  0.00  0.00    +0.058 A 
ATOM     13  C   UNL     1       2.259  -0.018   0.571  0.00  0.00    +0.015 A 
ATOM     14  C   UNL     1       1.229  -0.707  -0.032  0.00  0.00    +0.001 A 
ATOM     15  C   UNL     1       0.178  -0.022  -0.620  0.00  0.00    +0.002 A 
ATOM     16  C   UNL     1       0.150   1.358  -0.609  0.00  0.00    +0.024 A 
ATOM     17  C   UNL     1       1.179   2.069  -0.006  0.00  0.00    +0.046 A 
BRANCH  12  19
ATOM     18  N   UNL     1       4.313   1.458   1.893  0.00  0.00    -0.309 N 
ATOM     19  C   UNL     1       3.344   2.123   1.234  0.00  0.00    +0.246 C 
ATOM     20  O   UNL     1       3.375   3.337   1.171  0.00  0.00    -0.270 OA
ATOM     21  H   UNL     1       4.284   0.359   1.951  0.00  0.00    +0.149 HD
BRANCH  18  22
ATOM     22  C   UNL     1       5.404   2.197   2.533  0.00  0.00    +0.070 C 
ATOM     23  C   UNL     1       4.967   2.646   3.928  0.00  0.00    +0.028 C 
BRANCH  22  25
ATOM     24  C   UNL     1       7.145   0.945   1.250  0.00  0.00    +0.005 C 
ATOM     25  C   UNL     1       6.633   1.292   2.650  0.00  0.00    +0.018 C 
ENDBRANCH  22  25
ENDBRANCH  18  22
ENDBRANCH  12  19
ENDBRANCH   8  17
ENDBRANCH   1   9
BRANCH   4  26
ATOM     26  C   UNL     1      -0.806   9.634   1.269  0.00  0.00    +0.022 C 
BRANCH  26  27
ATOM     27  C   UNL     1      -0.137  10.128   2.526  0.00  0.00    +0.211 A 
ATOM     28  N   UNL     1       1.119  10.478   2.652  0.00  0.00    -0.193 NA
ATOM     29  C   UNL     1       1.264  10.850   3.944  0.00  0.00    +0.202 A 
ATOM     30  N   UNL     1       0.099  10.705   4.521  0.00  0.00    -0.056 NA
ATOM     31  O   UNL     1      -0.715  10.297   3.719  0.00  0.00    -0.340 OA
BRANCH  29  32
ATOM     32  C   UNL     1       2.512  11.332   4.587  0.00  0.00    +0.022 A 
ATOM     33  C   UNL     1       3.687  11.430   3.846  0.00  0.00    +0.012 A 
ATOM     34  C   UNL     1       4.844  11.884   4.448  0.00  0.00    +0.004 A 
ATOM     35  C   UNL     1       4.839  12.230   5.787  0.00  0.00    -0.050 A 
ATOM     36  C   UNL     1       3.676  12.129   6.529  0.00  0.00    +0.004 A 
ATOM     37  C   UNL     1       2.513  11.682   5.936  0.00  0.00    +0.012 A 
ATOM     38  C   UNL     1       6.106  12.718   6.441  0.00  0.00    +0.044 C 
ENDBRANCH  29  32
ENDBRANCH  26  27
ENDBRANCH   4  26
TORSDOF 8
