REMARK  Name = ZINC51734161
REMARK  6 active torsions:
REMARK  status: ('A' for Active; 'I' for Inactive)
REMARK    1  A    between atoms: C_1  and  C_2
REMARK    2  A    between atoms: C_7  and  C_10
REMARK    3  A    between atoms: C_11  and  C_13
REMARK    4  A    between atoms: C_13  and  C_15
REMARK    5  A    between atoms: C_13  and  C_16
REMARK    6  A    between atoms: C_16  and  N_18
REMARK                            x       y       z     vdW  Elec       q    Type
REMARK                         _______ _______ _______ _____ _____    ______ ____
ROOT
ATOM      1  C   UNL     1      -0.133   1.632  -1.235  0.00  0.00    +0.007 C 
ATOM      2  C   UNL     1      -0.129   0.116  -1.027  0.00  0.00    -0.011 C 
ATOM      3  C   UNL     1       0.773  -0.540  -2.075  0.00  0.00    +0.022 C 
ATOM      4  C   UNL     1       0.747  -2.060  -1.885  0.00  0.00    +0.108 C 
ATOM      5  N   UNL     1       1.112  -2.370  -0.496  0.00  0.00    -0.298 N 
ATOM      6  C   UNL     1       0.366  -1.721   0.591  0.00  0.00    +0.073 C 
ATOM      7  C   UNL     1       0.397  -0.205   0.374  0.00  0.00    +0.025 C 
ATOM      8  C   UNL     1      -1.082  -2.214   0.586  0.00  0.00    +0.028 C 
ATOM      9  C   UNL     1       2.111  -3.233  -0.225  0.00  0.00    +0.225 C 
ATOM     10  O   UNL     1       2.463  -3.410   0.922  0.00  0.00    -0.275 OA
ENDROOT
BRANCH   9  11
ATOM     11  C   UNL     1       2.789  -3.977  -1.346  0.00  0.00    +0.123 C 
ATOM     12  C   UNL     1       4.173  -4.441  -0.886  0.00  0.00    +0.024 C 
BRANCH  11  13
ATOM     13  C   UNL     1       1.959  -5.175  -1.729  0.00  0.00    +0.058 C 
ATOM     14  S   UNL     1       0.846  -5.730  -0.724  0.00  0.00    -0.040 S 
BRANCH  13  15
ATOM     15  N   UNL     1       2.155  -5.778  -2.918  0.00  0.00    -0.355 N 
ATOM     16  H   UNL     1       2.830  -5.441  -3.527  0.00  0.00    +0.143 HD
ATOM     17  H   UNL     1       1.621  -6.549  -3.164  0.00  0.00    +0.143 HD
ENDBRANCH  13  15
ENDBRANCH  11  13
ENDBRANCH   9  11
TORSDOF 3
