REMARK  Name = ZINC09577923
REMARK  13 active torsions:
REMARK  status: ('A' for Active; 'I' for Inactive)
REMARK    1  A    between atoms: C_1  and  C_2
REMARK    2  A    between atoms: C_2  and  C_3
REMARK    3  A    between atoms: N_5  and  C_33
REMARK    4  A    between atoms: C_9  and  S_11
REMARK    5  A    between atoms: S_11  and  C_12
REMARK    6  A    between atoms: C_12  and  C_14
REMARK    7  A    between atoms: C_12  and  C_15
REMARK    8  A    between atoms: N_17  and  C_18
REMARK    9  A    between atoms: C_20  and  C_29
REMARK   10  A    between atoms: N_22  and  C_23
REMARK   11  A    between atoms: C_29  and  C_30
REMARK   12  A    between atoms: C_29  and  C_31
REMARK   13  A    between atoms: C_29  and  C_32
REMARK                            x       y       z     vdW  Elec       q    Type
REMARK                         _______ _______ _______ _____ _____    ______ ____
ROOT
ATOM      1  C   UNL     1       5.426  -2.157   0.304  0.00  0.00    +0.231 C 
ATOM      2  O   UNL     1       5.168  -3.193  -0.271  0.00  0.00    -0.274 OA
ATOM      3  N   UNL     1       6.568  -2.045   1.011  0.00  0.00    -0.269 N 
ATOM      4  H   UNL     1       6.775  -1.216   1.470  0.00  0.00    +0.156 HD
ENDROOT
BRANCH   3   5
ATOM      5  C   UNL     1       7.453  -3.120   1.081  0.00  0.00    +0.129 A 
ATOM      6  C   UNL     1       7.289  -4.338   0.494  0.00  0.00    +0.069 A 
ATOM      7  C   UNL     1       8.403  -5.120   0.811  0.00  0.00    +0.071 A 
ATOM      8  N   UNL     1       9.206  -4.413   1.565  0.00  0.00    -0.169 NA
ATOM      9  N   UNL     1       8.636  -3.148   1.754  0.00  0.00    -0.218 N 
BRANCH   9  10
ATOM     10  C   UNL     1       9.184  -2.098   2.502  0.00  0.00    +0.067 A 
ATOM     11  C   UNL     1       9.009  -0.784   2.090  0.00  0.00    +0.028 A 
ATOM     12  C   UNL     1       9.547   0.249   2.832  0.00  0.00    +0.002 A 
ATOM     13  C   UNL     1      10.269  -0.025   3.980  0.00  0.00    +0.000 A 
ATOM     14  C   UNL     1      10.449  -1.333   4.390  0.00  0.00    +0.002 A 
ATOM     15  C   UNL     1       9.909  -2.370   3.655  0.00  0.00    +0.028 A 
ENDBRANCH   9  10
BRANCH   7  16
ATOM     16  C   UNL     1       8.637  -6.540   0.364  0.00  0.00    +0.006 C 
ATOM     17  C   UNL     1       9.050  -6.550  -1.109  0.00  0.00    +0.017 C 
ATOM     18  C   UNL     1       9.750  -7.164   1.209  0.00  0.00    +0.017 C 
ATOM     19  C   UNL     1       7.350  -7.349   0.539  0.00  0.00    +0.017 C 
ENDBRANCH   7  16
ENDBRANCH   3   5
BRANCH   1  20
ATOM     20  C   UNL     1       4.470  -0.995   0.228  0.00  0.00    +0.136 C 
ATOM     21  C   UNL     1       4.901  -0.052  -0.897  0.00  0.00    +0.029 C 
BRANCH  20  22
ATOM     22  S   UNL     1       2.796  -1.609  -0.106  0.00  0.00    -0.084 S 
BRANCH  22  29
ATOM     23  C   UNL     1      -2.357   2.194  -0.101  0.00  0.00    +0.221 C 
ATOM     24  O   UNL     1      -2.550   1.001  -0.198  0.00  0.00    -0.275 OA
ATOM     25  N   UNL     1      -1.101   2.667   0.022  0.00  0.00    -0.246 N 
ATOM     26  C   UNL     1      -0.024   1.784   0.038  0.00  0.00    +0.191 A 
ATOM     27  N   UNL     1       1.261   2.015   0.256  0.00  0.00    -0.125 NA
ATOM     28  N   UNL     1       2.119   1.091   0.230  0.00  0.00    -0.133 NA
ATOM     29  C   UNL     1       1.787  -0.168  -0.018  0.00  0.00    +0.161 A 
ATOM     30  S   UNL     1       0.019   0.016  -0.238  0.00  0.00    -0.024 S 
BRANCH  25  31
ATOM     31  C   UNL     1      -0.869   4.109   0.139  0.00  0.00    +0.084 C 
ATOM     32  C   UNL     1       0.559   4.614  -0.074  0.00  0.00    +0.025 C 
ATOM     33  C   UNL     1      -0.045   4.597   1.333  0.00  0.00    +0.025 C 
ENDBRANCH  25  31
BRANCH  23  35
ATOM     34  C   UNL     1      -4.826   2.361  -0.268  0.00  0.00    +0.013 C 
ATOM     35  C   UNL     1      -3.523   3.149  -0.119  0.00  0.00    +0.093 C 
ENDBRANCH  23  35
ENDBRANCH  22  29
ENDBRANCH  20  22
ENDBRANCH   1  20
TORSDOF 8
