REMARK  Name = ZINC62826954
REMARK  8 active torsions:
REMARK  status: ('A' for Active; 'I' for Inactive)
REMARK    1  A    between atoms: C_1  and  S_2
REMARK    2  A    between atoms: S_2  and  C_3
REMARK    3  A    between atoms: C_3  and  C_4
REMARK    4  A    between atoms: C_4  and  C_5
REMARK    5  A    between atoms: C_5  and  C_7
REMARK    6  A    between atoms: C_5  and  N_20
REMARK    7  A    between atoms: N_9  and  C_10
REMARK    8  A    between atoms: C_11  and  C_17
REMARK                            x       y       z     vdW  Elec       q    Type
REMARK                         _______ _______ _______ _____ _____    ______ ____
ROOT
ATOM      1  C   UNL     1       1.710  -3.790  -2.428  0.00  0.00    +0.203 C 
ATOM      2  O   UNL     1       0.719  -4.475  -2.565  0.00  0.00    -0.277 OA
ATOM      3  N   UNL     1       2.925  -4.368  -2.364  0.00  0.00    -0.285 N 
ATOM      4  H   UNL     1       3.724  -3.817  -2.334  0.00  0.00    +0.155 HD
ENDROOT
BRANCH   3   5
ATOM      5  C   UNL     1       3.036  -5.755  -2.340  0.00  0.00    +0.062 A 
ATOM      6  C   UNL     1       3.763  -6.388  -1.319  0.00  0.00    +0.085 A 
ATOM      7  C   UNL     1       3.866  -7.783  -1.307  0.00  0.00    +0.017 A 
ATOM      8  C   UNL     1       3.255  -8.525  -2.294  0.00  0.00    +0.002 A 
ATOM      9  C   UNL     1       2.539  -7.897  -3.301  0.00  0.00    +0.017 A 
ATOM     10  C   UNL     1       2.423  -6.521  -3.323  0.00  0.00    +0.040 A 
ATOM     11 BR   UNL     1       1.435  -5.679  -4.698  0.00  0.00    -0.048 Br
BRANCH   6  12
ATOM     12  C   UNL     1       4.413  -5.589  -0.268  0.00  0.00    +0.388 C 
ATOM     13  O   UNL     1       5.130  -6.135   0.560  0.00  0.00    -0.241 OA
ATOM     14  O   UNL     1       4.236  -4.380  -0.222  0.00  0.00    -0.241 OA
ENDBRANCH   6  12
ENDBRANCH   3   5
BRANCH   1  15
ATOM     15  C   UNL     1       1.582  -2.291  -2.328  0.00  0.00    +0.014 C 
BRANCH  15  16
ATOM     16  N   UNL     1       0.290  -1.872  -2.888  0.00  0.00    +0.386 N 
ATOM     17  H   UNL     1      -0.458  -2.308  -2.370  0.00  0.00    -0.089 HD
ATOM     18  H   UNL     1       0.204  -0.869  -2.821  0.00  0.00    -0.089 HD
ATOM     19  H   UNL     1       0.236  -2.151  -3.856  0.00  0.00    -0.089 HD
ENDBRANCH  15  16
BRANCH  15  20
ATOM     20  C   UNL     1       1.663  -1.869  -0.860  0.00  0.00    +0.003 C 
BRANCH  20  21
ATOM     21  C   UNL     1       1.659  -0.342  -0.768  0.00  0.00    +0.068 C 
BRANCH  21  23
ATOM     22  C   UNL     1       1.740   1.972   0.909  0.00  0.00    +0.084 C 
ATOM     23  S   UNL     1       1.755   0.159   0.973  0.00  0.00    -0.164 S 
ENDBRANCH  21  23
ENDBRANCH  20  21
ENDBRANCH  15  20
ENDBRANCH   1  15
TORSDOF 7
