REMARK  Name = ZINC39727274
REMARK  12 active torsions:
REMARK  status: ('A' for Active; 'I' for Inactive)
REMARK    1  A    between atoms: C_1  and  C_2
REMARK    2  A    between atoms: C_3  and  C_33
REMARK    3  A    between atoms: C_4  and  C_32
REMARK    4  A    between atoms: C_7  and  C_8
REMARK    5  A    between atoms: C_8  and  C_10
REMARK    6  A    between atoms: C_10  and  C_12
REMARK    7  A    between atoms: C_10  and  N_13
REMARK    8  A    between atoms: N_13  and  C_14
REMARK    9  A    between atoms: C_14  and  C_15
REMARK   10  A    between atoms: C_15  and  C_17
REMARK   11  A    between atoms: C_15  and  C_23
REMARK   12  A    between atoms: C_33  and  C_35
REMARK                            x       y       z     vdW  Elec       q    Type
REMARK                         _______ _______ _______ _____ _____    ______ ____
ROOT
ATOM      1  N   UNL     1      -0.266  -1.494   4.845  0.00  0.00    +0.386 N 
ATOM      2  H   UNL     1       0.568  -0.933   4.926  0.00  0.00    -0.085 HD
ATOM      3  H   UNL     1      -1.072  -0.938   5.088  0.00  0.00    -0.085 HD
ENDROOT
BRANCH   1   4
ATOM      4  C   UNL     1      -0.401  -1.972   3.462  0.00  0.00    -0.001 C 
ATOM      5  C   UNL     1      -1.727  -2.719   3.307  0.00  0.00    -0.006 C 
BRANCH   4   6
ATOM      6  C   UNL     1      -0.372  -0.797   2.519  0.00  0.00    +0.165 C 
ATOM      7  O   UNL     1      -0.526   0.329   2.947  0.00  0.00    -0.292 OA
BRANCH   6  14
ATOM      8  C   UNL     1      -0.275   1.458   0.383  0.00  0.00    +0.047 C 
ATOM      9  C   UNL     1      -0.118  -0.026   0.167  0.00  0.00    -0.012 A 
ATOM     10  C   UNL     1       0.112  -0.678  -1.065  0.00  0.00    +0.041 A 
ATOM     11  C   UNL     1       0.189  -2.038  -0.799  0.00  0.00    +0.024 A 
ATOM     12  N   UNL     1       0.018  -2.227   0.517  0.00  0.00    -0.355 N 
ATOM     13  H   UNL     1       0.027  -3.086   0.966  0.00  0.00    +0.166 HD
ATOM     14  C   UNL     1      -0.167  -1.006   1.134  0.00  0.00    +0.084 A 
ATOM     15  C   UNL     1       0.425  -3.121  -1.819  0.00  0.00    +0.064 C 
BRANCH  10  16
ATOM     16  C   UNL     1       0.243  -0.039  -2.379  0.00  0.00    +0.162 C 
ATOM     17  O   UNL     1      -0.745   0.181  -3.048  0.00  0.00    -0.292 OA
ATOM     18  C   UNL     1       1.605   0.344  -2.897  0.00  0.00    +0.091 C 
ENDBRANCH  10  16
ENDBRANCH   6  14
ENDBRANCH   4   6
ENDBRANCH   1   4
BRANCH   1  19
ATOM     19  C   UNL     1      -0.173  -2.644   5.753  0.00  0.00    -0.072 C 
BRANCH  19  20
ATOM     20  C   UNL     1      -0.033  -2.147   7.193  0.00  0.00    +0.018 C 
BRANCH  20  21
ATOM     21  C   UNL     1       0.185  -3.321   8.112  0.00  0.00    -0.020 A 
ATOM     22  C   UNL     1       1.347  -3.548   8.976  0.00  0.00    +0.003 A 
ATOM     23  C   UNL     1       2.523  -2.840   9.225  0.00  0.00    +0.010 A 
ATOM     24  C   UNL     1       3.436  -3.332  10.115  0.00  0.00    +0.001 A 
ATOM     25  C   UNL     1       3.203  -4.532  10.773  0.00  0.00    +0.002 A 
ATOM     26  C   UNL     1       2.048  -5.247  10.541  0.00  0.00    +0.026 A 
ATOM     27  C   UNL     1       1.105  -4.764   9.640  0.00  0.00    +0.047 A 
ATOM     28  N   UNL     1      -0.115  -5.231   9.204  0.00  0.00    -0.360 N 
ATOM     29  C   UNL     1      -0.650  -4.355   8.298  0.00  0.00    +0.087 A 
ATOM     30  H   UNL     1      -0.534  -6.055   9.497  0.00  0.00    +0.165 HD
ENDBRANCH  20  21
BRANCH  20  31
ATOM     31  C   UNL     1      -1.308  -1.408   7.604  0.00  0.00    +0.060 C 
ATOM     32  C   UNL     1      -1.212  -0.871   9.057  0.00  0.00    +0.042 C 
ATOM     33  C   UNL     1      -2.521  -1.020   9.764  0.00  0.00    -0.019 C 
ATOM     34  C   UNL     1      -3.430  -1.852   9.294  0.00  0.00    +0.036 C 
ATOM     35  S   UNL     1      -2.722  -2.570   7.822  0.00  0.00    -0.129 S 
ENDBRANCH  20  31
ENDBRANCH  19  20
ENDBRANCH   1  19
TORSDOF 8
