REMARK  Name = ZINC55887950
REMARK  6 active torsions:
REMARK  status: ('A' for Active; 'I' for Inactive)
REMARK    1  A    between atoms: C_4  and  N_24
REMARK    2  A    between atoms: C_5  and  N_7
REMARK    3  A    between atoms: N_7  and  C_8
REMARK    4  A    between atoms: C_8  and  C_9
REMARK    5  A    between atoms: N_11  and  N_12
REMARK    6  A    between atoms: C_27  and  O_30
REMARK                            x       y       z     vdW  Elec       q    Type
REMARK                         _______ _______ _______ _____ _____    ______ ____
ROOT
ATOM      1  C   UNL     1      -0.151  -2.781  -0.090  0.00  0.00    +0.199 C 
ENDROOT
BRANCH   1   2
ATOM      2  C   UNL     1       0.090  -4.268  -0.068  0.00  0.00    +0.247 C 
ATOM      3  O   UNL     1       1.221  -4.698   0.014  0.00  0.00    -0.273 OA
ATOM      4  N   UNL     1      -0.951  -5.121  -0.139  0.00  0.00    -0.222 N 
ATOM      5  H   UNL     1      -1.856  -4.777  -0.205  0.00  0.00    +0.174 HD
BRANCH   4   6
ATOM      6  N   UNL     1      -0.727  -6.504  -0.119  0.00  0.00    -0.137 N 
ATOM      7  C   UNL     1      -0.808  -7.301  -1.204  0.00  0.00    +0.263 C 
ATOM      8  O   UNL     1      -1.078  -6.971  -2.339  0.00  0.00    -0.271 OA
ATOM      9  C   UNL     1      -0.490  -8.693  -0.707  0.00  0.00    +0.114 C 
ATOM     10  C   UNL     1       0.756  -9.233  -1.399  0.00  0.00    +0.035 C 
ATOM     11  C   UNL     1       1.078 -10.630  -0.860  0.00  0.00    +0.003 C 
ATOM     12  C   UNL     1      -0.111 -11.559  -1.114  0.00  0.00    +0.000 C 
ATOM     13  C   UNL     1      -1.347 -11.017  -0.394  0.00  0.00    +0.003 C 
ATOM     14  C   UNL     1      -1.678  -9.622  -0.931  0.00  0.00    +0.035 C 
ATOM     15  N   UNL     1      -0.243  -8.511   0.729  0.00  0.00    -0.284 N 
ATOM     16  C   UNL     1      -0.400  -7.197   0.979  0.00  0.00    +0.326 C 
ATOM     17  O   UNL     1      -0.263  -6.697   2.078  0.00  0.00    -0.251 OA
ATOM     18  H   UNL     1      -0.010  -9.200   1.371  0.00  0.00    +0.151 HD
ENDBRANCH   4   6
ENDBRANCH   1   2
BRANCH   1  19
ATOM     19  N   UNL     1       1.131  -2.077  -0.001  0.00  0.00    -0.334 N 
ATOM     20  H   UNL     1       1.957  -2.580   0.060  0.00  0.00    +0.147 HD
BRANCH  19  25
ATOM     21  C   UNL     1       0.011   1.423   0.026  0.00  0.00    +0.002 A 
ATOM     22  C   UNL     1       1.224   2.086  -0.008  0.00  0.00    +0.002 A 
ATOM     23  C   UNL     1       2.406   1.369  -0.040  0.00  0.00    +0.023 A 
ATOM     24  C   UNL     1       2.379  -0.012  -0.037  0.00  0.00    +0.035 A 
ATOM     25  C   UNL     1       1.162  -0.680  -0.003  0.00  0.00    +0.047 A 
ATOM     26  C   UNL     1      -0.024   0.043   0.028  0.00  0.00    +0.025 A 
BRANCH  24  27
ATOM     27  N   UNL     1       3.574  -0.735  -0.070  0.00  0.00    -0.392 NA
ATOM     28  C   UNL     1       4.261  -0.486  -1.343  0.00  0.00    +0.087 C 
ATOM     29  C   UNL     1       5.530  -1.338  -1.418  0.00  0.00    +0.048 C 
ATOM     30  C   UNL     1       6.456  -0.968  -0.256  0.00  0.00    +0.117 C 
ATOM     31  C   UNL     1       5.704  -1.162   1.065  0.00  0.00    +0.048 C 
ATOM     32  C   UNL     1       4.429  -0.317   1.048  0.00  0.00    +0.087 C 
ATOM     33  H   UNL     1       3.372  -1.720   0.013  0.00  0.00    +0.126 HD
BRANCH  30  34
ATOM     34  O   UNL     1       7.609  -1.812  -0.277  0.00  0.00    -0.392 OA
ATOM     35  H   UNL     1       8.240  -1.633   0.434  0.00  0.00    +0.210 HD
ENDBRANCH  30  34
ENDBRANCH  24  27
ENDBRANCH  19  25
ENDBRANCH   1  19
TORSDOF 6
