REMARK  Name = ZINC44767687
REMARK  3 active torsions:
REMARK  status: ('A' for Active; 'I' for Inactive)
REMARK    1  A    between atoms: C_8  and  C_10
REMARK    2  A    between atoms: C_10  and  C_15
REMARK    3  A    between atoms: C_15  and  N_17
REMARK                            x       y       z     vdW  Elec       q    Type
REMARK                         _______ _______ _______ _____ _____    ______ ____
ROOT
ATOM      1  C   UNL     1      -1.036   0.177   3.967  0.00  0.00    +0.091 C 
ATOM      2  C   UNL     1      -1.365   0.638   5.397  0.00  0.00    +0.023 C 
ATOM      3  C   UNL     1      -1.676  -0.635   6.210  0.00  0.00    +0.001 C 
ATOM      4  C   UNL     1      -0.948  -1.765   5.440  0.00  0.00    +0.001 C 
ATOM      5  C   UNL     1      -1.159  -1.361   3.960  0.00  0.00    +0.023 C 
ENDROOT
BRANCH   1  13
ATOM      6  C   UNL     1       0.069   1.284  -0.033  0.00  0.00    +0.002 C 
ATOM      7  C   UNL     1       1.477   1.871  -0.031  0.00  0.00    +0.002 C 
ATOM      8  C   UNL     1       2.045   2.079   1.310  0.00  0.00    +0.019 C 
ATOM      9  C   UNL     1       2.194   0.724   2.046  0.00  0.00    +0.108 C 
ATOM     10  N   UNL     1       0.887   0.225   2.412  0.00  0.00    -0.301 N 
ATOM     11  C   UNL     1       0.098  -0.662   1.535  0.00  0.00    +0.108 C 
ATOM     12  C   UNL     1       0.154  -0.219   0.061  0.00  0.00    +0.019 C 
ATOM     13  C   UNL     1       0.368   0.584   3.603  0.00  0.00    +0.228 C 
ATOM     14  O   UNL     1       1.032   1.235   4.382  0.00  0.00    -0.275 OA
ENDBRANCH   1  13
BRANCH   1  15
ATOM     15  C   UNL     1      -2.016   0.777   2.992  0.00  0.00    +0.061 C 
ATOM     16  S   UNL     1      -3.079  -0.157   2.249  0.00  0.00    -0.040 S 
BRANCH  15  17
ATOM     17  N   UNL     1      -1.996   2.103   2.746  0.00  0.00    -0.355 N 
ATOM     18  H   UNL     1      -1.401   2.680   3.249  0.00  0.00    +0.143 HD
ATOM     19  H   UNL     1      -2.577   2.479   2.066  0.00  0.00    +0.143 HD
ENDBRANCH  15  17
ENDBRANCH   1  15
TORSDOF 3
