REMARK  Name = ZINC09236393
REMARK  4 active torsions:
REMARK  status: ('A' for Active; 'I' for Inactive)
REMARK    1  A    between atoms: C_4  and  C_7
REMARK    2  A    between atoms: C_7  and  C_8
REMARK    3  A    between atoms: N_11  and  C_14
REMARK    4  A    between atoms: C_17  and  N_20
REMARK                            x       y       z     vdW  Elec       q    Type
REMARK                         _______ _______ _______ _____ _____    ______ ____
ROOT
ATOM      1  C   UNL     1       7.210  -0.503   4.198  0.00  0.00    +0.030 A 
ATOM      2  C   UNL     1       7.369   0.749   4.777  0.00  0.00    +0.025 A 
ATOM      3  C   UNL     1       8.543   1.063   5.433  0.00  0.00    +0.025 A 
ATOM      4  C   UNL     1       9.565   0.126   5.513  0.00  0.00    +0.036 A 
ATOM      5  C   UNL     1       9.406  -1.126   4.934  0.00  0.00    +0.025 A 
ATOM      6  C   UNL     1       8.230  -1.441   4.283  0.00  0.00    +0.025 A 
ENDROOT
BRANCH   4   7
ATOM      7  N   UNL     1      10.757   0.445   6.177  0.00  0.00    -0.276 N 
ATOM      8  C   UNL     1      12.014   0.548   5.503  0.00  0.00    +0.116 C 
ATOM      9  C   UNL     1      12.167   0.583   3.992  0.00  0.00    +0.190 C 
ATOM     10  S   UNL     1      13.928   1.139   3.855  0.00  0.00    -0.028 S 
ATOM     11  O   UNL     1      14.733   0.038   3.457  0.00  0.00    -0.174 OA
ATOM     12  O   UNL     1      13.977   2.348   3.110  0.00  0.00    -0.174 OA
ATOM     13  C   UNL     1      14.257   1.515   5.642  0.00  0.00    +0.182 C 
ATOM     14  C   UNL     1      12.801   1.785   6.080  0.00  0.00    +0.097 C 
ATOM     15  S   UNL     1      12.459   1.363   7.833  0.00  0.00    -0.086 S 
ATOM     16  C   UNL     1      10.812   0.695   7.558  0.00  0.00    +0.133 C 
ATOM     17  N   UNL     1       9.878   0.487   8.444  0.00  0.00    -0.381 N 
ATOM     18  H   UNL     1       9.052   0.050   8.185  0.00  0.00    +0.158 HD
ATOM     19  H   UNL     1      10.010   0.769   9.363  0.00  0.00    +0.158 HD
ENDBRANCH   4   7
BRANCH   1  23
ATOM     20  C   UNL     1       4.167  -0.952   1.402  0.00  0.00    -0.004 C 
ATOM     21  C   UNL     1       4.453   0.380   2.100  0.00  0.00    +0.023 C 
ATOM     22  C   UNL     1       4.885   0.111   3.545  0.00  0.00    +0.105 C 
ATOM     23  N   UNL     1       6.020  -0.821   3.534  0.00  0.00    -0.330 N 
ATOM     24  C   UNL     1       5.882  -2.094   2.813  0.00  0.00    +0.105 C 
ATOM     25  C   UNL     1       5.440  -1.800   1.376  0.00  0.00    +0.023 C 
BRANCH  20  26
ATOM     26  C   UNL     1       3.702  -0.686  -0.032  0.00  0.00    +0.038 C 
BRANCH  26  30
ATOM     27  C   UNL     1      -0.034   1.384   0.041  0.00  0.00    +0.000 A 
ATOM     28  C   UNL     1       1.151   2.096   0.036  0.00  0.00    +0.000 A 
ATOM     29  C   UNL     1       2.360   1.426   0.013  0.00  0.00    +0.003 A 
ATOM     30  C   UNL     1       2.384   0.044  -0.005  0.00  0.00    -0.047 A 
ATOM     31  C   UNL     1       1.200  -0.668  -0.000  0.00  0.00    +0.003 A 
ATOM     32  C   UNL     1      -0.009   0.002   0.022  0.00  0.00    +0.000 A 
ENDBRANCH  26  30
ENDBRANCH  20  26
ENDBRANCH   1  23
TORSDOF 4
