REMARK  Name = ZINC35245282
REMARK  9 active torsions:
REMARK  status: ('A' for Active; 'I' for Inactive)
REMARK    1  A    between atoms: C_1  and  O_2
REMARK    2  A    between atoms: O_2  and  C_3
REMARK    3  A    between atoms: C_6  and  C_9
REMARK    4  A    between atoms: C_23  and  C_25
REMARK    5  A    between atoms: C_25  and  N_26
REMARK    6  A    between atoms: N_26  and  C_27
REMARK    7  A    between atoms: C_30  and  C_32
REMARK    8  A    between atoms: C_32  and  S_33
REMARK    9  A    between atoms: S_33  and  C_34
REMARK                            x       y       z     vdW  Elec       q    Type
REMARK                         _______ _______ _______ _____ _____    ______ ____
ROOT
ATOM      1  C   UNL     1      -4.995  -2.639   0.041  0.00  0.00    +0.159 C 
ATOM      2  C   UNL     1      -5.311  -3.124   1.434  0.00  0.00    +0.049 A 
ATOM      3  C   UNL     1      -5.887  -2.476   2.452  0.00  0.00    +0.025 A 
ATOM      4  C   UNL     1      -5.950  -3.373   3.542  0.00  0.00    +0.020 A 
ATOM      5  C   UNL     1      -5.407  -4.543   3.139  0.00  0.00    +0.092 A 
ATOM      6  N   UNL     1      -5.015  -4.405   1.849  0.00  0.00    -0.316 N 
ATOM      7  C   UNL     1      -4.410  -5.328   0.984  0.00  0.00    +0.068 A 
ATOM      8  C   UNL     1      -3.876  -6.516   1.443  0.00  0.00    +0.028 A 
ATOM      9  C   UNL     1      -3.281  -7.391   0.552  0.00  0.00    +0.002 A 
ATOM     10  C   UNL     1      -3.221  -7.077  -0.794  0.00  0.00    +0.002 A 
ATOM     11  C   UNL     1      -3.757  -5.892  -1.261  0.00  0.00    +0.025 A 
ATOM     12  C   UNL     1      -4.361  -5.010  -0.378  0.00  0.00    +0.061 A 
ATOM     13  N   UNL     1      -4.930  -3.815  -0.842  0.00  0.00    -0.255 N 
ATOM     14  C   UNL     1      -5.419  -3.744  -2.096  0.00  0.00    +0.238 C 
ATOM     15  O   UNL     1      -5.294  -4.685  -2.850  0.00  0.00    -0.273 OA
ENDROOT
BRANCH   1  19
ATOM     16  C   UNL     1      -1.232  -0.613   0.033  0.00  0.00    +0.120 A 
ATOM     17  C   UNL     1      -2.413   0.115   0.044  0.00  0.00    +0.046 A 
ATOM     18  C   UNL     1      -3.628  -0.542   0.046  0.00  0.00    +0.009 A 
ATOM     19  C   UNL     1      -3.668  -1.924   0.038  0.00  0.00    -0.021 A 
ATOM     20  C   UNL     1      -2.492  -2.652   0.028  0.00  0.00    +0.009 A 
ATOM     21  C   UNL     1      -1.275  -2.000   0.019  0.00  0.00    +0.046 A 
BRANCH  16  23
ATOM     22  C   UNL     1      -0.067   1.459   0.046  0.00  0.00    +0.277 C 
ATOM     23  O   UNL     1      -0.035   0.031   0.031  0.00  0.00    -0.495 OA
ENDBRANCH  16  23
ENDBRANCH   1  19
BRANCH  14  24
ATOM     24  C   UNL     1      -6.122  -2.494  -2.560  0.00  0.00    +0.204 C 
BRANCH  24  25
ATOM     25  N   UNL     1      -6.663  -2.710  -3.904  0.00  0.00    -0.289 N 
ATOM     26  C   UNL     1      -5.915  -2.420  -4.987  0.00  0.00    +0.226 C 
ATOM     27  O   UNL     1      -4.829  -1.896  -4.851  0.00  0.00    -0.275 OA
BRANCH  25  28
ATOM     28  C   UNL     1      -8.019  -3.240  -4.072  0.00  0.00    +0.077 C 
ATOM     29  C   UNL     1      -8.931  -3.249  -2.843  0.00  0.00    +0.024 C 
ATOM     30  C   UNL     1      -8.351  -4.561  -3.377  0.00  0.00    +0.024 C 
ENDBRANCH  25  28
BRANCH  26  31
ATOM     31  C   UNL     1      -6.426  -2.747  -6.366  0.00  0.00    +0.170 C 
BRANCH  31  32
ATOM     32  S   UNL     1      -5.140  -2.377  -7.591  0.00  0.00    -0.116 S 
BRANCH  32  33
ATOM     33  C   UNL     1      -5.881  -2.807  -9.131  0.00  0.00    +0.008 A 
ATOM     34  C   UNL     1      -7.181  -3.298  -9.165  0.00  0.00    +0.015 A 
ATOM     35  C   UNL     1      -7.759  -3.634 -10.373  0.00  0.00    +0.001 A 
ATOM     36  C   UNL     1      -7.046  -3.483 -11.548  0.00  0.00    +0.000 A 
ATOM     37  C   UNL     1      -5.752  -2.995 -11.518  0.00  0.00    +0.001 A 
ATOM     38  C   UNL     1      -5.170  -2.652 -10.314  0.00  0.00    +0.015 A 
ENDBRANCH  32  33
ENDBRANCH  31  32
ENDBRANCH  26  31
ENDBRANCH  24  25
ENDBRANCH  14  24
TORSDOF 8
