REMARK  Name = ZINC06405573
REMARK  10 active torsions:
REMARK  status: ('A' for Active; 'I' for Inactive)
REMARK    1  A    between atoms: C_1  and  C_2
REMARK    2  A    between atoms: C_5  and  C_40
REMARK    3  A    between atoms: C_9  and  C_14
REMARK    4  A    between atoms: C_14  and  C_16
REMARK    5  A    between atoms: C_14  and  N_74
REMARK    6  A    between atoms: N_20  and  C_21
REMARK    7  A    between atoms: C_27  and  C_28
REMARK    8  A    between atoms: C_27  and  N_74
REMARK    9  A    between atoms: C_33  and  C_34
REMARK   10  A    between atoms: C_33  and  N_74
REMARK                            x       y       z     vdW  Elec       q    Type
REMARK                         _______ _______ _______ _____ _____    ______ ____
ROOT
ATOM      1  C   UNL     1      -1.647  -0.399  -0.757  0.00  0.00    +0.039 C 
ENDROOT
BRANCH   1  10
ATOM      2  C   UNL     1       0.456  -4.109   2.231  0.00  0.00    +0.044 C 
ATOM      3  C   UNL     1      -0.359  -3.217   3.132  0.00  0.00    -0.041 A 
ATOM      4  C   UNL     1      -0.428  -3.475   4.472  0.00  0.00    +0.004 A 
ATOM      5  C   UNL     1      -1.176  -2.660   5.310  0.00  0.00    +0.005 A 
ATOM      6  C   UNL     1      -1.863  -1.575   4.808  0.00  0.00    -0.026 A 
ATOM      7  C   UNL     1      -1.807  -1.293   3.447  0.00  0.00    +0.052 A 
ATOM      8  C   UNL     1      -1.047  -2.122   2.600  0.00  0.00    +0.002 A 
ATOM      9  C   UNL     1      -0.999  -1.820   1.168  0.00  0.00    +0.018 A 
ATOM     10  C   UNL     1      -1.681  -0.741   0.710  0.00  0.00    +0.011 A 
ATOM     11  C   UNL     1      -2.428   0.059   1.602  0.00  0.00    +0.251 A 
ATOM     12  O   UNL     1      -3.038   1.020   1.169  0.00  0.00    -0.268 OA
ATOM     13  N   UNL     1      -2.483  -0.214   2.917  0.00  0.00    -0.322 N 
ATOM     14  H   UNL     1      -3.006   0.356   3.502  0.00  0.00    +0.169 HD
ATOM     15  C   UNL     1      -2.671  -0.699   5.729  0.00  0.00    +0.046 C 
ENDBRANCH   1  10
BRANCH   1  16
ATOM     16  C   UNL     1      -1.181   1.024  -0.930  0.00  0.00    +0.143 A 
ATOM     17  N   UNL     1      -1.926   2.102  -0.895  0.00  0.00    -0.115 NA
ATOM     18  N   UNL     1      -1.161   3.121  -1.085  0.00  0.00    -0.023 NA
ATOM     19  N   UNL     1       0.052   2.721  -1.240  0.00  0.00    -0.044 NA
ATOM     20  N   UNL     1       0.082   1.435  -1.151  0.00  0.00    -0.227 N 
BRANCH  20  21
ATOM     21  C   UNL     1       1.266   0.581  -1.268  0.00  0.00    +0.111 C 
ATOM     22  C   UNL     1       2.276   0.958  -0.181  0.00  0.00    +0.027 C 
ATOM     23  C   UNL     1       3.513   0.066  -0.303  0.00  0.00    +0.002 C 
ATOM     24  C   UNL     1       4.149   0.263  -1.680  0.00  0.00    +0.000 C 
ATOM     25  C   UNL     1       3.140  -0.114  -2.767  0.00  0.00    +0.002 C 
ATOM     26  C   UNL     1       1.903   0.777  -2.645  0.00  0.00    +0.027 C 
ENDBRANCH  20  21
ENDBRANCH   1  16
BRANCH   1  27
ATOM     27  N   UNL     1      -3.009  -0.521  -1.318  0.00  0.00    +0.396 N 
ATOM     28  H   UNL     1      -3.550   0.315  -1.069  0.00  0.00    -0.080 HD
BRANCH  27  29
ATOM     29  C   UNL     1      -3.681  -1.712  -0.756  0.00  0.00    -0.002 C 
BRANCH  29  30
ATOM     30  C   UNL     1      -4.565  -1.270   0.381  0.00  0.00    +0.089 A 
ATOM     31  C   UNL     1      -5.668  -0.508   0.271  0.00  0.00    +0.042 A 
ATOM     32  C   UNL     1      -6.183  -0.341   1.577  0.00  0.00    +0.041 A 
ATOM     33  C   UNL     1      -5.360  -1.004   2.408  0.00  0.00    +0.195 A 
ATOM     34  O   UNL     1      -4.381  -1.564   1.679  0.00  0.00    -0.470 OA
ENDBRANCH  29  30
ENDBRANCH  27  29
BRANCH  27  35
ATOM     35  C   UNL     1      -2.941  -0.628  -2.791  0.00  0.00    -0.045 C 
BRANCH  35  36
ATOM     36  C   UNL     1      -2.736   0.772  -3.373  0.00  0.00    +0.102 C 
ATOM     37  C   UNL     1      -3.087   0.785  -4.878  0.00  0.00    +0.032 C 
ATOM     38  C   UNL     1      -2.043   1.740  -5.499  0.00  0.00    +0.030 C 
ATOM     39  C   UNL     1      -1.185   2.191  -4.296  0.00  0.00    +0.160 C 
ATOM     40  O   UNL     1      -1.341   1.141  -3.317  0.00  0.00    -0.378 OA
ENDBRANCH  35  36
ENDBRANCH  27  35
ENDBRANCH   1  27
TORSDOF 8
