REMARK  Name = ZINC66727770
REMARK  8 active torsions:
REMARK  status: ('A' for Active; 'I' for Inactive)
REMARK    1  A    between atoms: C_1  and  C_2
REMARK    2  A    between atoms: C_2  and  C_4
REMARK    3  A    between atoms: C_2  and  C_20
REMARK    4  A    between atoms: C_4  and  C_5
REMARK    5  A    between atoms: C_14  and  C_16
REMARK    6  A    between atoms: C_16  and  C_17
REMARK    7  A    between atoms: C_16  and  C_18
REMARK    8  A    between atoms: C_16  and  C_19
REMARK                            x       y       z     vdW  Elec       q    Type
REMARK                         _______ _______ _______ _____ _____    ______ ____
ROOT
ATOM      1  C   UNL     1       0.868   1.271  -3.325  0.00  0.00    +0.216 C 
ATOM      2  O   UNL     1      -0.023   2.094  -3.329  0.00  0.00    -0.276 OA
ATOM      3  N   UNL     1       1.152   0.581  -4.448  0.00  0.00    -0.300 N 
ATOM      4  C   UNL     1       0.432   0.797  -5.654  0.00  0.00    +0.109 C 
ATOM      5  C   UNL     1      -0.912   0.006  -5.762  0.00  0.00    +0.038 C 
ATOM      6  C   UNL     1      -0.675  -1.401  -5.123  0.00  0.00    +0.109 C 
ATOM      7  N   UNL     1       0.604  -1.963  -5.385  0.00  0.00    -0.299 N 
ATOM      8  C   UNL     1       1.651  -1.771  -4.349  0.00  0.00    +0.126 C 
ATOM      9  C   UNL     1       2.235  -0.435  -4.480  0.00  0.00    +0.126 C 
ATOM     10  C   UNL     1       0.856  -2.640  -6.523  0.00  0.00    +0.221 C 
ATOM     11  O   UNL     1      -0.031  -2.817  -7.331  0.00  0.00    -0.275 OA
ENDROOT
BRANCH  10  12
ATOM     12  C   UNL     1       2.238  -3.177  -6.790  0.00  0.00    +0.039 C 
ATOM     13  C   UNL     1       2.313  -3.699  -8.227  0.00  0.00    +0.020 C 
ATOM     14  C   UNL     1       3.265  -2.059  -6.600  0.00  0.00    +0.020 C 
ATOM     15  C   UNL     1       2.540  -4.318  -5.817  0.00  0.00    +0.020 C 
ENDBRANCH  10  12
BRANCH   1  16
ATOM     16  C   UNL     1       1.656   1.019  -2.066  0.00  0.00    +0.099 C 
BRANCH  16  18
ATOM     17  C   UNL     1       1.406   3.387  -1.310  0.00  0.00    +0.008 C 
ATOM     18  C   UNL     1       1.135   1.925  -0.949  0.00  0.00    -0.002 C 
BRANCH  18  19
ATOM     19  C   UNL     1       1.850   1.583   0.360  0.00  0.00    -0.008 C 
ATOM     20  C   UNL     1       1.579   0.121   0.722  0.00  0.00    +0.004 C 
ATOM     21  C   UNL     1       2.293  -0.221   2.031  0.00  0.00    +0.000 C 
ATOM     22  C   UNL     1       1.773   0.685   3.148  0.00  0.00    +0.000 C 
ATOM     23  C   UNL     1       2.044   2.147   2.787  0.00  0.00    +0.000 C 
ATOM     24  C   UNL     1       1.330   2.490   1.478  0.00  0.00    +0.004 C 
ENDBRANCH  18  19
ENDBRANCH  16  18
ENDBRANCH   1  16
TORSDOF 4
