REMARK  Name = ZINC35059903
REMARK  10 active torsions:
REMARK  status: ('A' for Active; 'I' for Inactive)
REMARK    1  A    between atoms: C_1  and  C_2
REMARK    2  A    between atoms: C_2  and  C_3
REMARK    3  A    between atoms: C_3  and  C_5
REMARK    4  A    between atoms: C_3  and  N_23
REMARK    5  A    between atoms: N_15  and  C_16
REMARK    6  A    between atoms: C_19  and  C_22
REMARK    7  A    between atoms: N_23  and  C_24
REMARK    8  A    between atoms: C_24  and  C_25
REMARK    9  A    between atoms: N_33  and  C_34
REMARK   10  A    between atoms: C_39  and  C_40
REMARK                            x       y       z     vdW  Elec       q    Type
REMARK                         _______ _______ _______ _____ _____    ______ ____
ROOT
ATOM      1  C   UNL     1      -2.259  -0.630   0.564  0.00  0.00    +0.144 C 
ENDROOT
BRANCH   1   2
ATOM      2  C   UNL     1      -1.595  -1.739  -0.210  0.00  0.00    +0.138 A 
ATOM      3  N   UNL     1      -0.299  -1.748  -0.285  0.00  0.00    -0.231 NA
ATOM      4  C   UNL     1       0.368  -2.715  -0.964  0.00  0.00    +0.078 A 
ATOM      5  C   UNL     1       1.762  -2.725  -1.045  0.00  0.00    +0.028 A 
ATOM      6  C   UNL     1       2.397  -3.726  -1.744  0.00  0.00    +0.002 A 
ATOM      7  C   UNL     1       1.669  -4.728  -2.373  0.00  0.00    +0.001 A 
ATOM      8  C   UNL     1       0.293  -4.739  -2.309  0.00  0.00    +0.015 A 
ATOM      9  C   UNL     1      -0.370  -3.736  -1.605  0.00  0.00    +0.065 A 
ATOM     10  C   UNL     1      -1.836  -3.697  -1.501  0.00  0.00    +0.266 A 
ATOM     11  O   UNL     1      -2.530  -4.546  -2.030  0.00  0.00    -0.267 OA
ATOM     12  N   UNL     1      -2.384  -2.684  -0.791  0.00  0.00    -0.263 N 
BRANCH  12  13
ATOM     13  C   UNL     1      -3.776  -2.603  -0.657  0.00  0.00    +0.051 A 
ATOM     14  C   UNL     1      -4.496  -1.691  -1.416  0.00  0.00    +0.026 A 
ATOM     15  C   UNL     1      -5.869  -1.614  -1.282  0.00  0.00    +0.005 A 
ATOM     16  C   UNL     1      -6.525  -2.445  -0.393  0.00  0.00    -0.050 A 
ATOM     17  C   UNL     1      -5.811  -3.355   0.365  0.00  0.00    +0.005 A 
ATOM     18  C   UNL     1      -4.439  -3.440   0.231  0.00  0.00    +0.026 A 
ATOM     19  C   UNL     1      -8.023  -2.359  -0.248  0.00  0.00    +0.044 C 
ENDBRANCH  12  13
ENDBRANCH   1   2
BRANCH   1  20
ATOM     20  N   UNL     1      -2.715  -1.142   1.858  0.00  0.00    -0.271 N 
ATOM     21  C   UNL     1      -4.000  -0.981   2.232  0.00  0.00    +0.307 C 
ATOM     22  O   UNL     1      -4.780  -0.410   1.494  0.00  0.00    -0.252 OA
ATOM     23  N   UNL     1      -4.420  -1.453   3.422  0.00  0.00    -0.269 N 
ATOM     24  H   UNL     1      -3.786  -1.859   4.034  0.00  0.00    +0.156 HD
BRANCH  23  25
ATOM     25  C   UNL     1      -5.770  -1.357   3.776  0.00  0.00    +0.038 A 
ATOM     26  C   UNL     1      -6.554  -0.335   3.258  0.00  0.00    +0.023 A 
ATOM     27  C   UNL     1      -7.887  -0.243   3.609  0.00  0.00    +0.002 A 
ATOM     28  C   UNL     1      -8.440  -1.167   4.476  0.00  0.00    +0.000 A 
ATOM     29  C   UNL     1      -7.662  -2.185   4.995  0.00  0.00    +0.005 A 
ATOM     30  C   UNL     1      -6.330  -2.286   4.642  0.00  0.00    -0.029 A 
ATOM     31  C   UNL     1      -5.484  -3.401   5.203  0.00  0.00    +0.045 C 
ENDBRANCH  23  25
BRANCH  20  32
ATOM     32  C   UNL     1      -1.775  -1.830   2.746  0.00  0.00    +0.145 C 
BRANCH  32  33
ATOM     33  C   UNL     1      -1.203  -0.845   3.733  0.00  0.00    -0.030 A 
ATOM     34  C   UNL     1       0.020  -0.250   3.486  0.00  0.00    +0.005 A 
ATOM     35  C   UNL     1       0.544   0.654   4.391  0.00  0.00    +0.000 A 
ATOM     36  C   UNL     1      -0.155   0.963   5.543  0.00  0.00    +0.000 A 
ATOM     37  C   UNL     1      -1.379   0.369   5.789  0.00  0.00    +0.000 A 
ATOM     38  C   UNL     1      -1.905  -0.532   4.882  0.00  0.00    +0.005 A 
ENDBRANCH  32  33
ENDBRANCH  20  32
ENDBRANCH   1  20
BRANCH   1  40
ATOM     39  C   UNL     1      -0.908   1.151  -0.554  0.00  0.00    +0.006 C 
ATOM     40  C   UNL     1      -1.258   0.505   0.789  0.00  0.00    +0.027 C 
ENDBRANCH   1  40
TORSDOF 7
