REMARK  Name = ZINC05438021
REMARK  8 active torsions:
REMARK  status: ('A' for Active; 'I' for Inactive)
REMARK    1  A    between atoms: C_1  and  C_2
REMARK    2  A    between atoms: C_5  and  N_9
REMARK    3  A    between atoms: C_6  and  C_8
REMARK    4  A    between atoms: C_10  and  N_17
REMARK    5  A    between atoms: C_18  and  C_20
REMARK    6  A    between atoms: N_22  and  C_23
REMARK    7  A    between atoms: C_23  and  C_25
REMARK    8  A    between atoms: C_23  and  C_26
REMARK                            x       y       z     vdW  Elec       q    Type
REMARK                         _______ _______ _______ _____ _____    ______ ____
ROOT
ATOM      1  N   UNL     1       1.288  -0.408  -0.244  0.00  0.00    -0.218 N 
ATOM      2  C   UNL     1       2.091   0.672  -0.072  0.00  0.00    +0.133 A 
ATOM      3  C   UNL     1       1.282   1.751   0.209  0.00  0.00    +0.026 A 
ATOM      4  C   UNL     1      -0.030   1.308   0.205  0.00  0.00    +0.079 A 
ATOM      5  N   UNL     1      -0.031   0.011  -0.067  0.00  0.00    -0.168 NA
ATOM      6  C   UNL     1      -1.108   2.352   0.492  0.00  0.00    +0.127 C 
ATOM      7  S   UNL     1      -0.117   3.726   1.214  0.00  0.00    -0.150 S 
ATOM      8  C   UNL     1       1.508   3.232   0.506  0.00  0.00    +0.110 C 
ENDROOT
BRANCH   1  13
ATOM      9  C   UNL     1       2.988  -5.681  -1.472  0.00  0.00    +0.044 C 
ATOM     10  C   UNL     1       2.537  -4.281  -1.146  0.00  0.00    -0.050 A 
ATOM     11  C   UNL     1       3.038  -3.210  -1.863  0.00  0.00    +0.005 A 
ATOM     12  C   UNL     1       2.623  -1.926  -1.569  0.00  0.00    +0.028 A 
ATOM     13  C   UNL     1       1.709  -1.710  -0.547  0.00  0.00    +0.070 A 
ATOM     14  C   UNL     1       1.207  -2.787   0.171  0.00  0.00    -0.025 A 
ATOM     15  C   UNL     1       1.623  -4.070  -0.130  0.00  0.00    +0.008 A 
ATOM     16  C   UNL     1       0.210  -2.558   1.277  0.00  0.00    +0.046 C 
ENDBRANCH   1  13
BRANCH   2  17
ATOM     17  N   UNL     1       3.480   0.688  -0.163  0.00  0.00    -0.262 N 
ATOM     18  C   UNL     1       4.119   1.820  -0.516  0.00  0.00    +0.304 C 
ATOM     19  O   UNL     1       3.483   2.794  -0.862  0.00  0.00    -0.265 OA
ATOM     20  H   UNL     1       3.987  -0.117   0.029  0.00  0.00    +0.157 HD
BRANCH  18  21
ATOM     21  C   UNL     1       5.611   1.876  -0.483  0.00  0.00    +0.300 C 
ATOM     22  O   UNL     1       6.247   0.902  -0.138  0.00  0.00    -0.265 OA
ATOM     23  N   UNL     1       6.251   3.008  -0.837  0.00  0.00    -0.301 N 
ATOM     24  H   UNL     1       5.742   3.787  -1.113  0.00  0.00    +0.150 HD
BRANCH  23  25
ATOM     25  C   UNL     1       7.714   3.063  -0.805  0.00  0.00    +0.101 C 
ATOM     26  C   UNL     1       8.274   2.511  -2.117  0.00  0.00    +0.033 C 
BRANCH  25  27
ATOM     27  C   UNL     1       8.159   4.493  -0.631  0.00  0.00    -0.027 A 
ATOM     28  C   UNL     1       7.505   5.507  -1.304  0.00  0.00    +0.005 A 
ATOM     29  C   UNL     1       7.910   6.819  -1.141  0.00  0.00    +0.000 A 
ATOM     30  C   UNL     1       8.977   7.114  -0.313  0.00  0.00    +0.000 A 
ATOM     31  C   UNL     1       9.634   6.099   0.356  0.00  0.00    +0.000 A 
ATOM     32  C   UNL     1       9.226   4.788   0.197  0.00  0.00    +0.005 A 
ENDBRANCH  25  27
ENDBRANCH  23  25
ENDBRANCH  18  21
ENDBRANCH   2  17
TORSDOF 5
