REMARK  Name = ZINC02178198
REMARK  10 active torsions:
REMARK  status: ('A' for Active; 'I' for Inactive)
REMARK    1  A    between atoms: C_1  and  C_2
REMARK    2  A    between atoms: C_2  and  C_3
REMARK    3  A    between atoms: C_6  and  N_9
REMARK    4  A    between atoms: C_10  and  C_12
REMARK    5  A    between atoms: N_14  and  N_15
REMARK    6  A    between atoms: C_16  and  C_17
REMARK    7  A    between atoms: C_21  and  O_23
REMARK    8  A    between atoms: O_23  and  C_24
REMARK    9  A    between atoms: C_24  and  C_25
REMARK   10  A    between atoms: N_27  and  C_28
REMARK                            x       y       z     vdW  Elec       q    Type
REMARK                         _______ _______ _______ _____ _____    ______ ____
ROOT
ATOM      1  C   UNL     1       0.847   3.170   0.656  0.00  0.00    -0.002 A 
ATOM      2  C   UNL     1       0.879   1.780   0.508  0.00  0.00    +0.010 A 
ATOM      3  C   UNL     1      -0.296   1.078   0.341  0.00  0.00    +0.004 A 
ATOM      4  C   UNL     1      -1.508   1.745   0.313  0.00  0.00    +0.046 A 
ATOM      5  C   UNL     1      -1.550   3.125   0.465  0.00  0.00    +0.122 A 
ATOM      6  C   UNL     1      -0.377   3.840   0.633  0.00  0.00    +0.055 A 
ENDROOT
BRANCH   1   8
ATOM      7  N   UNL     1       3.239   3.298   0.855  0.00  0.00    -0.187 NA
ATOM      8  C   UNL     1       2.101   3.924   0.835  0.00  0.00    +0.138 C 
BRANCH   7  11
ATOM      9  C   UNL     1       5.611   3.365   1.046  0.00  0.00    +0.318 C 
ATOM     10  O   UNL     1       5.641   2.157   0.917  0.00  0.00    -0.263 OA
ATOM     11  N   UNL     1       4.430   4.014   1.025  0.00  0.00    -0.199 N 
ATOM     12  H   UNL     1       4.406   4.979   1.127  0.00  0.00    +0.178 HD
BRANCH   9  14
ATOM     13  N   UNL     1       8.059   3.478   1.247  0.00  0.00    -0.278 N 
ATOM     14  C   UNL     1       6.879   4.128   1.226  0.00  0.00    +0.305 C 
ATOM     15  O   UNL     1       6.848   5.334   1.355  0.00  0.00    -0.265 OA
ATOM     16  H   UNL     1       8.080   2.508   1.212  0.00  0.00    +0.155 HD
BRANCH  13  20
ATOM     17  C   UNL     1      11.618   5.629   1.465  0.00  0.00    -0.048 A 
ATOM     18  C   UNL     1      10.497   6.081   2.136  0.00  0.00    +0.005 A 
ATOM     19  C   UNL     1       9.315   5.370   2.066  0.00  0.00    +0.023 A 
ATOM     20  C   UNL     1       9.253   4.200   1.320  0.00  0.00    +0.034 A 
ATOM     21  C   UNL     1      10.383   3.745   0.651  0.00  0.00    +0.023 A 
ATOM     22  C   UNL     1      11.561   4.464   0.722  0.00  0.00    +0.005 A 
BRANCH  17  24
ATOM     23  C   UNL     1      13.731   5.911   2.732  0.00  0.00    +0.009 C 
ATOM     24  C   UNL     1      12.906   6.408   1.543  0.00  0.00    +0.032 C 
ENDBRANCH  17  24
ENDBRANCH  13  20
ENDBRANCH   9  14
ENDBRANCH   7  11
ENDBRANCH   1   8
BRANCH   5  25
ATOM     25  O   UNL     1      -2.744   3.773   0.442  0.00  0.00    -0.483 OA
BRANCH  25  26
ATOM     26  C   UNL     1      -3.915   2.973   0.265  0.00  0.00    +0.324 C 
BRANCH  26  27
ATOM     27  C   UNL     1      -5.134   3.858   0.266  0.00  0.00    +0.255 C 
ATOM     28  O   UNL     1      -5.013   5.057   0.405  0.00  0.00    -0.272 OA
ATOM     29  N   UNL     1      -6.359   3.318   0.112  0.00  0.00    -0.283 N 
ATOM     30  H   UNL     1      -6.463   2.354   0.075  0.00  0.00    +0.155 HD
BRANCH  29  31
ATOM     31  C   UNL     1      -7.481   4.147   0.006  0.00  0.00    +0.036 A 
ATOM     32  C   UNL     1      -8.704   3.732   0.518  0.00  0.00    +0.043 A 
ATOM     33  C   UNL     1      -9.809   4.556   0.417  0.00  0.00    +0.044 A 
ATOM     34  C   UNL     1      -9.701   5.788  -0.203  0.00  0.00    +0.040 A 
ATOM     35  C   UNL     1      -8.486   6.201  -0.720  0.00  0.00    +0.044 A 
ATOM     36  C   UNL     1      -7.376   5.384  -0.616  0.00  0.00    +0.043 A 
ATOM     37 CL   UNL     1      -8.354   7.748  -1.497  0.00  0.00    -0.083 Cl
ATOM     38 CL   UNL     1     -11.336   4.041   1.063  0.00  0.00    -0.083 Cl
ENDBRANCH  29  31
ENDBRANCH  26  27
ENDBRANCH  25  26
ENDBRANCH   5  25
TORSDOF 9
