REMARK  Name = ZINC00354329
REMARK  11 active torsions:
REMARK  status: ('A' for Active; 'I' for Inactive)
REMARK    1  A    between atoms: C_1  and  C_2
REMARK    2  A    between atoms: C_2  and  C_3
REMARK    3  A    between atoms: C_2  and  C_4
REMARK    4  A    between atoms: C_6  and  N_14
REMARK    5  A    between atoms: C_8  and  C_11
REMARK    6  A    between atoms: C_9  and  O_10
REMARK    7  A    between atoms: C_11  and  C_12
REMARK    8  A    between atoms: C_11  and  C_13
REMARK    9  A    between atoms: N_14  and  S_15
REMARK   10  A    between atoms: S_15  and  C_18
REMARK   11  A    between atoms: C_23  and  N_24
REMARK                            x       y       z     vdW  Elec       q    Type
REMARK                         _______ _______ _______ _____ _____    ______ ____
ROOT
ATOM      1  C   UNL     1       1.332   1.506  -0.309  0.00  0.00    -0.001 A 
ATOM      2  C   UNL     1       0.133   0.821  -0.276  0.00  0.00    +0.032 A 
ATOM      3  C   UNL     1      -1.065   1.515  -0.382  0.00  0.00    +0.049 A 
ATOM      4  C   UNL     1      -1.057   2.898  -0.510  0.00  0.00    +0.032 A 
ATOM      5  C   UNL     1       0.143   3.581  -0.543  0.00  0.00    -0.001 A 
ATOM      6  C   UNL     1       1.340   2.886  -0.443  0.00  0.00    +0.124 A 
ENDROOT
BRANCH   1   8
ATOM      7  C   UNL     1       2.674  -0.003   1.131  0.00  0.00    +0.012 C 
ATOM      8  C   UNL     1       2.632   0.752  -0.199  0.00  0.00    +0.016 C 
ATOM      9  C   UNL     1       2.743  -0.245  -1.355  0.00  0.00    +0.012 C 
ENDBRANCH   1   8
BRANCH   5  10
ATOM     10  C   UNL     1       0.153   5.081  -0.688  0.00  0.00    +0.016 C 
ATOM     11  C   UNL     1      -0.442   5.466  -2.044  0.00  0.00    +0.012 C 
ATOM     12  C   UNL     1      -0.681   5.706   0.432  0.00  0.00    +0.012 C 
ENDBRANCH   5  10
BRANCH   6  13
ATOM     13  O   UNL     1       2.521   3.559  -0.476  0.00  0.00    -0.506 OA
ATOM     14  H   UNL     1       2.887   3.668  -1.364  0.00  0.00    +0.292 HD
ENDBRANCH   6  13
BRANCH   3  15
ATOM     15  N   UNL     1      -2.281   0.822  -0.354  0.00  0.00    -0.216 N 
ATOM     16  H   UNL     1      -2.392   0.017  -0.883  0.00  0.00    +0.174 HD
BRANCH  15  17
ATOM     17  S   UNL     1      -3.529   1.377   0.582  0.00  0.00    +0.074 S 
ATOM     18  O   UNL     1      -3.725   2.740   0.232  0.00  0.00    -0.150 OA
ATOM     19  O   UNL     1      -4.566   0.410   0.490  0.00  0.00    -0.150 OA
BRANCH  17  20
ATOM     20  C   UNL     1      -2.973   1.361   2.254  0.00  0.00    +0.129 A 
ATOM     21  C   UNL     1      -2.847   2.547   2.952  0.00  0.00    +0.031 A 
ATOM     22  C   UNL     1      -2.416   2.535   4.266  0.00  0.00    +0.002 A 
ATOM     23  C   UNL     1      -2.098   1.338   4.882  0.00  0.00    +0.002 A 
ATOM     24  C   UNL     1      -2.216   0.150   4.188  0.00  0.00    +0.025 A 
ATOM     25  C   UNL     1      -2.655   0.158   2.870  0.00  0.00    +0.052 A 
BRANCH  25  26
ATOM     26  N   UNL     1      -2.775  -1.042   2.165  0.00  0.00    -0.356 N 
ATOM     27  H   UNL     1      -2.992  -1.030   1.220  0.00  0.00    +0.142 HD
ATOM     28  H   UNL     1      -2.642  -1.888   2.621  0.00  0.00    +0.142 HD
ENDBRANCH  25  26
ENDBRANCH  17  20
ENDBRANCH  15  17
ENDBRANCH   3  15
TORSDOF 7
