REMARK  Name = ZINC55175560
REMARK  4 active torsions:
REMARK  status: ('A' for Active; 'I' for Inactive)
REMARK    1  A    between atoms: C_1  and  C_2
REMARK    2  A    between atoms: C_3  and  C_8
REMARK    3  A    between atoms: C_14  and  C_16
REMARK    4  A    between atoms: C_16  and  C_17
REMARK                            x       y       z     vdW  Elec       q    Type
REMARK                         _______ _______ _______ _____ _____    ______ ____
ROOT
ATOM      1  C   UNL     1       0.214  -0.306  -2.700  0.00  0.00    +0.255 C 
ATOM      2  O   UNL     1       0.405   0.841  -3.061  0.00  0.00    -0.269 OA
ATOM      3  N   UNL     1      -0.054  -1.264  -3.610  0.00  0.00    -0.293 N 
ATOM      4  C   UNL     1      -0.203  -2.702  -3.324  0.00  0.00    +0.108 C 
ATOM      5  C   UNL     1       0.120  -3.408  -4.665  0.00  0.00    +0.021 C 
ATOM      6  C   UNL     1      -0.504  -2.426  -5.692  0.00  0.00    +0.024 C 
ATOM      7  C   UNL     1      -0.253  -1.045  -5.050  0.00  0.00    +0.087 C 
ENDROOT
BRANCH   1  10
ATOM      8  C   UNL     1       0.808   1.643  -0.337  0.00  0.00    +0.067 C 
ATOM      9  C   UNL     1       0.533   0.169  -0.184  0.00  0.00    +0.060 A 
ATOM     10  C   UNL     1       0.276  -0.645  -1.279  0.00  0.00    +0.098 A 
ATOM     11  S   UNL     1       0.042  -2.220  -0.470  0.00  0.00    -0.048 S 
ATOM     12  C   UNL     1       0.283  -1.707   1.115  0.00  0.00    +0.156 A 
ATOM     13  N   UNL     1       0.530  -0.415   0.988  0.00  0.00    -0.230 NA
ATOM     14  N   UNL     1       0.241  -2.458   2.270  0.00  0.00    -0.337 N 
ATOM     15  H   UNL     1       0.051  -3.408   2.224  0.00  0.00    +0.144 HD
ATOM     16  H   UNL     1       0.400  -2.036   3.129  0.00  0.00    +0.144 HD
ENDBRANCH   1  10
BRANCH   7  17
ATOM     17  C   UNL     1      -1.462  -0.135  -5.277  0.00  0.00    +0.147 C 
BRANCH  17  18
ATOM     18  C   UNL     1      -1.571   0.198  -6.742  0.00  0.00    +0.358 C 
ATOM     19  O   UNL     1      -0.701  -0.162  -7.516  0.00  0.00    -0.246 OA
ATOM     20  O   UNL     1      -2.530   0.829  -7.153  0.00  0.00    -0.246 OA
ENDBRANCH  17  18
ENDBRANCH   7  17
TORSDOF 3
