REMARK  Name = ZINC12212800
REMARK  15 active torsions:
REMARK  status: ('A' for Active; 'I' for Inactive)
REMARK    1  A    between atoms: C_1  and  C_2
REMARK    2  A    between atoms: C_5  and  C_7
REMARK    3  A    between atoms: N_9  and  C_10
REMARK    4  A    between atoms: N_9  and  C_19
REMARK    5  A    between atoms: C_10  and  C_11
REMARK    6  A    between atoms: C_11  and  C_12
REMARK    7  A    between atoms: C_12  and  N_13
REMARK    8  A    between atoms: C_19  and  C_20
REMARK    9  A    between atoms: C_23  and  O_34
REMARK   10  A    between atoms: C_26  and  O_32
REMARK   11  A    between atoms: C_28  and  N_29
REMARK   12  A    between atoms: N_29  and  C_30
REMARK   13  A    between atoms: N_29  and  C_31
REMARK   14  A    between atoms: O_32  and  C_33
REMARK   15  A    between atoms: O_34  and  C_35
REMARK                            x       y       z     vdW  Elec       q    Type
REMARK                         _______ _______ _______ _____ _____    ______ ____
ROOT
ATOM      1  C   UNL     1      -1.990   2.651   3.357  0.00  0.00    +0.146 C 
ENDROOT
BRANCH   1   2
ATOM      2  C   UNL     1      -1.473   3.601   2.308  0.00  0.00    +0.009 A 
ATOM      3  C   UNL     1      -0.138   3.863   2.221  0.00  0.00    +0.022 A 
ATOM      4  C   UNL     1       0.304   4.760   1.230  0.00  0.00    +0.044 A 
ATOM      5  C   UNL     1       1.669   5.078   1.089  0.00  0.00    +0.129 A 
ATOM      6  C   UNL     1       2.062   5.960   0.107  0.00  0.00    +0.050 A 
ATOM      7  C   UNL     1       1.125   6.539  -0.744  0.00  0.00    +0.051 A 
ATOM      8  C   UNL     1      -0.205   6.250  -0.630  0.00  0.00    +0.144 A 
ATOM      9  C   UNL     1      -0.646   5.351   0.362  0.00  0.00    +0.093 A 
ATOM     10  C   UNL     1      -2.363   4.214   1.415  0.00  0.00    +0.104 A 
ATOM     11  N   UNL     1      -1.995   5.085   0.444  0.00  0.00    -0.340 N 
ATOM     12  H   UNL     1      -2.677   5.518  -0.190  0.00  0.00    +0.167 HD
BRANCH  10  13
ATOM     13  N   UNL     1      -3.719   3.934   1.512  0.00  0.00    -0.322 N 
ATOM     14  C   UNL     1      -4.502   5.167   1.666  0.00  0.00    +0.130 C 
ATOM     15  C   UNL     1      -4.181   3.159   0.352  0.00  0.00    +0.130 C 
ENDBRANCH  10  13
BRANCH   8  16
ATOM     16  O   UNL     1      -1.102   6.827  -1.473  0.00  0.00    -0.493 OA
ATOM     17  C   UNL     1      -0.584   7.728  -2.454  0.00  0.00    +0.277 C 
ENDBRANCH   8  16
BRANCH   5  18
ATOM     18  O   UNL     1       2.591   4.518   1.915  0.00  0.00    -0.494 OA
ATOM     19  C   UNL     1       3.955   4.889   1.710  0.00  0.00    +0.277 C 
ENDBRANCH   5  18
ENDBRANCH   1   2
BRANCH   1  22
ATOM     20  C   UNL     1      -0.222   1.092   3.977  0.00  0.00    +0.254 C 
ATOM     21  O   UNL     1      -0.484   0.443   2.981  0.00  0.00    -0.269 OA
ATOM     22  N   UNL     1      -0.886   2.238   4.228  0.00  0.00    -0.293 N 
BRANCH  20  27
ATOM     23  C   UNL     1       3.433   0.145   8.099  0.00  0.00    +0.051 C 
ATOM     24  C   UNL     1       2.558   0.181   6.872  0.00  0.00    -0.013 A 
ATOM     25  C   UNL     1       2.559  -0.666   5.810  0.00  0.00    +0.011 A 
ATOM     26  C   UNL     1       1.671  -0.455   4.784  0.00  0.00    +0.021 A 
ATOM     27  C   UNL     1       0.816   0.629   4.902  0.00  0.00    +0.074 A 
ATOM     28  S   UNL     1       1.312   1.318   6.471  0.00  0.00    -0.089 S 
ENDBRANCH  20  27
BRANCH  22  29
ATOM     29  C   UNL     1      -0.505   3.070   5.371  0.00  0.00    +0.110 C 
BRANCH  29  30
ATOM     30  C   UNL     1      -1.231   2.578   6.625  0.00  0.00    +0.038 C 
BRANCH  30  31
ATOM     31  C   UNL     1      -0.833   3.448   7.819  0.00  0.00    +0.109 C 
BRANCH  31  32
ATOM     32  N   UNL     1      -1.528   2.977   9.019  0.00  0.00    -0.301 N 
ATOM     33  C   UNL     1      -2.840   3.465   9.462  0.00  0.00    +0.108 C 
ATOM     34  C   UNL     1      -3.352   2.409  10.469  0.00  0.00    +0.028 C 
ATOM     35  C   UNL     1      -2.028   1.797  10.983  0.00  0.00    +0.097 C 
ATOM     36  C   UNL     1      -1.045   2.046   9.860  0.00  0.00    +0.216 C 
ATOM     37  O   UNL     1       0.025   1.487   9.737  0.00  0.00    -0.276 OA
ENDBRANCH  31  32
ENDBRANCH  30  31
ENDBRANCH  29  30
ENDBRANCH  22  29
ENDBRANCH   1  22
TORSDOF 10
