REMARK  Name = ZINC43191448
REMARK  8 active torsions:
REMARK  status: ('A' for Active; 'I' for Inactive)
REMARK    1  A    between atoms: C_1  and  C_2
REMARK    2  A    between atoms: C_17  and  C_32
REMARK    3  A    between atoms: C_19  and  O_30
REMARK    4  A    between atoms: C_22  and  C_29
REMARK    5  A    between atoms: C_23  and  C_24
REMARK    6  A    between atoms: C_23  and  O_28
REMARK    7  A    between atoms: C_24  and  C_26
REMARK    8  A    between atoms: C_26  and  O_27
REMARK                            x       y       z     vdW  Elec       q    Type
REMARK                         _______ _______ _______ _____ _____    ______ ____
ROOT
ATOM      1  C   UNL     1      -0.493   1.544   0.338  0.00  0.00    +0.011 C 
ATOM      2  C   UNL     1      -0.332   0.030   0.176  0.00  0.00    +0.026 C 
ATOM      3  C   UNL     1      -1.668  -0.687   0.425  0.00  0.00    +0.011 C 
ATOM      4  C   UNL     1      -1.572  -1.315   1.836  0.00  0.00    +0.005 C 
ATOM      5  C   UNL     1      -2.222  -0.348   2.822  0.00  0.00    +0.034 C 
ATOM      6  C   UNL     1      -3.742  -0.332   2.594  0.00  0.00    +0.011 C 
ATOM      7  C   UNL     1      -4.270   0.905   3.329  0.00  0.00    +0.032 C 
ATOM      8  C   UNL     1      -3.828   0.848   4.769  0.00  0.00    -0.053 C 
ATOM      9  C   UNL     1      -4.445   1.691   5.623  0.00  0.00    +0.051 C 
ATOM     10  C   UNL     1      -4.014   1.640   7.043  0.00  0.00    +0.179 C 
ATOM     11  O   UNL     1      -4.789   1.830   7.965  0.00  0.00    -0.288 OA
ATOM     12  C   UNL     1      -2.575   1.349   7.265  0.00  0.00    +0.047 C 
ATOM     13  C   UNL     1      -1.983   0.501   6.402  0.00  0.00    -0.009 C 
ATOM     14  C   UNL     1      -2.784  -0.083   5.279  0.00  0.00    +0.044 C 
ATOM     15  C   UNL     1      -1.958  -0.809   4.251  0.00  0.00    +0.153 C 
ATOM     16  C   UNL     1      -0.458  -0.671   4.513  0.00  0.00    +0.154 C 
ATOM     17  C   UNL     1       0.336  -1.523   3.541  0.00  0.00    +0.044 C 
ATOM     18  C   UNL     1      -0.074  -1.498   2.095  0.00  0.00    +0.010 C 
ATOM     19  C   UNL     1       0.678  -0.509   1.207  0.00  0.00    +0.134 C 
ATOM     20  C   UNL     1       0.280  -2.909   1.542  0.00  0.00    +0.015 C 
ATOM     21  F   UNL     1      -2.287  -2.171   4.328  0.00  0.00    -0.238 F 
ATOM     22  C   UNL     1      -3.584  -1.213   5.948  0.00  0.00    +0.023 C 
ENDROOT
BRANCH  19  23
ATOM     23  C   UNL     1       1.287   0.636   1.965  0.00  0.00    +0.190 C 
ATOM     24  O   UNL     1       0.576   1.447   2.509  0.00  0.00    -0.292 OA
BRANCH  23  25
ATOM     25  C   UNL     1       2.786   0.774   2.047  0.00  0.00    +0.233 C 
BRANCH  25  26
ATOM     26  O   UNL     1       3.117   1.932   2.815  0.00  0.00    -0.387 OA
ATOM     27  H   UNL     1       4.067   2.083   2.909  0.00  0.00    +0.210 HD
ENDBRANCH  25  26
ENDBRANCH  23  25
ENDBRANCH  19  23
BRANCH  19  28
ATOM     28  O   UNL     1       1.724  -1.209   0.507  0.00  0.00    -0.380 OA
ATOM     29  H   UNL     1       2.227  -0.655  -0.104  0.00  0.00    +0.211 HD
ENDBRANCH  19  28
BRANCH  16  30
ATOM     30  O   UNL     1      -0.069   0.700   4.449  0.00  0.00    -0.389 OA
ATOM     31  H   UNL     1       0.850   0.860   4.702  0.00  0.00    +0.210 HD
ENDBRANCH  16  30
TORSDOF 5
