REMARK  Name = ZINC47152188
REMARK  9 active torsions:
REMARK  status: ('A' for Active; 'I' for Inactive)
REMARK    1  A    between atoms: C_1  and  C_2
REMARK    2  A    between atoms: C_2  and  O_3
REMARK    3  A    between atoms: O_3  and  C_4
REMARK    4  A    between atoms: C_7  and  N_10
REMARK    5  A    between atoms: C_11  and  C_13
REMARK    6  A    between atoms: C_13  and  C_14
REMARK    7  A    between atoms: C_14  and  N_15
REMARK    8  A    between atoms: C_19  and  C_20
REMARK    9  A    between atoms: C_23  and  N_26
REMARK                            x       y       z     vdW  Elec       q    Type
REMARK                         _______ _______ _______ _____ _____    ______ ____
ROOT
ATOM      1  N   UNL     1       3.389  -9.613   4.955  0.00  0.00    -0.255 N 
ATOM      2  C   UNL     1       2.391 -10.402   5.317  0.00  0.00    +0.258 C 
ATOM      3  O   UNL     1       1.327  -9.953   5.700  0.00  0.00    -0.269 OA
ATOM      4  C   UNL     1       2.636 -11.858   5.234  0.00  0.00    +0.077 C 
ATOM      5  C   UNL     1       1.811 -12.892   5.534  0.00  0.00    +0.028 C 
ATOM      6  S   UNL     1       4.317 -11.880   4.627  0.00  0.00    -0.061 S 
ATOM      7  C   UNL     1       4.564 -10.115   4.526  0.00  0.00    +0.121 C 
ATOM      8  S   UNL     1       5.958  -9.265   4.011  0.00  0.00    -0.027 S 
ENDROOT
BRANCH   5   9
ATOM      9  C   UNL     1       2.332 -14.266   5.552  0.00  0.00    -0.024 A 
ATOM     10  C   UNL     1       3.708 -14.498   5.450  0.00  0.00    +0.010 A 
ATOM     11  C   UNL     1       4.189 -15.790   5.468  0.00  0.00    +0.033 A 
ATOM     12  C   UNL     1       3.314 -16.857   5.586  0.00  0.00    +0.126 A 
ATOM     13  C   UNL     1       1.951 -16.636   5.687  0.00  0.00    +0.033 A 
ATOM     14  C   UNL     1       1.455 -15.349   5.677  0.00  0.00    +0.010 A 
BRANCH  12  15
ATOM     15  N   UNL     1       3.838 -18.241   5.605  0.00  0.00    +0.056 N 
ATOM     16  O   UNL     1       5.028 -18.437   5.516  0.00  0.00    -0.126 OA
ATOM     17  O   UNL     1       3.077 -19.174   5.708  0.00  0.00    -0.126 OA
ENDBRANCH  12  15
ENDBRANCH   5   9
BRANCH   1  18
ATOM     18  C   UNL     1       3.210  -8.160   5.015  0.00  0.00    +0.124 C 
BRANCH  18  19
ATOM     19  C   UNL     1       2.652  -7.660   3.681  0.00  0.00    +0.115 C 
BRANCH  19  21
ATOM     20  N   UNL     1       1.985  -5.501   2.674  0.00  0.00    -0.285 N 
ATOM     21  C   UNL     1       2.468  -6.165   3.743  0.00  0.00    +0.219 C 
ATOM     22  O   UNL     1       2.755  -5.560   4.754  0.00  0.00    -0.275 OA
ATOM     23  H   UNL     1       1.679  -5.992   1.895  0.00  0.00    +0.155 HD
BRANCH  20  27
ATOM     24  C   UNL     1       1.803  -1.335   2.715  0.00  0.00    +0.121 A 
ATOM     25  C   UNL     1       2.783  -1.994   3.444  0.00  0.00    +0.047 A 
ATOM     26  C   UNL     1       2.844  -3.373   3.430  0.00  0.00    +0.027 A 
ATOM     27  C   UNL     1       1.923  -4.101   2.688  0.00  0.00    +0.034 A 
ATOM     28  C   UNL     1       0.943  -3.442   1.960  0.00  0.00    +0.027 A 
ATOM     29  C   UNL     1       0.880  -2.062   1.978  0.00  0.00    +0.047 A 
BRANCH  24  30
ATOM     30  O   UNL     1       1.744   0.023   2.729  0.00  0.00    -0.492 OA
BRANCH  30  32
ATOM     31  C   UNL     1       2.501   2.217   3.402  0.00  0.00    +0.048 C 
ATOM     32  C   UNL     1       2.726   0.708   3.509  0.00  0.00    +0.225 C 
ENDBRANCH  30  32
ENDBRANCH  24  30
ENDBRANCH  20  27
ENDBRANCH  19  21
ENDBRANCH  18  19
ENDBRANCH   1  18
TORSDOF 8
