REMARK  Name = ZINC00939127
REMARK  10 active torsions:
REMARK  status: ('A' for Active; 'I' for Inactive)
REMARK    1  A    between atoms: C_1  and  C_2
REMARK    2  A    between atoms: C_5  and  C_8
REMARK    3  A    between atoms: C_9  and  C_18
REMARK    4  A    between atoms: C_18  and  C_20
REMARK    5  A    between atoms: C_18  and  C_24
REMARK    6  A    between atoms: C_20  and  N_21
REMARK    7  A    between atoms: C_27  and  O_32
REMARK    8  A    between atoms: C_28  and  O_30
REMARK    9  A    between atoms: O_30  and  C_31
REMARK   10  A    between atoms: O_32  and  C_33
REMARK                            x       y       z     vdW  Elec       q    Type
REMARK                         _______ _______ _______ _____ _____    ______ ____
ROOT
ATOM      1  C   UNL     1       0.643   2.477   3.230  0.00  0.00    +0.051 A 
ATOM      2  C   UNL     1       0.067   1.461   2.541  0.00  0.00    -0.005 A 
ATOM      3  C   UNL     1       0.370   0.228   3.266  0.00  0.00    +0.004 A 
ATOM      4  C   UNL     1       0.064  -1.119   3.055  0.00  0.00    +0.010 A 
ATOM      5  C   UNL     1       0.505  -2.062   3.940  0.00  0.00    +0.001 A 
ATOM      6  C   UNL     1       1.257  -1.692   5.047  0.00  0.00    +0.002 A 
ATOM      7  C   UNL     1       1.571  -0.370   5.275  0.00  0.00    +0.026 A 
ATOM      8  C   UNL     1       1.132   0.607   4.388  0.00  0.00    +0.047 A 
ATOM      9  N   UNL     1       1.279   1.976   4.343  0.00  0.00    -0.354 N 
ATOM     10  H   UNL     1       1.763   2.507   4.995  0.00  0.00    +0.166 HD
ENDROOT
BRANCH   1  15
ATOM     11  C   UNL     1       0.445   8.032   1.740  0.00  0.00    +0.044 C 
ATOM     12  C   UNL     1       0.496   6.577   2.130  0.00  0.00    -0.050 A 
ATOM     13  C   UNL     1       0.271   6.208   3.445  0.00  0.00    +0.004 A 
ATOM     14  C   UNL     1       0.317   4.878   3.808  0.00  0.00    +0.010 A 
ATOM     15  C   UNL     1       0.592   3.904   2.847  0.00  0.00    -0.001 A 
ATOM     16  C   UNL     1       0.823   4.284   1.525  0.00  0.00    +0.010 A 
ATOM     17  C   UNL     1       0.769   5.617   1.173  0.00  0.00    +0.004 A 
ENDBRANCH   1  15
BRANCH   2  18
ATOM     18  C   UNL     1      -0.729   1.579   1.267  0.00  0.00    +0.078 C 
BRANCH  18  19
ATOM     19  C   UNL     1      -2.196   1.426   1.575  0.00  0.00    -0.034 A 
ATOM     20  C   UNL     1      -2.685   0.210   2.015  0.00  0.00    +0.008 A 
ATOM     21  C   UNL     1      -4.029   0.066   2.304  0.00  0.00    +0.050 A 
ATOM     22  C   UNL     1      -4.892   1.139   2.142  0.00  0.00    +0.162 A 
ATOM     23  C   UNL     1      -4.400   2.361   1.694  0.00  0.00    +0.162 A 
ATOM     24  C   UNL     1      -3.051   2.500   1.411  0.00  0.00    +0.053 A 
BRANCH  23  25
ATOM     25  O   UNL     1      -5.242   3.417   1.534  0.00  0.00    -0.491 OA
ATOM     26  C   UNL     1      -4.668   4.641   1.071  0.00  0.00    +0.277 C 
ENDBRANCH  23  25
BRANCH  22  27
ATOM     27  O   UNL     1      -6.215   0.997   2.420  0.00  0.00    -0.491 OA
ATOM     28  C   UNL     1      -6.649  -0.286   2.876  0.00  0.00    +0.277 C 
ENDBRANCH  22  27
ENDBRANCH  18  19
BRANCH  18  29
ATOM     29  C   UNL     1      -0.295   0.483   0.291  0.00  0.00    +0.224 C 
BRANCH  29  30
ATOM     30  N   UNL     1      -0.982   0.670  -0.990  0.00  0.00    +0.023 N 
ATOM     31  O   UNL     1      -1.055   1.780  -1.485  0.00  0.00    -0.132 OA
ATOM     32  O   UNL     1      -1.479  -0.285  -1.559  0.00  0.00    -0.132 OA
ENDBRANCH  29  30
ENDBRANCH  18  29
ENDBRANCH   2  18
TORSDOF 7
