REMARK  Name = ZINC34944057
REMARK  13 active torsions:
REMARK  status: ('A' for Active; 'I' for Inactive)
REMARK    1  A    between atoms: C_1  and  C_2
REMARK    2  A    between atoms: C_2  and  C_3
REMARK    3  A    between atoms: C_3  and  C_4
REMARK    4  A    between atoms: C_4  and  N_5
REMARK    5  A    between atoms: N_5  and  C_6
REMARK    6  A    between atoms: C_6  and  C_7
REMARK    7  A    between atoms: C_7  and  C_8
REMARK    8  A    between atoms: C_13  and  C_16
REMARK    9  A    between atoms: C_26  and  C_28
REMARK   10  A    between atoms: C_31  and  C_34
REMARK   11  A    between atoms: C_34  and  C_35
REMARK   12  A    between atoms: C_34  and  C_36
REMARK   13  A    between atoms: C_34  and  C_37
REMARK                            x       y       z     vdW  Elec       q    Type
REMARK                         _______ _______ _______ _____ _____    ______ ____
ROOT
ATOM      1  C   UNL     1       2.841  -4.551  -2.400  0.00  0.00    +0.115 C 
ENDROOT
BRANCH   1   2
ATOM      2  C   UNL     1       4.304  -4.911  -2.455  0.00  0.00    +0.217 C 
ATOM      3  O   UNL     1       5.138  -4.040  -2.587  0.00  0.00    -0.276 OA
ATOM      4  N   UNL     1       4.685  -6.200  -2.356  0.00  0.00    -0.301 N 
ATOM      5  C   UNL     1       3.686  -7.266  -2.201  0.00  0.00    +0.108 C 
ATOM      6  C   UNL     1       3.915  -8.318  -3.291  0.00  0.00    +0.030 C 
ATOM      7  C   UNL     1       5.366  -8.802  -3.229  0.00  0.00    +0.058 C 
ATOM      8  C   UNL     1       6.309  -7.625  -3.488  0.00  0.00    +0.030 C 
ATOM      9  C   UNL     1       6.107  -6.566  -2.407  0.00  0.00    +0.108 C 
BRANCH   7  10
ATOM     10  C   UNL     1       5.586  -9.863  -4.277  0.00  0.00    +0.111 A 
ATOM     11  N   UNL     1       5.905  -9.619  -5.577  0.00  0.00    -0.342 N 
ATOM     12  H   UNL     1       6.029  -8.748  -5.985  0.00  0.00    +0.167 HD
ATOM     13  C   UNL     1       6.020 -10.842  -6.208  0.00  0.00    +0.066 A 
ATOM     14  C   UNL     1       6.319 -11.236  -7.505  0.00  0.00    +0.028 A 
ATOM     15  C   UNL     1       6.356 -12.578  -7.819  0.00  0.00    +0.002 A 
ATOM     16  C   UNL     1       6.095 -13.535  -6.849  0.00  0.00    +0.002 A 
ATOM     17  C   UNL     1       5.798 -13.165  -5.567  0.00  0.00    +0.030 A 
ATOM     18  C   UNL     1       5.756 -11.811  -5.226  0.00  0.00    +0.089 A 
ATOM     19  N   UNL     1       5.505 -11.144  -4.070  0.00  0.00    -0.232 NA
ENDBRANCH   7  10
ENDBRANCH   1   2
BRANCH   1  20
ATOM     20  C   UNL     1       2.683  -3.035  -2.534  0.00  0.00    +0.117 C 
BRANCH  20  21
ATOM     21  N   UNL     1       1.262  -2.686  -2.481  0.00  0.00    -0.297 N 
ATOM     22  C   UNL     1       0.538  -2.634  -3.616  0.00  0.00    +0.247 C 
ATOM     23  O   UNL     1       1.046  -2.946  -4.676  0.00  0.00    -0.270 OA
BRANCH  22  24
ATOM     24  C   UNL     1      -0.875  -2.199  -3.574  0.00  0.00    +0.037 A 
ATOM     25  C   UNL     1      -1.277  -1.212  -2.672  0.00  0.00    +0.013 A 
ATOM     26  C   UNL     1      -2.596  -0.810  -2.638  0.00  0.00    +0.005 A 
ATOM     27  C   UNL     1      -3.520  -1.383  -3.494  0.00  0.00    -0.042 A 
ATOM     28  C   UNL     1      -3.128  -2.362  -4.389  0.00  0.00    +0.005 A 
ATOM     29  C   UNL     1      -1.810  -2.769  -4.439  0.00  0.00    +0.013 A 
BRANCH  27  30
ATOM     30  C   UNL     1      -4.959  -0.939  -3.450  0.00  0.00    -0.013 C 
ATOM     31  C   UNL     1      -5.041   0.557  -3.762  0.00  0.00    +0.015 C 
ATOM     32  C   UNL     1      -5.766  -1.721  -4.489  0.00  0.00    +0.015 C 
ATOM     33  C   UNL     1      -5.532  -1.201  -2.056  0.00  0.00    +0.015 C 
ENDBRANCH  27  30
ENDBRANCH  22  24
BRANCH  21  34
ATOM     34  C   UNL     1       0.627  -2.392  -1.194  0.00  0.00    +0.108 C 
BRANCH  34  35
ATOM     35  C   UNL     1       1.074  -1.012  -0.707  0.00  0.00    +0.019 C 
BRANCH  35  37
ATOM     36  C   UNL     1       0.742   0.741   1.041  0.00  0.00    +0.004 C 
ATOM     37  C   UNL     1       0.295  -0.639   0.555  0.00  0.00    -0.002 C 
ENDBRANCH  35  37
ENDBRANCH  34  35
ENDBRANCH  21  34
ENDBRANCH  20  21
ENDBRANCH   1  20
TORSDOF 9
