REMARK  Name = ZINC36120901
REMARK  10 active torsions:
REMARK  status: ('A' for Active; 'I' for Inactive)
REMARK    1  A    between atoms: C_1  and  C_2
REMARK    2  A    between atoms: C_2  and  C_3
REMARK    3  A    between atoms: C_3  and  C_5
REMARK    4  A    between atoms: C_3  and  N_6
REMARK    5  A    between atoms: N_6  and  C_7
REMARK    6  A    between atoms: C_7  and  C_8
REMARK    7  A    between atoms: C_18  and  C_20
REMARK    8  A    between atoms: C_20  and  O_21
REMARK    9  A    between atoms: O_21  and  C_22
REMARK   10  A    between atoms: C_29  and  C_31
REMARK                            x       y       z     vdW  Elec       q    Type
REMARK                         _______ _______ _______ _____ _____    ______ ____
ROOT
ATOM      1  C   UNL     1       4.061  -2.047  -0.176  0.00  0.00    +0.234 C 
ATOM      2  O   UNL     1       3.269  -2.945  -0.369  0.00  0.00    -0.274 OA
ATOM      3  N   UNL     1       5.385  -2.296  -0.218  0.00  0.00    -0.289 N 
ATOM      4  C   UNL     1       6.354  -1.216   0.021  0.00  0.00    +0.114 C 
ATOM      5  C   UNL     1       7.129  -1.538   1.308  0.00  0.00    +0.061 C 
ATOM      6  C   UNL     1       7.488  -2.988   1.301  0.00  0.00    -0.004 A 
ATOM      7  C   UNL     1       6.964  -3.975   0.525  0.00  0.00    -0.014 A 
ATOM      8  C   UNL     1       7.470  -5.259   0.720  0.00  0.00    +0.013 A 
ATOM      9  C   UNL     1       8.437  -5.473   1.641  0.00  0.00    +0.046 A 
ATOM     10  S   UNL     1       8.689  -3.830   2.297  0.00  0.00    -0.101 S 
ATOM     11  C   UNL     1       5.881  -3.651  -0.496  0.00  0.00    +0.144 C 
ENDROOT
BRANCH   1  12
ATOM     12  C   UNL     1       3.565  -0.653   0.110  0.00  0.00    +0.204 C 
BRANCH  12  13
ATOM     13  N   UNL     1       2.100  -0.645   0.100  0.00  0.00    -0.286 N 
ATOM     14  C   UNL     1       1.435  -0.404  -1.047  0.00  0.00    +0.247 C 
ATOM     15  O   UNL     1       1.827   0.461  -1.806  0.00  0.00    -0.270 OA
BRANCH  14  16
ATOM     16  C   UNL     1       0.230  -1.189  -1.381  0.00  0.00    +0.041 A 
ATOM     17  C   UNL     1      -0.686  -1.524  -0.382  0.00  0.00    +0.017 A 
ATOM     18  C   UNL     1      -1.811  -2.256  -0.696  0.00  0.00    +0.050 A 
ATOM     19  C   UNL     1      -2.037  -2.664  -2.004  0.00  0.00    +0.166 A 
ATOM     20  C   UNL     1      -1.124  -2.333  -3.006  0.00  0.00    +0.167 A 
ATOM     21  C   UNL     1       0.002  -1.594  -2.699  0.00  0.00    +0.062 A 
ATOM     22  O   UNL     1      -1.573  -2.846  -4.190  0.00  0.00    -0.453 OA
ATOM     23  C   UNL     1      -2.552  -3.838  -3.831  0.00  0.00    +0.466 C 
ATOM     24  O   UNL     1      -3.053  -3.382  -2.561  0.00  0.00    -0.453 OA
ENDBRANCH  14  16
BRANCH  13  25
ATOM     25  C   UNL     1       1.358  -0.900   1.338  0.00  0.00    +0.074 C 
ATOM     26  C   UNL     1       0.817  -2.331   1.323  0.00  0.00    +0.028 C 
BRANCH  25  28
ATOM     27  C   UNL     1       0.711   1.439   1.933  0.00  0.00    +0.005 C 
ATOM     28  C   UNL     1       0.192   0.085   1.445  0.00  0.00    +0.019 C 
ENDBRANCH  25  28
ENDBRANCH  13  25
ENDBRANCH  12  13
ENDBRANCH   1  12
BRANCH  11  29
ATOM     29  C   UNL     1       6.470  -3.707  -1.906  0.00  0.00    +0.256 C 
BRANCH  29  30
ATOM     30  O   UNL     1       7.623  -2.866  -1.975  0.00  0.00    -0.490 OA
BRANCH  30  31
ATOM     31  C   UNL     1       8.270  -2.802  -3.168  0.00  0.00    +0.123 A 
ATOM     32  C   UNL     1       7.802  -3.531  -4.253  0.00  0.00    +0.046 A 
ATOM     33  C   UNL     1       8.460  -3.465  -5.465  0.00  0.00    +0.006 A 
ATOM     34  C   UNL     1       9.586  -2.675  -5.600  0.00  0.00    +0.038 A 
ATOM     35  C   UNL     1      10.057  -1.946  -4.520  0.00  0.00    +0.127 A 
ATOM     36  C   UNL     1       9.397  -2.005  -3.306  0.00  0.00    +0.084 A 
ATOM     37  F   UNL     1      11.158  -1.175  -4.654  0.00  0.00    -0.205 F 
ENDBRANCH  30  31
ENDBRANCH  29  30
ENDBRANCH  11  29
TORSDOF 8
