REMARK  Name = ZINC21320397
REMARK  7 active torsions:
REMARK  status: ('A' for Active; 'I' for Inactive)
REMARK    1  A    between atoms: C_1  and  C_2
REMARK    2  A    between atoms: C_5  and  C_8
REMARK    3  A    between atoms: C_8  and  S_9
REMARK    4  A    between atoms: S_9  and  C_10
REMARK    5  A    between atoms: N_14  and  N_15
REMARK    6  A    between atoms: N_16  and  N_17
REMARK    7  A    between atoms: C_18  and  C_19
REMARK                            x       y       z     vdW  Elec       q    Type
REMARK                         _______ _______ _______ _____ _____    ______ ____
ROOT
ATOM      1  C   UNL     1      -0.809   3.844   1.366  0.00  0.00    +0.210 A 
ATOM      2  N   UNL     1      -0.263   4.523   0.386  0.00  0.00    -0.119 NA
ATOM      3  N   UNL     1      -0.431   5.887   0.658  0.00  0.00    -0.109 NA
ATOM      4  C   UNL     1      -1.074   5.997   1.795  0.00  0.00    +0.254 A 
ATOM      5  N   UNL     1      -1.329   4.736   2.260  0.00  0.00    -0.211 N 
ATOM      6  N   UNL     1      -1.437   7.183   2.415  0.00  0.00    -0.204 N 
ATOM      7  H   UNL     1      -1.978   7.160   3.373  0.00  0.00    +0.177 HD
ENDROOT
BRANCH   5   8
ATOM      8  N   UNL     1      -1.986   4.425   3.416  0.00  0.00    -0.294 N 
ATOM      9  H   UNL     1      -2.366   5.226   4.066  0.00  0.00    +0.163 HD
ATOM     10  H   UNL     1      -2.135   3.372   3.697  0.00  0.00    +0.163 HD
ENDBRANCH   5   8
BRANCH   6  11
ATOM     11  N   UNL     1      -1.116   8.411   1.821  0.00  0.00    -0.188 NA
ATOM     12  C   UNL     1      -1.456   9.522   2.401  0.00  0.00    +0.138 C 
BRANCH  12  13
ATOM     13  C   UNL     1      -1.118  10.813   1.777  0.00  0.00    -0.003 A 
ATOM     14  C   UNL     1      -0.426  10.845   0.563  0.00  0.00    +0.028 A 
ATOM     15  C   UNL     1      -0.116  12.055  -0.021  0.00  0.00    +0.066 A 
ATOM     16  C   UNL     1      -0.481  13.242   0.602  0.00  0.00    +0.207 A 
ATOM     17  C   UNL     1      -1.164  13.216   1.811  0.00  0.00    +0.066 A 
ATOM     18  C   UNL     1      -1.483  12.010   2.399  0.00  0.00    +0.028 A 
ATOM     19 BR   UNL     1      -1.657  14.836   2.653  0.00  0.00    -0.046 Br
ATOM     20  O   UNL     1      -0.169  14.433   0.026  0.00  0.00    -0.286 OA
ATOM     21 BR   UNL     1       0.814  12.100  -1.667  0.00  0.00    -0.046 Br
ENDBRANCH  12  13
ENDBRANCH   6  11
BRANCH   1  22
ATOM     22  S   UNL     1      -0.867   2.088   1.503  0.00  0.00    -0.080 S 
BRANCH  22  23
ATOM     23  C   UNL     1      -0.018   1.503   0.010  0.00  0.00    +0.112 C 
BRANCH  23  28
ATOM     24  C   UNL     1       0.060  -4.275  -0.022  0.00  0.00    +0.044 C 
ATOM     25  C   UNL     1       0.040  -2.768  -0.014  0.00  0.00    -0.050 A 
ATOM     26  C   UNL     1      -1.012  -2.088  -0.598  0.00  0.00    +0.003 A 
ATOM     27  C   UNL     1      -1.031  -0.706  -0.591  0.00  0.00    +0.005 A 
ATOM     28  C   UNL     1       0.002  -0.004   0.002  0.00  0.00    -0.037 A 
ATOM     29  C   UNL     1       1.057  -0.684   0.582  0.00  0.00    +0.005 A 
ATOM     30  C   UNL     1       1.073  -2.067   0.578  0.00  0.00    +0.003 A 
ENDBRANCH  23  28
ENDBRANCH  22  23
ENDBRANCH   1  22
TORSDOF 6
