REMARK  Name = ZINC02493206
REMARK  6 active torsions:
REMARK  status: ('A' for Active; 'I' for Inactive)
REMARK    1  A    between atoms: C_1  and  O_2
REMARK    2  A    between atoms: O_2  and  C_3
REMARK    3  A    between atoms: C_7  and  C_11
REMARK    4  A    between atoms: C_8  and  O_9
REMARK    5  A    between atoms: O_9  and  C_10
REMARK    6  A    between atoms: C_13  and  C_16
REMARK                            x       y       z     vdW  Elec       q    Type
REMARK                         _______ _______ _______ _____ _____    ______ ____
ROOT
ATOM      1  C   UNL     1      -2.955   2.841   0.117  0.00  0.00    +0.262 A 
ATOM      2  N   UNL     1      -4.052   3.355  -0.410  0.00  0.00    -0.187 NA
ATOM      3  C   UNL     1      -4.711   2.314  -0.960  0.00  0.00    +0.202 A 
ATOM      4  N   UNL     1      -3.999   1.239  -0.736  0.00  0.00    -0.056 NA
ATOM      5  O   UNL     1      -2.992   1.520  -0.122  0.00  0.00    -0.332 OA
ENDROOT
BRANCH   3   6
ATOM      6  C   UNL     1      -6.007   2.376  -1.679  0.00  0.00    +0.023 A 
ATOM      7  C   UNL     1      -6.661   3.596  -1.839  0.00  0.00    +0.013 A 
ATOM      8  C   UNL     1      -7.864   3.649  -2.513  0.00  0.00    +0.016 A 
ATOM      9  C   UNL     1      -8.427   2.491  -3.021  0.00  0.00    +0.018 A 
ATOM     10  C   UNL     1      -7.784   1.275  -2.861  0.00  0.00    +0.016 A 
ATOM     11  C   UNL     1      -6.578   1.213  -2.193  0.00  0.00    +0.013 A 
ATOM     12 BR   UNL     1     -10.079   2.569  -3.937  0.00  0.00    -0.050 Br
ENDBRANCH   3   6
BRANCH   1  17
ATOM     13  C   UNL     1       0.202   3.593   2.026  0.00  0.00    +0.162 A 
ATOM     14  C   UNL     1       0.093   4.965   2.185  0.00  0.00    +0.049 A 
ATOM     15  C   UNL     1      -1.003   5.642   1.679  0.00  0.00    +0.005 A 
ATOM     16  C   UNL     1      -1.994   4.959   1.008  0.00  0.00    +0.017 A 
ATOM     17  C   UNL     1      -1.896   3.576   0.835  0.00  0.00    +0.085 A 
ATOM     18  C   UNL     1      -0.787   2.891   1.346  0.00  0.00    +0.174 A 
BRANCH  13  20
ATOM     19  C   UNL     1       2.257   3.717   3.217  0.00  0.00    +0.277 C 
ATOM     20  O   UNL     1       1.279   2.933   2.530  0.00  0.00    -0.491 OA
ENDBRANCH  13  20
BRANCH  18  21
ATOM     21  O   UNL     1      -0.682   1.547   1.184  0.00  0.00    -0.491 OA
ATOM     22  C   UNL     1      -0.013   1.086   0.008  0.00  0.00    +0.277 C 
ENDBRANCH  18  21
ENDBRANCH   1  17
TORSDOF 4
