REMARK  Name = ZINC17273339
REMARK  10 active torsions:
REMARK  status: ('A' for Active; 'I' for Inactive)
REMARK    1  A    between atoms: C_1  and  C_2
REMARK    2  A    between atoms: C_2  and  C_4
REMARK    3  A    between atoms: C_2  and  S_20
REMARK    4  A    between atoms: N_6  and  C_7
REMARK    5  A    between atoms: C_10  and  N_17
REMARK    6  A    between atoms: C_12  and  C_13
REMARK    7  A    between atoms: S_20  and  C_21
REMARK    8  A    between atoms: C_24  and  C_29
REMARK    9  A    between atoms: N_25  and  C_26
REMARK   10  A    between atoms: C_29  and  C_30
REMARK                            x       y       z     vdW  Elec       q    Type
REMARK                         _______ _______ _______ _____ _____    ______ ____
ROOT
ATOM      1  C   UNL     1      -3.034   0.457  -1.773  0.00  0.00    +0.029 C 
ATOM      2  C   UNL     1      -2.911   1.668  -0.847  0.00  0.00    +0.137 C 
ENDROOT
BRANCH   2   3
ATOM      3  C   UNL     1      -4.089   2.584  -1.058  0.00  0.00    +0.230 C 
ATOM      4  O   UNL     1      -3.998   3.523  -1.821  0.00  0.00    -0.274 OA
ATOM      5  N   UNL     1      -5.243   2.360  -0.399  0.00  0.00    -0.284 N 
ATOM      6  H   UNL     1      -5.296   1.649   0.259  0.00  0.00    +0.155 HD
BRANCH   5   7
ATOM      7  C   UNL     1      -6.365   3.153  -0.664  0.00  0.00    +0.045 A 
ATOM      8  C   UNL     1      -6.219   4.519  -0.868  0.00  0.00    +0.026 A 
ATOM      9  C   UNL     1      -7.328   5.299  -1.130  0.00  0.00    +0.034 A 
ATOM     10  C   UNL     1      -8.583   4.721  -1.190  0.00  0.00    +0.127 A 
ATOM     11  C   UNL     1      -8.732   3.362  -0.987  0.00  0.00    +0.047 A 
ATOM     12  C   UNL     1      -7.626   2.575  -0.730  0.00  0.00    +0.078 A 
BRANCH  12  13
ATOM     13  C   UNL     1      -7.788   1.093  -0.515  0.00  0.00    +0.419 C 
ATOM     14  F   UNL     1      -9.139   0.750  -0.629  0.00  0.00    -0.166 F 
ATOM     15  F   UNL     1      -7.048   0.398  -1.478  0.00  0.00    -0.166 F 
ATOM     16  F   UNL     1      -7.327   0.753   0.762  0.00  0.00    -0.166 F 
ENDBRANCH  12  13
BRANCH  10  17
ATOM     17  N   UNL     1      -9.770   5.560  -1.471  0.00  0.00    +0.056 N 
ATOM     18  O   UNL     1      -9.641   6.758  -1.650  0.00  0.00    -0.126 OA
ATOM     19  O   UNL     1     -10.876   5.053  -1.523  0.00  0.00    -0.126 OA
ENDBRANCH  10  17
ENDBRANCH   5   7
ENDBRANCH   2   3
BRANCH   2  20
ATOM     20  S   UNL     1      -1.380   2.559  -1.218  0.00  0.00    -0.074 S 
BRANCH  20  21
ATOM     21  C   UNL     1      -0.196   1.339  -0.754  0.00  0.00    +0.193 A 
ATOM     22  N   UNL     1      -0.453   0.143  -0.280  0.00  0.00    -0.122 NA
ATOM     23  N   UNL     1       0.647  -0.483  -0.054  0.00  0.00    -0.133 NA
ATOM     24  C   UNL     1       1.663   0.270  -0.369  0.00  0.00    +0.139 A 
ATOM     25  N   UNL     1       1.163   1.458  -0.826  0.00  0.00    -0.303 N 
BRANCH  25  26
ATOM     26  C   UNL     1       1.926   2.617  -1.295  0.00  0.00    +0.091 C 
ATOM     27  C   UNL     1       1.181   3.947  -1.427  0.00  0.00    +0.027 C 
ATOM     28  C   UNL     1       1.590   3.170  -2.681  0.00  0.00    +0.027 C 
ENDBRANCH  25  26
BRANCH  24  29
ATOM     29  C   UNL     1       3.119  -0.100  -0.250  0.00  0.00    +0.118 C 
BRANCH  29  30
ATOM     30  C   UNL     1       3.580  -0.742  -1.533  0.00  0.00    -0.003 A 
ATOM     31  C   UNL     1       4.112  -0.161  -2.636  0.00  0.00    +0.011 A 
ATOM     32  C   UNL     1       4.467  -0.958  -3.708  0.00  0.00    +0.008 A 
ATOM     33  C   UNL     1       4.273  -2.296  -3.625  0.00  0.00    +0.045 A 
ATOM     34  S   UNL     1       3.575  -2.468  -1.991  0.00  0.00    -0.101 S 
ENDBRANCH  29  30
ENDBRANCH  24  29
ENDBRANCH  20  21
ENDBRANCH   2  20
TORSDOF 9
