REMARK  Name = ZINC40146701
REMARK  6 active torsions:
REMARK  status: ('A' for Active; 'I' for Inactive)
REMARK    1  A    between atoms: C_1  and  N_2
REMARK    2  A    between atoms: N_9  and  S_10
REMARK    3  A    between atoms: S_10  and  C_13
REMARK    4  A    between atoms: C_17  and  N_19
REMARK    5  A    between atoms: N_19  and  S_20
REMARK    6  A    between atoms: S_20  and  C_23
REMARK                            x       y       z     vdW  Elec       q    Type
REMARK                         _______ _______ _______ _____ _____    ______ ____
ROOT
ATOM      1  C   UNL     1       4.180  -1.300  -2.596  0.00  0.00    +0.114 A 
ATOM      2  C   UNL     1       3.908  -2.151  -3.652  0.00  0.00    +0.029 A 
ATOM      3  C   UNL     1       4.517  -1.952  -4.878  0.00  0.00    +0.004 A 
ATOM      4  C   UNL     1       5.397  -0.903  -5.052  0.00  0.00    +0.024 A 
ATOM      5  C   UNL     1       5.671  -0.046  -3.994  0.00  0.00    +0.050 A 
ATOM      6  C   UNL     1       5.054  -0.245  -2.765  0.00  0.00    +0.053 A 
ENDROOT
BRANCH   1   7
ATOM      7  S   UNL     1       3.402  -1.557  -1.036  0.00  0.00    +0.100 S 
ATOM      8  O   UNL     1       4.236  -0.946  -0.061  0.00  0.00    -0.146 OA
ATOM      9  O   UNL     1       3.048  -2.932  -0.981  0.00  0.00    -0.146 OA
BRANCH   7  18
ATOM     10  C   UNL     1      -0.018   1.461   0.010  0.00  0.00    +0.130 C 
ATOM     11  N   UNL     1       0.002  -0.004   0.002  0.00  0.00    -0.320 N 
ATOM     12  C   UNL     1      -1.211  -0.768   0.003  0.00  0.00    +0.106 C 
ATOM     13  C   UNL     1      -1.754  -1.162   1.387  0.00  0.00    +0.019 C 
ATOM     14  C   UNL     1      -0.595  -1.605   2.316  0.00  0.00    +0.002 C 
ATOM     15  C   UNL     1       0.437  -2.439   1.610  0.00  0.00    +0.008 C 
ATOM     16  C   UNL     1       1.553  -1.477   1.177  0.00  0.00    +0.073 C 
ATOM     17  C   UNL     1       1.210  -0.719  -0.013  0.00  0.00    +0.119 C 
ATOM     18  N   UNL     1       1.984  -0.703  -1.049  0.00  0.00    -0.118 NA
ENDBRANCH   7  18
ENDBRANCH   1   7
BRANCH   5  19
ATOM     19  N   UNL     1       6.561   1.017  -4.167  0.00  0.00    -0.216 N 
ATOM     20  H   UNL     1       7.237   1.198  -3.494  0.00  0.00    +0.174 HD
BRANCH  19  21
ATOM     21  S   UNL     1       6.463   1.968  -5.519  0.00  0.00    +0.072 S 
ATOM     22  O   UNL     1       7.470   2.962  -5.390  0.00  0.00    -0.150 OA
ATOM     23  O   UNL     1       6.401   1.087  -6.632  0.00  0.00    -0.150 OA
BRANCH  21  24
ATOM     24  C   UNL     1       4.915   2.807  -5.454  0.00  0.00    +0.109 A 
ATOM     25  C   UNL     1       3.790   2.218  -6.029  0.00  0.00    +0.029 A 
ATOM     26  C   UNL     1       2.580   2.840  -5.997  0.00  0.00    +0.010 A 
ATOM     27  C   UNL     1       2.459   4.095  -5.375  0.00  0.00    -0.018 A 
ATOM     28  C   UNL     1       1.226   4.767  -5.322  0.00  0.00    +0.008 A 
ATOM     29  C   UNL     1       1.147   5.981  -4.711  0.00  0.00    +0.001 A 
ATOM     30  C   UNL     1       2.272   6.570  -4.136  0.00  0.00    +0.001 A 
ATOM     31  C   UNL     1       3.482   5.948  -4.169  0.00  0.00    +0.008 A 
ATOM     32  C   UNL     1       3.603   4.694  -4.791  0.00  0.00    -0.016 A 
ATOM     33  C   UNL     1       4.835   4.019  -4.839  0.00  0.00    +0.037 A 
ENDBRANCH  21  24
ENDBRANCH  19  21
ENDBRANCH   5  19
TORSDOF 5
