REMARK  Name = ZINC05614197
REMARK  8 active torsions:
REMARK  status: ('A' for Active; 'I' for Inactive)
REMARK    1  A    between atoms: C_1  and  C_2
REMARK    2  A    between atoms: C_2  and  C_22
REMARK    3  A    between atoms: C_4  and  N_9
REMARK    4  A    between atoms: C_6  and  C_7
REMARK    5  A    between atoms: C_6  and  C_8
REMARK    6  A    between atoms: N_9  and  C_10
REMARK    7  A    between atoms: C_10  and  N_12
REMARK    8  A    between atoms: C_13  and  C_15
REMARK                            x       y       z     vdW  Elec       q    Type
REMARK                         _______ _______ _______ _____ _____    ______ ____
ROOT
ATOM      1  N   UNL     1       3.482   6.279   0.002  0.00  0.00    -0.324 N 
ATOM      2  H   UNL     1       4.327   5.802  -0.009  0.00  0.00    +0.148 HD
ENDROOT
BRANCH   1   6
ATOM      3  C   UNL     1       3.892  10.314   1.724  0.00  0.00    -0.010 C 
ATOM      4  C   UNL     1       4.803   9.786   0.609  0.00  0.00    -0.072 C 
ATOM      5  C   UNL     1       4.778   8.260   0.609  0.00  0.00    +0.009 C 
ATOM      6  C   UNL     1       3.469   7.748   0.009  0.00  0.00    +0.069 C 
ATOM      7  C   UNL     1       3.362   8.258  -1.428  0.00  0.00    +0.009 C 
ATOM      8  C   UNL     1       3.367   9.784  -1.452  0.00  0.00    -0.072 C 
ATOM      9  C   UNL     1       2.005  10.309  -0.983  0.00  0.00    -0.010 C 
ATOM     10  C   UNL     1       3.546  10.226  -2.921  0.00  0.00    -0.010 C 
ATOM     11  C   UNL     1       6.244  10.228   0.948  0.00  0.00    -0.010 C 
ATOM     12  N   UNL     1       4.483  10.418  -0.699  0.00  0.00    +0.386 N 
ATOM     13  H   UNL     1       5.325  10.378  -1.286  0.00  0.00    -0.084 HD
ATOM     14  H   UNL     1       4.233  11.399  -0.526  0.00  0.00    -0.084 HD
ENDBRANCH   1   6
BRANCH   1  15
ATOM     15  C   UNL     1       2.321   5.595   0.009  0.00  0.00    +0.137 C 
ATOM     16  S   UNL     1       0.831   6.438   0.027  0.00  0.00    -0.018 S 
BRANCH  15  17
ATOM     17  N   UNL     1       2.333   4.248   0.002  0.00  0.00    -0.264 N 
ATOM     18  C   UNL     1       1.172   3.563   0.009  0.00  0.00    +0.250 C 
ATOM     19  O   UNL     1       0.114   4.162   0.022  0.00  0.00    -0.270 OA
ATOM     20  H   UNL     1       3.177   3.770  -0.008  0.00  0.00    +0.157 HD
BRANCH  18  21
ATOM     21  C   UNL     1       1.185   2.086   0.002  0.00  0.00    +0.037 A 
ATOM     22  C   UNL     1      -0.017   1.375   0.010  0.00  0.00    +0.014 A 
ATOM     23  C   UNL     1       0.002  -0.004   0.002  0.00  0.00    +0.021 A 
ATOM     24  C   UNL     1       1.209  -0.683  -0.013  0.00  0.00    +0.041 A 
ATOM     25  C   UNL     1       2.404   0.017  -0.020  0.00  0.00    +0.021 A 
ATOM     26  C   UNL     1       2.399   1.396  -0.013  0.00  0.00    +0.014 A 
ATOM     27 CL   UNL     1       1.225  -2.419  -0.021  0.00  0.00    -0.084 Cl
ENDBRANCH  18  21
ENDBRANCH  15  17
ENDBRANCH   1  15
TORSDOF 4
