REMARK  Name = ZINC22410994
REMARK  7 active torsions:
REMARK  status: ('A' for Active; 'I' for Inactive)
REMARK    1  A    between atoms: C_3  and  C_21
REMARK    2  A    between atoms: C_5  and  N_7
REMARK    3  A    between atoms: N_7  and  S_8
REMARK    4  A    between atoms: S_8  and  C_11
REMARK    5  A    between atoms: C_15  and  S_17
REMARK    6  A    between atoms: S_17  and  N_20
REMARK    7  A    between atoms: N_23  and  C_24
REMARK                            x       y       z     vdW  Elec       q    Type
REMARK                         _______ _______ _______ _____ _____    ______ ____
ROOT
ATOM      1  S   UNL     1      -2.751   2.392  -5.235  0.00  0.00    +0.092 S 
ATOM      2  O   UNL     1      -2.174   3.136  -6.300  0.00  0.00    -0.148 OA
ATOM      3  O   UNL     1      -2.642   0.978  -5.148  0.00  0.00    -0.148 OA
ENDROOT
BRANCH   1   4
ATOM      4  C   UNL     1      -2.076   3.042  -3.743  0.00  0.00    +0.112 A 
ATOM      5  C   UNL     1      -1.587   4.335  -3.712  0.00  0.00    +0.029 A 
ATOM      6  C   UNL     1      -1.058   4.846  -2.541  0.00  0.00    +0.004 A 
ATOM      7  C   UNL     1      -1.023   4.065  -1.401  0.00  0.00    +0.028 A 
ATOM      8  C   UNL     1      -1.507   2.771  -1.433  0.00  0.00    +0.107 A 
ATOM      9  C   UNL     1      -2.036   2.260  -2.604  0.00  0.00    +0.057 A 
BRANCH   8  10
ATOM     10  S   UNL     1      -1.456   1.774   0.019  0.00  0.00    +0.056 S 
ATOM     11  O   UNL     1      -2.472   0.792  -0.128  0.00  0.00    -0.153 OA
ATOM     12  O   UNL     1      -1.413   2.667   1.123  0.00  0.00    -0.153 OA
BRANCH  10  13
ATOM     13  N   UNL     1      -0.011   0.966   0.007  0.00  0.00    -0.204 NA
ATOM     14  H   UNL     1       0.060   0.329   0.902  0.00  0.00    +0.144 HD
ATOM     15  H   UNL     1       0.815   1.692   0.007  0.00  0.00    +0.144 HD
ENDBRANCH  10  13
ENDBRANCH   8  10
ENDBRANCH   1   4
BRANCH   1  16
ATOM     16  N   UNL     1      -4.369   2.742  -5.235  0.00  0.00    -0.098 NA
BRANCH  16  21
ATOM     17  C   UNL     1      -4.625   6.271  -6.242  0.00  0.00    +0.003 A 
ATOM     18  C   UNL     1      -5.631   6.717  -5.409  0.00  0.00    +0.013 A 
ATOM     19  C   UNL     1      -6.230   5.838  -4.505  0.00  0.00    +0.039 A 
ATOM     20  C   UNL     1      -5.812   4.508  -4.452  0.00  0.00    +0.039 A 
ATOM     21  C   UNL     1      -4.796   4.072  -5.288  0.00  0.00    +0.075 A 
ATOM     22  C   UNL     1      -4.206   4.955  -6.185  0.00  0.00    +0.027 A 
BRANCH  19  23
ATOM     23  C   UNL     1      -7.309   6.312  -3.613  0.00  0.00    +0.244 C 
ATOM     24  O   UNL     1      -7.830   5.545  -2.827  0.00  0.00    -0.270 OA
ATOM     25  N   UNL     1      -7.716   7.596  -3.671  0.00  0.00    -0.308 N 
ATOM     26  H   UNL     1      -7.245   8.290  -4.382  0.00  0.00    +0.149 HD
BRANCH  25  27
ATOM     27  C   UNL     1      -8.785   8.066  -2.786  0.00  0.00    +0.073 C 
ATOM     28  C   UNL     1      -9.866   8.960  -3.398  0.00  0.00    +0.024 C 
ATOM     29  C   UNL     1      -8.821   9.559  -2.453  0.00  0.00    +0.024 C 
ENDBRANCH  25  27
ENDBRANCH  19  23
ENDBRANCH  16  21
ENDBRANCH   1  16
TORSDOF 7
