REMARK  Name = ZINC49515353
REMARK  4 active torsions:
REMARK  status: ('A' for Active; 'I' for Inactive)
REMARK    1  A    between atoms: C_1  and  C_2
REMARK    2  A    between atoms: C_2  and  C_4
REMARK    3  A    between atoms: C_2  and  N_11
REMARK    4  A    between atoms: N_11  and  C_12
REMARK                            x       y       z     vdW  Elec       q    Type
REMARK                         _______ _______ _______ _____ _____    ______ ____
ROOT
ATOM      1  N   UNL     1       0.711  -0.489   1.189  0.00  0.00    -0.333 N 
ATOM      2  H   UNL     1       1.654  -0.707   1.135  0.00  0.00    +0.147 HD
ENDROOT
BRANCH   1   3
ATOM      3  C   UNL     1       0.021  -0.640   2.409  0.00  0.00    +0.087 A 
ATOM      4  C   UNL     1      -1.292  -0.380   2.621  0.00  0.00    +0.129 A 
ATOM      5  N   UNL     1      -1.562  -0.653   3.927  0.00  0.00    -0.281 N 
ATOM      6  H   UNL     1      -2.423  -0.560   4.363  0.00  0.00    +0.188 HD
ATOM      7  N   UNL     1      -0.376  -1.094   4.529  0.00  0.00    -0.157 NA
ATOM      8  C   UNL     1       0.572  -1.094   3.622  0.00  0.00    +0.159 A 
ATOM      9  N   UNL     1       1.905  -1.475   3.828  0.00  0.00    -0.340 N 
ATOM     10  H   UNL     1       2.538  -1.438   3.094  0.00  0.00    +0.144 HD
ATOM     11  H   UNL     1       2.194  -1.776   4.703  0.00  0.00    +0.144 HD
ENDBRANCH   1   3
BRANCH   1  13
ATOM     12  C   UNL     1      -0.019   1.526   0.010  0.00  0.00    +0.033 C 
ATOM     13  C   UNL     1       0.002  -0.004   0.002  0.00  0.00    +0.098 C 
BRANCH  13  14
ATOM     14  C   UNL     1       0.707  -0.490  -1.238  0.00  0.00    -0.026 A 
ATOM     15  C   UNL     1       2.089  -0.511  -1.284  0.00  0.00    +0.005 A 
ATOM     16  C   UNL     1       2.737  -0.956  -2.421  0.00  0.00    +0.002 A 
ATOM     17  C   UNL     1       2.003  -1.381  -3.513  0.00  0.00    +0.020 A 
ATOM     18  C   UNL     1       0.621  -1.361  -3.467  0.00  0.00    +0.041 A 
ATOM     19  C   UNL     1      -0.027  -0.920  -2.327  0.00  0.00    +0.025 A 
ATOM     20 CL   UNL     1      -0.301  -1.894  -4.838  0.00  0.00    -0.084 Cl
ENDBRANCH  13  14
ENDBRANCH   1  13
TORSDOF 3
