REMARK  Name = ZINC22522728
REMARK  12 active torsions:
REMARK  status: ('A' for Active; 'I' for Inactive)
REMARK    1  A    between atoms: C_1  and  C_2
REMARK    2  A    between atoms: C_2  and  C_4
REMARK    3  A    between atoms: C_2  and  N_31
REMARK    4  A    between atoms: C_7  and  S_16
REMARK    5  A    between atoms: N_8  and  C_9
REMARK    6  A    between atoms: S_16  and  C_17
REMARK    7  A    between atoms: C_17  and  C_18
REMARK    8  A    between atoms: N_20  and  C_21
REMARK    9  A    between atoms: C_24  and  S_27
REMARK   10  A    between atoms: S_27  and  C_28
REMARK   11  A    between atoms: N_31  and  C_32
REMARK   12  A    between atoms: N_31  and  C_33
REMARK                            x       y       z     vdW  Elec       q    Type
REMARK                         _______ _______ _______ _____ _____    ______ ____
ROOT
ATOM      1  C   UNL     1      -1.517   3.766   0.021  0.00  0.00    +0.125 A 
ATOM      2  N   UNL     1      -1.600   3.191  -1.145  0.00  0.00    -0.135 NA
ATOM      3  N   UNL     1      -2.526   3.743  -1.845  0.00  0.00    -0.122 NA
ATOM      4  C   UNL     1      -3.084   4.715  -1.162  0.00  0.00    +0.197 A 
ATOM      5  N   UNL     1      -2.457   4.761   0.053  0.00  0.00    -0.275 N 
ENDROOT
BRANCH   5   6
ATOM      6  C   UNL     1      -2.723   5.644   1.111  0.00  0.00    +0.050 A 
ATOM      7  C   UNL     1      -3.223   5.159   2.311  0.00  0.00    +0.028 A 
ATOM      8  C   UNL     1      -3.478   6.029   3.353  0.00  0.00    +0.022 A 
ATOM      9  C   UNL     1      -3.246   7.384   3.197  0.00  0.00    +0.041 A 
ATOM     10  C   UNL     1      -2.752   7.870   1.999  0.00  0.00    +0.022 A 
ATOM     11  C   UNL     1      -2.490   7.003   0.956  0.00  0.00    +0.028 A 
ATOM     12 CL   UNL     1      -3.574   8.476   4.506  0.00  0.00    -0.084 Cl
ENDBRANCH   5   6
BRANCH   1  14
ATOM     13  C   UNL     1       0.842   3.912   0.773  0.00  0.00    -0.005 C 
ATOM     14  C   UNL     1      -0.558   3.407   1.128  0.00  0.00    -0.003 C 
BRANCH  14  15
ATOM     15  N   UNL     1      -0.526   1.948   1.293  0.00  0.00    +0.382 N 
ATOM     16  C   UNL     1       0.049   1.297   0.108  0.00  0.00    -0.096 C 
ATOM     17  C   UNL     1       0.209   1.572   2.508  0.00  0.00    -0.096 C 
ATOM     18  H   UNL     1      -1.562   1.597   1.402  0.00  0.00    -0.082 HD
ENDBRANCH  14  15
ENDBRANCH   1  14
BRANCH   4  19
ATOM     19  S   UNL     1      -4.393   5.761  -1.707  0.00  0.00    -0.076 S 
BRANCH  19  20
ATOM     20  C   UNL     1      -4.663   5.090  -3.366  0.00  0.00    +0.173 C 
BRANCH  20  21
ATOM     21  C   UNL     1      -5.772   5.853  -4.042  0.00  0.00    +0.227 C 
ATOM     22  O   UNL     1      -6.326   6.762  -3.460  0.00  0.00    -0.275 OA
ATOM     23  N   UNL     1      -6.149   5.526  -5.294  0.00  0.00    -0.285 N 
ATOM     24  H   UNL     1      -5.591   4.762  -5.855  0.00  0.00    +0.155 HD
BRANCH  23  25
ATOM     25  C   UNL     1      -7.252   6.160  -5.882  0.00  0.00    +0.033 A 
ATOM     26  C   UNL     1      -8.330   6.548  -5.098  0.00  0.00    +0.024 A 
ATOM     27  C   UNL     1      -9.414   7.177  -5.676  0.00  0.00    +0.017 A 
ATOM     28  C   UNL     1      -9.431   7.413  -7.045  0.00  0.00    +0.013 A 
ATOM     29  C   UNL     1      -8.354   7.021  -7.830  0.00  0.00    +0.017 A 
ATOM     30  C   UNL     1      -7.268   6.396  -7.251  0.00  0.00    +0.024 A 
BRANCH  28  31
ATOM     31  S   UNL     1     -10.817   8.211  -7.784  0.00  0.00    -0.056 S 
BRANCH  31  32
ATOM     32  C   UNL     1     -11.938   8.524  -6.392  0.00  0.00    +0.404 C 
ATOM     33  F   UNL     1     -12.287   7.309  -5.793  0.00  0.00    -0.197 F 
ATOM     34  F   UNL     1     -11.298   9.340  -5.453  0.00  0.00    -0.197 F 
ENDBRANCH  31  32
ENDBRANCH  28  31
ENDBRANCH  23  25
ENDBRANCH  20  21
ENDBRANCH  19  20
ENDBRANCH   4  19
TORSDOF 9
