REMARK  Name = ZINC59427937
REMARK  14 active torsions:
REMARK  status: ('A' for Active; 'I' for Inactive)
REMARK    1  A    between atoms: C_1  and  C_2
REMARK    2  A    between atoms: C_5  and  S_8
REMARK    3  A    between atoms: S_8  and  N_11
REMARK    4  A    between atoms: N_11  and  C_12
REMARK    5  A    between atoms: N_11  and  C_20
REMARK    6  A    between atoms: C_12  and  C_13
REMARK    7  A    between atoms: C_13  and  C_14
REMARK    8  A    between atoms: C_20  and  C_21
REMARK    9  A    between atoms: N_23  and  N_24
REMARK   10  A    between atoms: C_25  and  C_26
REMARK   11  A    between atoms: C_30  and  O_34
REMARK   12  A    between atoms: C_31  and  O_32
REMARK   13  A    between atoms: O_32  and  C_33
REMARK   14  A    between atoms: O_34  and  C_35
REMARK                            x       y       z     vdW  Elec       q    Type
REMARK                         _______ _______ _______ _____ _____    ______ ____
ROOT
ATOM      1  N   UNL     1       1.651  -4.999  -0.034  0.00  0.00    -0.167 NA
ENDROOT
BRANCH   1   2
ATOM      2  S   UNL     1       0.063  -4.530  -0.023  0.00  0.00    +0.061 S 
ATOM      3  O   UNL     1      -0.476  -4.950   1.223  0.00  0.00    -0.153 OA
ATOM      4  O   UNL     1      -0.490  -4.937  -1.267  0.00  0.00    -0.153 OA
BRANCH   2   9
ATOM      5  C   UNL     1      -0.018   1.503   0.010  0.00  0.00    +0.044 C 
ATOM      6  C   UNL     1       0.002  -0.004   0.002  0.00  0.00    -0.050 A 
ATOM      7  C   UNL     1       0.006  -0.689  -1.199  0.00  0.00    +0.005 A 
ATOM      8  C   UNL     1       0.025  -2.071  -1.206  0.00  0.00    +0.029 A 
ATOM      9  C   UNL     1       0.040  -2.768  -0.013  0.00  0.00    +0.106 A 
ATOM     10  C   UNL     1       0.037  -2.084   1.188  0.00  0.00    +0.029 A 
ATOM     11  C   UNL     1       0.023  -0.702   1.195  0.00  0.00    +0.005 A 
ENDBRANCH   2   9
ENDBRANCH   1   2
BRANCH   1  12
ATOM     12  C   UNL     1       2.360  -5.214   1.229  0.00  0.00    +0.114 C 
BRANCH  12  13
ATOM     13  C   UNL     1       2.304  -6.697   1.601  0.00  0.00    +0.052 C 
BRANCH  13  14
ATOM     14  C   UNL     1       3.034  -6.918   2.900  0.00  0.00    -0.046 A 
ATOM     15  C   UNL     1       4.387  -7.202   2.894  0.00  0.00    +0.003 A 
ATOM     16  C   UNL     1       5.056  -7.405   4.086  0.00  0.00    +0.000 A 
ATOM     17  C   UNL     1       4.373  -7.322   5.285  0.00  0.00    +0.000 A 
ATOM     18  C   UNL     1       3.021  -7.036   5.292  0.00  0.00    +0.000 A 
ATOM     19  C   UNL     1       2.352  -6.830   4.100  0.00  0.00    +0.003 A 
ENDBRANCH  13  14
ENDBRANCH  12  13
ENDBRANCH   1  12
BRANCH   1  20
ATOM     20  C   UNL     1       2.346  -5.200  -1.308  0.00  0.00    +0.206 C 
BRANCH  20  21
ATOM     21  C   UNL     1       3.089  -3.942  -1.678  0.00  0.00    +0.248 C 
ATOM     22  O   UNL     1       3.042  -2.973  -0.950  0.00  0.00    -0.273 OA
ATOM     23  N   UNL     1       3.805  -3.894  -2.819  0.00  0.00    -0.206 N 
ATOM     24  H   UNL     1       3.843  -4.668  -3.401  0.00  0.00    +0.177 HD
BRANCH  23  25
ATOM     25  N   UNL     1       4.496  -2.724  -3.163  0.00  0.00    -0.188 NA
ATOM     26  C   UNL     1       5.186  -2.678  -4.262  0.00  0.00    +0.142 C 
BRANCH  26  27
ATOM     27  C   UNL     1       5.912  -1.447  -4.624  0.00  0.00    +0.040 A 
ATOM     28  C   UNL     1       6.651  -1.391  -5.809  0.00  0.00    +0.013 A 
ATOM     29  C   UNL     1       7.330  -0.239  -6.144  0.00  0.00    +0.004 A 
ATOM     30  C   UNL     1       7.283   0.867  -5.312  0.00  0.00    +0.049 A 
ATOM     31  C   UNL     1       6.554   0.826  -4.134  0.00  0.00    +0.162 A 
ATOM     32  C   UNL     1       5.860  -0.327  -3.786  0.00  0.00    +0.170 A 
BRANCH  32  33
ATOM     33  O   UNL     1       5.139  -0.369  -2.635  0.00  0.00    -0.491 OA
ATOM     34  C   UNL     1       5.821  -0.810  -1.458  0.00  0.00    +0.277 C 
ENDBRANCH  32  33
BRANCH  31  35
ATOM     35  O   UNL     1       6.513   1.916  -3.322  0.00  0.00    -0.491 OA
ATOM     36  C   UNL     1       7.244   3.068  -3.745  0.00  0.00    +0.277 C 
ENDBRANCH  31  35
ENDBRANCH  26  27
ENDBRANCH  23  25
ENDBRANCH  20  21
ENDBRANCH   1  20
TORSDOF 11
