REMARK  Name = ZINC08933537
REMARK  9 active torsions:
REMARK  status: ('A' for Active; 'I' for Inactive)
REMARK    1  A    between atoms: C_1  and  C_2
REMARK    2  A    between atoms: C_2  and  C_4
REMARK    3  A    between atoms: C_2  and  N_12
REMARK    4  A    between atoms: C_4  and  C_5
REMARK    5  A    between atoms: C_5  and  C_6
REMARK    6  A    between atoms: C_13  and  C_15
REMARK    7  A    between atoms: C_15  and  N_16
REMARK    8  A    between atoms: N_29  and  C_30
REMARK    9  A    between atoms: C_30  and  C_31
REMARK                            x       y       z     vdW  Elec       q    Type
REMARK                         _______ _______ _______ _____ _____    ______ ____
ROOT
ATOM      1  N   UNL     1      -1.619   7.713   0.054  0.00  0.00    -0.219 N 
ATOM      2  C   UNL     1      -2.388   6.606   0.056  0.00  0.00    +0.292 A 
ATOM      3  O   UNL     1      -3.605   6.702   0.066  0.00  0.00    -0.264 OA
ATOM      4  C   UNL     1      -1.771   5.333   0.045  0.00  0.00    +0.119 A 
ATOM      5  C   UNL     1      -0.378   5.268   0.032  0.00  0.00    +0.033 A 
ATOM      6  C   UNL     1       0.376   6.460   0.030  0.00  0.00    +0.143 A 
ATOM      7  N   UNL     1      -0.224   7.618   0.041  0.00  0.00    -0.175 NA
ATOM      8  C   UNL     1      -0.026   3.841   0.022  0.00  0.00    +0.009 A 
ATOM      9  C   UNL     1       1.183   3.146   0.007  0.00  0.00    +0.010 A 
ATOM     10  C   UNL     1       1.183   1.780   0.000  0.00  0.00    +0.001 A 
ATOM     11  C   UNL     1      -0.013   1.076   0.008  0.00  0.00    +0.002 A 
ATOM     12  C   UNL     1      -1.218   1.742   0.017  0.00  0.00    +0.026 A 
ATOM     13  C   UNL     1      -1.241   3.135   0.030  0.00  0.00    +0.051 A 
ATOM     14  N   UNL     1      -2.272   4.050   0.043  0.00  0.00    -0.331 N 
ENDROOT
BRANCH   1  15
ATOM     15  C   UNL     1      -2.252   9.034   0.066  0.00  0.00    +0.243 C 
BRANCH  15  17
ATOM     16  N   UNL     1      -3.028  10.674   1.748  0.00  0.00    -0.311 N 
ATOM     17  C   UNL     1      -2.457   9.480   1.491  0.00  0.00    +0.235 C 
ATOM     18  O   UNL     1      -2.107   8.766   2.406  0.00  0.00    -0.274 OA
ATOM     19  H   UNL     1      -3.307  11.246   1.015  0.00  0.00    +0.149 HD
BRANCH  16  21
ATOM     20  C   UNL     1      -4.540  10.530   3.665  0.00  0.00    +0.028 C 
ATOM     21  C   UNL     1      -3.227  11.108   3.132  0.00  0.00    +0.070 C 
BRANCH  21  22
ATOM     22  C   UNL     1      -3.283  12.636   3.185  0.00  0.00    +0.026 C 
BRANCH  22  23
ATOM     23  C   UNL     1      -1.927  13.211   2.771  0.00  0.00    +0.037 C 
BRANCH  23  24
ATOM     24  C   UNL     1      -1.983  14.716   2.823  0.00  0.00    -0.047 A 
ATOM     25  C   UNL     1      -2.363  15.433   1.703  0.00  0.00    +0.003 A 
ATOM     26  C   UNL     1      -2.419  16.813   1.752  0.00  0.00    +0.000 A 
ATOM     27  C   UNL     1      -2.085  17.477   2.918  0.00  0.00    +0.000 A 
ATOM     28  C   UNL     1      -1.700  16.761   4.036  0.00  0.00    +0.000 A 
ATOM     29  C   UNL     1      -1.649  15.381   3.988  0.00  0.00    +0.003 A 
ENDBRANCH  23  24
ENDBRANCH  22  23
ENDBRANCH  21  22
ENDBRANCH  16  21
ENDBRANCH  15  17
ENDBRANCH   1  15
BRANCH  14  30
ATOM     30  C   UNL     1      -3.696   3.707   0.054  0.00  0.00    +0.157 C 
BRANCH  30  31
ATOM     31  C   UNL     1      -4.197   3.596  -1.363  0.00  0.00    -0.028 A 
ATOM     32  C   UNL     1      -4.712   4.708  -2.003  0.00  0.00    +0.007 A 
ATOM     33  C   UNL     1      -5.166   4.607  -3.304  0.00  0.00    +0.020 A 
ATOM     34  C   UNL     1      -5.116   3.392  -3.963  0.00  0.00    +0.041 A 
ATOM     35  C   UNL     1      -4.606   2.278  -3.320  0.00  0.00    +0.020 A 
ATOM     36  C   UNL     1      -4.147   2.381  -2.020  0.00  0.00    +0.007 A 
ATOM     37 CL   UNL     1      -5.692   3.264  -5.595  0.00  0.00    -0.084 Cl
ENDBRANCH  30  31
ENDBRANCH  14  30
TORSDOF 8
