REMARK  Name = ZINC40777962
REMARK  7 active torsions:
REMARK  status: ('A' for Active; 'I' for Inactive)
REMARK    1  A    between atoms: C_4  and  C_7
REMARK    2  A    between atoms: C_7  and  N_8
REMARK    3  A    between atoms: C_16  and  N_35
REMARK    4  A    between atoms: C_17  and  N_21
REMARK    5  A    between atoms: N_21  and  N_22
REMARK    6  A    between atoms: N_22  and  C_23
REMARK    7  A    between atoms: N_22  and  C_29
REMARK                            x       y       z     vdW  Elec       q    Type
REMARK                         _______ _______ _______ _____ _____    ______ ____
ROOT
ATOM      1  N   UNL     1       3.984  -1.578   1.714  0.00  0.00    -0.264 N 
ATOM      2  C   UNL     1       2.601  -1.454   1.809  0.00  0.00    +0.127 A 
ATOM      3  C   UNL     1       1.784  -2.475   1.334  0.00  0.00    +0.044 A 
ATOM      4  C   UNL     1       0.411  -2.339   1.434  0.00  0.00    +0.005 A 
ATOM      5  C   UNL     1      -0.100  -1.182   2.009  0.00  0.00    +0.020 A 
ATOM      6  C   UNL     1       0.770  -0.210   2.459  0.00  0.00    +0.113 A 
ATOM      7  N   UNL     1       2.076  -0.369   2.355  0.00  0.00    -0.240 NA
ATOM      8  C   UNL     1       4.810  -0.650   2.341  0.00  0.00    +0.153 A 
ATOM      9  C   UNL     1       5.310  -0.897   3.620  0.00  0.00    +0.105 A 
ATOM     10  C   UNL     1       6.135   0.067   4.203  0.00  0.00    +0.139 A 
ATOM     11  N   UNL     1       6.410   1.177   3.522  0.00  0.00    -0.332 N 
ATOM     12  C   UNL     1       5.917   1.371   2.316  0.00  0.00    +0.200 A 
ATOM     13  N   UNL     1       5.139   0.484   1.728  0.00  0.00    -0.220 NA
ATOM     14  H   UNL     1       6.981   1.852   3.920  0.00  0.00    +0.168 HD
ENDROOT
BRANCH   9  15
ATOM     15  N   UNL     1       4.993  -2.083   4.302  0.00  0.00    -0.353 N 
ATOM     16  H   UNL     1       4.489  -2.780   3.854  0.00  0.00    +0.143 HD
ATOM     17  H   UNL     1       5.278  -2.205   5.222  0.00  0.00    +0.143 HD
ENDBRANCH   9  15
BRANCH  10  18
ATOM     18  N   UNL     1       6.659  -0.129   5.475  0.00  0.00    -0.243 N 
ATOM     19  H   UNL     1       6.454  -0.940   5.965  0.00  0.00    +0.172 HD
BRANCH  18  20
ATOM     20  N   UNL     1       7.485   0.846   6.050  0.00  0.00    -0.221 N 
BRANCH  20  21
ATOM     21  C   UNL     1       6.930   2.028   6.546  0.00  0.00    +0.053 A 
ATOM     22  C   UNL     1       5.628   2.036   7.030  0.00  0.00    +0.025 A 
ATOM     23  C   UNL     1       5.082   3.206   7.520  0.00  0.00    +0.002 A 
ATOM     24  C   UNL     1       5.830   4.369   7.529  0.00  0.00    +0.000 A 
ATOM     25  C   UNL     1       7.127   4.365   7.048  0.00  0.00    +0.002 A 
ATOM     26  C   UNL     1       7.681   3.197   6.562  0.00  0.00    +0.025 A 
ENDBRANCH  20  21
BRANCH  20  27
ATOM     27  C   UNL     1       8.864   0.636   6.127  0.00  0.00    +0.053 A 
ATOM     28  C   UNL     1       9.539   0.872   7.318  0.00  0.00    +0.025 A 
ATOM     29  C   UNL     1      10.903   0.664   7.390  0.00  0.00    +0.002 A 
ATOM     30  C   UNL     1      11.596   0.220   6.279  0.00  0.00    +0.000 A 
ATOM     31  C   UNL     1      10.927  -0.015   5.092  0.00  0.00    +0.002 A 
ATOM     32  C   UNL     1       9.563   0.185   5.014  0.00  0.00    +0.025 A 
ENDBRANCH  20  27
ENDBRANCH  18  20
ENDBRANCH  10  18
BRANCH   1  33
ATOM     33  C   UNL     1       4.570  -2.685   0.954  0.00  0.00    +0.149 C 
BRANCH  33  37
ATOM     34  C   UNL     1       5.116  -1.493  -3.111  0.00  0.00    +0.000 A 
ATOM     35  C   UNL     1       6.124  -1.286  -2.189  0.00  0.00    +0.000 A 
ATOM     36  C   UNL     1       5.948  -1.671  -0.873  0.00  0.00    +0.005 A 
ATOM     37  C   UNL     1       4.762  -2.264  -0.480  0.00  0.00    -0.030 A 
ATOM     38  C   UNL     1       3.753  -2.470  -1.402  0.00  0.00    +0.005 A 
ATOM     39  C   UNL     1       3.931  -2.086  -2.718  0.00  0.00    +0.000 A 
ENDBRANCH  33  37
ENDBRANCH   1  33
TORSDOF 7
