REMARK  Name = ZINC03363331
REMARK  9 active torsions:
REMARK  status: ('A' for Active; 'I' for Inactive)
REMARK    1  A    between atoms: C_4  and  C_7
REMARK    2  A    between atoms: C_7  and  C_8
REMARK    3  A    between atoms: C_8  and  N_9
REMARK    4  A    between atoms: N_9  and  C_10
REMARK    5  A    between atoms: N_9  and  S_24
REMARK    6  A    between atoms: C_10  and  C_11
REMARK    7  A    between atoms: N_13  and  C_14
REMARK    8  A    between atoms: C_14  and  C_15
REMARK    9  A    between atoms: S_24  and  C_27
REMARK                            x       y       z     vdW  Elec       q    Type
REMARK                         _______ _______ _______ _____ _____    ______ ____
ROOT
ATOM      1  N   UNL     1      -0.020   1.094   2.454  0.00  0.00    -0.167 NA
ENDROOT
BRANCH   1   2
ATOM      2  S   UNL     1      -0.512  -0.301   3.199  0.00  0.00    +0.061 S 
ATOM      3  O   UNL     1      -0.191  -0.160   4.576  0.00  0.00    -0.153 OA
ATOM      4  O   UNL     1      -1.835  -0.558   2.748  0.00  0.00    -0.153 OA
BRANCH   2   5
ATOM      5  C   UNL     1       0.495  -1.606   2.578  0.00  0.00    +0.106 A 
ATOM      6  C   UNL     1       0.097  -2.313   1.459  0.00  0.00    +0.029 A 
ATOM      7  C   UNL     1       0.888  -3.335   0.969  0.00  0.00    +0.017 A 
ATOM      8  C   UNL     1       2.074  -3.656   1.604  0.00  0.00    +0.018 A 
ATOM      9  C   UNL     1       2.470  -2.952   2.727  0.00  0.00    +0.017 A 
ATOM     10  C   UNL     1       1.680  -1.927   3.213  0.00  0.00    +0.029 A 
ATOM     11 BR   UNL     1       3.155  -5.058   0.938  0.00  0.00    -0.050 Br
ENDBRANCH   2   5
ENDBRANCH   1   2
BRANCH   1  12
ATOM     12  C   UNL     1      -0.729   1.579   1.267  0.00  0.00    +0.114 C 
BRANCH  12  13
ATOM     13  C   UNL     1      -0.013   1.086   0.008  0.00  0.00    +0.052 C 
BRANCH  13  17
ATOM     14  C   UNL     1      -2.079   2.501  -3.453  0.00  0.00    +0.000 A 
ATOM     15  C   UNL     1      -1.066   3.259  -2.894  0.00  0.00    +0.000 A 
ATOM     16  C   UNL     1      -0.398   2.801  -1.774  0.00  0.00    +0.003 A 
ATOM     17  C   UNL     1      -0.742   1.585  -1.213  0.00  0.00    -0.046 A 
ATOM     18  C   UNL     1      -1.750   0.825  -1.775  0.00  0.00    +0.003 A 
ATOM     19  C   UNL     1      -2.422   1.285  -2.892  0.00  0.00    +0.000 A 
ENDBRANCH  13  17
ENDBRANCH  12  13
ENDBRANCH   1  12
BRANCH   1  20
ATOM     20  C   UNL     1       1.123   1.842   2.981  0.00  0.00    +0.205 C 
BRANCH  20  21
ATOM     21  C   UNL     1       0.631   2.932   3.898  0.00  0.00    +0.229 C 
ATOM     22  O   UNL     1      -0.558   3.070   4.092  0.00  0.00    -0.274 OA
ATOM     23  N   UNL     1       1.512   3.753   4.503  0.00  0.00    -0.310 N 
ATOM     24  H   UNL     1       2.463   3.643   4.348  0.00  0.00    +0.149 HD
BRANCH  23  25
ATOM     25  C   UNL     1       1.033   4.812   5.394  0.00  0.00    +0.139 C 
BRANCH  25  26
ATOM     26  C   UNL     1       2.210   5.582   5.937  0.00  0.00    -0.027 A 
ATOM     27  C   UNL     1       2.809   5.185   7.118  0.00  0.00    +0.009 A 
ATOM     28  C   UNL     1       3.892   5.884   7.617  0.00  0.00    +0.050 A 
ATOM     29  C   UNL     1       4.372   6.994   6.940  0.00  0.00    +0.166 A 
ATOM     30  C   UNL     1       3.765   7.397   5.753  0.00  0.00    +0.167 A 
ATOM     31  C   UNL     1       2.684   6.688   5.256  0.00  0.00    +0.054 A 
ATOM     32  O   UNL     1       4.415   8.503   5.285  0.00  0.00    -0.453 OA
ATOM     33  C   UNL     1       5.163   9.012   6.404  0.00  0.00    +0.466 C 
ATOM     34  O   UNL     1       5.402   7.846   7.215  0.00  0.00    -0.453 OA
ENDBRANCH  25  26
ENDBRANCH  23  25
ENDBRANCH  20  21
ENDBRANCH   1  20
TORSDOF 9
