REMARK  Name = ZINC03438572
REMARK  11 active torsions:
REMARK  status: ('A' for Active; 'I' for Inactive)
REMARK    1  A    between atoms: C_1  and  C_2
REMARK    2  A    between atoms: C_2  and  C_3
REMARK    3  A    between atoms: C_3  and  C_5
REMARK    4  A    between atoms: C_3  and  N_64
REMARK    5  A    between atoms: C_8  and  S_18
REMARK    6  A    between atoms: N_9  and  C_10
REMARK    7  A    between atoms: C_13  and  O_16
REMARK    8  A    between atoms: O_16  and  C_17
REMARK    9  A    between atoms: S_18  and  C_19
REMARK   10  A    between atoms: C_33  and  N_64
REMARK   11  A    between atoms: C_34  and  N_64
REMARK                            x       y       z     vdW  Elec       q    Type
REMARK                         _______ _______ _______ _____ _____    ______ ____
ROOT
ATOM      1  C   UNL     1       5.249   7.888  -0.334  0.00  0.00    +0.125 A 
ATOM      2  N   UNL     1       3.978   8.150  -0.453  0.00  0.00    -0.135 NA
ATOM      3  N   UNL     1       3.323   7.067  -0.677  0.00  0.00    -0.122 NA
ATOM      4  C   UNL     1       4.146   6.045  -0.704  0.00  0.00    +0.202 A 
ATOM      5  N   UNL     1       5.403   6.537  -0.490  0.00  0.00    -0.275 N 
ENDROOT
BRANCH   5   6
ATOM      6  C   UNL     1       6.603   5.809  -0.439  0.00  0.00    +0.050 A 
ATOM      7  C   UNL     1       7.327   5.746   0.744  0.00  0.00    +0.030 A 
ATOM      8  C   UNL     1       8.503   5.025   0.794  0.00  0.00    +0.047 A 
ATOM      9  C   UNL     1       8.967   4.374  -0.339  0.00  0.00    +0.120 A 
ATOM     10  C   UNL     1       8.247   4.442  -1.523  0.00  0.00    +0.047 A 
ATOM     11  C   UNL     1       7.067   5.158  -1.573  0.00  0.00    +0.030 A 
BRANCH   9  12
ATOM     12  O   UNL     1      10.129   3.668  -0.290  0.00  0.00    -0.495 OA
ATOM     13  C   UNL     1      10.819   3.641   0.961  0.00  0.00    +0.277 C 
ENDBRANCH   9  12
ENDBRANCH   5   6
BRANCH   1  14
ATOM     14  C   UNL     1       6.346   8.888  -0.074  0.00  0.00    +0.000 C 
BRANCH  14  17
ATOM     15  C   UNL     1       6.194   9.677  -2.359  0.00  0.00    -0.096 C 
ATOM     16  C   UNL     1       4.905  10.757  -0.617  0.00  0.00    -0.096 C 
ATOM     17  N   UNL     1       6.178  10.078  -0.936  0.00  0.00    +0.383 N 
ATOM     18  H   UNL     1       6.955  10.727  -0.764  0.00  0.00    -0.082 HD
ENDBRANCH  14  17
BRANCH  14  20
ATOM     19  C   UNL     1       7.470  10.271   1.677  0.00  0.00    +0.002 C 
ATOM     20  C   UNL     1       6.301   9.325   1.391  0.00  0.00    -0.011 C 
ENDBRANCH  14  20
ENDBRANCH   1  14
BRANCH   4  21
ATOM     21  S   UNL     1       3.713   4.358  -0.973  0.00  0.00    -0.029 S 
BRANCH  21  22
ATOM     22  C   UNL     1       1.969   4.516  -1.162  0.00  0.00    +0.116 A 
ATOM     23  C   UNL     1       1.163   3.369  -1.406  0.00  0.00    +0.043 A 
ATOM     24  C   UNL     1       1.581   1.968  -1.532  0.00  0.00    -0.025 A 
ATOM     25  C   UNL     1       0.609   1.066  -1.778  0.00  0.00    -0.004 A 
ATOM     26  S   UNL     1      -0.895   2.005  -1.841  0.00  0.00    -0.073 S 
ATOM     27  C   UNL     1      -0.217   3.616  -1.543  0.00  0.00    +0.113 A 
ATOM     28  N   UNL     1      -0.712   4.835  -1.444  0.00  0.00    -0.228 NA
ATOM     29  C   UNL     1       0.085   5.861  -1.215  0.00  0.00    +0.223 A 
ATOM     30  N   UNL     1       1.389   5.703  -1.078  0.00  0.00    -0.228 NA
ATOM     31  C   UNL     1       0.757  -0.412  -1.966  0.00  0.00    +0.043 C 
ATOM     32  C   UNL     1       1.615  -0.986  -0.831  0.00  0.00    +0.005 C 
ATOM     33  C   UNL     1       3.077  -0.937  -1.264  0.00  0.00    +0.001 C 
ATOM     34  C   UNL     1       3.317   0.281  -2.154  0.00  0.00    +0.005 C 
ATOM     35  C   UNL     1       3.045   1.566  -1.382  0.00  0.00    +0.037 C 
ENDBRANCH  21  22
ENDBRANCH   4  21
TORSDOF 7
