REMARK  Name = ZINC02275490
REMARK  3 active torsions:
REMARK  status: ('A' for Active; 'I' for Inactive)
REMARK    1  A    between atoms: C_3  and  C_9
REMARK    2  A    between atoms: C_4  and  O_8
REMARK    3  A    between atoms: N_10  and  N_11
REMARK                            x       y       z     vdW  Elec       q    Type
REMARK                         _______ _______ _______ _____ _____    ______ ____
ROOT
ATOM      1  N   UNL     1       5.985   2.248  -0.150  0.00  0.00    -0.184 N 
ATOM      2  C   UNL     1       5.966   3.607  -0.137  0.00  0.00    +0.227 A 
ATOM      3  N   UNL     1       7.058   4.312  -0.240  0.00  0.00    -0.233 NA
ATOM      4  C   UNL     1       8.258   3.720  -0.364  0.00  0.00    +0.103 A 
ATOM      5  C   UNL     1       9.631   4.227  -0.497  0.00  0.00    +0.027 A 
ATOM      6  C   UNL     1      10.183   5.508  -0.541  0.00  0.00    +0.027 A 
ATOM      7  C   UNL     1      11.545   5.661  -0.675  0.00  0.00    +0.019 A 
ATOM      8  C   UNL     1      12.370   4.548  -0.766  0.00  0.00    +0.017 A 
ATOM      9  C   UNL     1      11.840   3.277  -0.724  0.00  0.00    +0.027 A 
ATOM     10  C   UNL     1      10.465   3.099  -0.589  0.00  0.00    +0.049 A 
ATOM     11  N   UNL     1       9.675   1.972  -0.519  0.00  0.00    -0.349 N 
ATOM     12  H   UNL     1      10.003   1.060  -0.559  0.00  0.00    +0.166 HD
ATOM     13  C   UNL     1       8.347   2.330  -0.385  0.00  0.00    +0.133 A 
ATOM     14  C   UNL     1       7.154   1.582  -0.266  0.00  0.00    +0.298 A 
ATOM     15  O   UNL     1       7.178   0.362  -0.273  0.00  0.00    -0.263 OA
ATOM     16 BR   UNL     1      12.295   7.396  -0.736  0.00  0.00    -0.050 Br
ENDROOT
BRANCH   1  18
ATOM     17  C   UNL     1       3.651   2.168  -0.029  0.00  0.00    +0.145 C 
ATOM     18  N   UNL     1       4.785   1.535  -0.036  0.00  0.00    -0.170 NA
BRANCH  17  21
ATOM     19  C   UNL     1      -0.017   1.378  -0.006  0.00  0.00    +0.002 A 
ATOM     20  C   UNL     1       1.164   2.090  -0.013  0.00  0.00    +0.013 A 
ATOM     21  C   UNL     1       2.386   1.413  -0.021  0.00  0.00    +0.037 A 
ATOM     22  C   UNL     1       2.402   0.011  -0.022  0.00  0.00    +0.139 A 
ATOM     23  C   UNL     1       1.205  -0.689  -0.015  0.00  0.00    +0.060 A 
ATOM     24  C   UNL     1       0.003  -0.006  -0.007  0.00  0.00    +0.019 A 
ATOM     25 BR   UNL     1       1.218  -2.580  -0.017  0.00  0.00    -0.047 Br
BRANCH  22  26
ATOM     26  O   UNL     1       3.583  -0.658  -0.030  0.00  0.00    -0.505 OA
ATOM     27  H   UNL     1       3.931  -0.852   0.851  0.00  0.00    +0.292 HD
ENDBRANCH  22  26
ENDBRANCH  17  21
ENDBRANCH   1  18
TORSDOF 3
