REMARK  Name = ZINC40755933
REMARK  7 active torsions:
REMARK  status: ('A' for Active; 'I' for Inactive)
REMARK    1  A    between atoms: C_1  and  C_2
REMARK    2  A    between atoms: C_9  and  N_12
REMARK    3  A    between atoms: C_14  and  N_28
REMARK    4  A    between atoms: C_15  and  N_19
REMARK    5  A    between atoms: N_19  and  C_20
REMARK    6  A    between atoms: C_20  and  C_21
REMARK    7  A    between atoms: C_21  and  C_22
REMARK                            x       y       z     vdW  Elec       q    Type
REMARK                         _______ _______ _______ _____ _____    ______ ____
ROOT
ATOM      1  N   UNL     1       0.046  -1.962   3.622  0.00  0.00    -0.296 N 
ATOM      2  C   UNL     1      -0.043  -2.643   4.831  0.00  0.00    +0.149 A 
ATOM      3  C   UNL     1      -0.160  -1.941   6.032  0.00  0.00    +0.105 A 
ATOM      4  C   UNL     1      -0.246  -2.673   7.218  0.00  0.00    +0.145 A 
ATOM      5  N   UNL     1      -0.215  -4.003   7.158  0.00  0.00    -0.219 NA
ATOM      6  C   UNL     1      -0.104  -4.626   6.002  0.00  0.00    +0.225 A 
ATOM      7  N   UNL     1      -0.025  -3.973   4.861  0.00  0.00    -0.219 NA
ATOM      8  H   UNL     1       0.115  -0.995   3.614  0.00  0.00    +0.154 HD
ENDROOT
BRANCH   1  17
ATOM      9  C   UNL     1       2.394   0.967   0.312  0.00  0.00    +0.065 C 
ATOM     10  C   UNL     1       1.756  -0.395   0.222  0.00  0.00    +0.039 A 
ATOM     11  C   UNL     1       1.766  -1.070  -0.997  0.00  0.00    +0.023 A 
ATOM     12  C   UNL     1       1.192  -2.305  -1.096  0.00  0.00    +0.012 A 
ATOM     13  C   UNL     1       0.602  -2.858   0.057  0.00  0.00    +0.002 A 
ATOM     14  C   UNL     1      -0.006  -4.124   0.029  0.00  0.00    +0.010 A 
ATOM     15  C   UNL     1      -0.568  -4.633   1.161  0.00  0.00    +0.003 A 
ATOM     16  C   UNL     1      -0.550  -3.916   2.353  0.00  0.00    +0.025 A 
ATOM     17  C   UNL     1       0.036  -2.671   2.420  0.00  0.00    +0.059 A 
ATOM     18  C   UNL     1       0.627  -2.117   1.263  0.00  0.00    +0.092 A 
ATOM     19  N   UNL     1       1.210  -0.916   1.294  0.00  0.00    -0.250 NA
ENDBRANCH   1  17
BRANCH   3  20
ATOM     20  N   UNL     1      -0.189  -0.537   6.048  0.00  0.00    -0.353 N 
ATOM     21  H   UNL     1      -0.127  -0.042   5.216  0.00  0.00    +0.143 HD
ATOM     22  H   UNL     1      -0.270  -0.063   6.890  0.00  0.00    +0.143 HD
ENDBRANCH   3  20
BRANCH   4  23
ATOM     23  N   UNL     1      -0.363  -2.025   8.441  0.00  0.00    -0.327 N 
ATOM     24  H   UNL     1      -0.385  -1.056   8.476  0.00  0.00    +0.148 HD
BRANCH  23  25
ATOM     25  C   UNL     1      -0.453  -2.804   9.678  0.00  0.00    +0.107 C 
BRANCH  25  26
ATOM     26  C   UNL     1      -0.573  -1.855  10.872  0.00  0.00    +0.049 C 
BRANCH  26  27
ATOM     27  C   UNL     1      -0.666  -2.657  12.144  0.00  0.00    -0.072 C 
ATOM     28  C   UNL     1       0.425  -2.869  12.809  0.00  0.00    -0.028 C 
ATOM     29  C   UNL     1       0.492  -3.657  14.084  0.00  0.00    +0.027 C 
ATOM     30  C   UNL     1      -0.905  -3.795  14.693  0.00  0.00    +0.004 C 
ATOM     31  C   UNL     1      -1.866  -4.276  13.599  0.00  0.00    +0.005 C 
ATOM     32  C   UNL     1      -2.017  -3.155  12.565  0.00  0.00    +0.030 C 
ENDBRANCH  26  27
ENDBRANCH  25  26
ENDBRANCH  23  25
ENDBRANCH   4  23
TORSDOF 6
