REMARK  Name = ZINC33462228
REMARK  10 active torsions:
REMARK  status: ('A' for Active; 'I' for Inactive)
REMARK    1  A    between atoms: C_1  and  C_2
REMARK    2  A    between atoms: C_2  and  N_3
REMARK    3  A    between atoms: N_3  and  C_4
REMARK    4  A    between atoms: N_3  and  C_6
REMARK    5  A    between atoms: C_4  and  C_5
REMARK    6  A    between atoms: C_9  and  C_12
REMARK    7  A    between atoms: C_12  and  C_14
REMARK    8  A    between atoms: C_12  and  N_16
REMARK    9  A    between atoms: C_14  and  N_15
REMARK   10  A    between atoms: C_24  and  C_26
REMARK                            x       y       z     vdW  Elec       q    Type
REMARK                         _______ _______ _______ _____ _____    ______ ____
ROOT
ATOM      1  C   UNL     1       0.205  -6.182  -1.593  0.00  0.00    +0.087 C 
ENDROOT
BRANCH   1   2
ATOM      2  N   UNL     1      -1.156  -6.181  -2.135  0.00  0.00    -0.321 N 
ATOM      3  C   UNL     1      -2.254  -6.805  -1.541  0.00  0.00    +0.034 A 
ATOM      4  C   UNL     1      -2.320  -7.539  -0.354  0.00  0.00    +0.023 A 
ATOM      5  C   UNL     1      -3.517  -8.080   0.063  0.00  0.00    +0.002 A 
ATOM      6  C   UNL     1      -4.662  -7.899  -0.691  0.00  0.00    +0.000 A 
ATOM      7  C   UNL     1      -4.606  -7.173  -1.866  0.00  0.00    +0.005 A 
ATOM      8  C   UNL     1      -3.408  -6.629  -2.288  0.00  0.00    -0.025 A 
ATOM      9  C   UNL     1      -3.069  -5.807  -3.511  0.00  0.00    +0.059 C 
ATOM     10  C   UNL     1      -1.564  -5.519  -3.377  0.00  0.00    +0.075 C 
ATOM     11  C   UNL     1      -0.806  -6.109  -4.567  0.00  0.00    +0.028 C 
ENDBRANCH   1   2
BRANCH   1  15
ATOM     12  C   UNL     1       1.629  -2.165  -1.304  0.00  0.00    +0.013 A 
ATOM     13  C   UNL     1       1.420  -2.908  -0.157  0.00  0.00    +0.022 A 
ATOM     14  C   UNL     1       0.959  -4.208  -0.251  0.00  0.00    +0.007 A 
ATOM     15  C   UNL     1       0.707  -4.764  -1.491  0.00  0.00    -0.029 A 
ATOM     16  C   UNL     1       0.915  -4.021  -2.638  0.00  0.00    +0.007 A 
ATOM     17  C   UNL     1       1.372  -2.719  -2.544  0.00  0.00    +0.022 A 
BRANCH  12  18
ATOM     18  N   UNL     1       2.095  -0.850  -1.209  0.00  0.00    -0.394 NA
ATOM     19  H   UNL     1       2.186  -0.458  -2.135  0.00  0.00    +0.126 HD
BRANCH  18  21
ATOM     20  C   UNL     1       1.589   1.416  -0.430  0.00  0.00    +0.022 C 
ATOM     21  C   UNL     1       1.143  -0.048  -0.429  0.00  0.00    +0.081 C 
ENDBRANCH  18  21
BRANCH  18  22
ATOM     22  C   UNL     1       3.404  -0.842  -0.543  0.00  0.00    +0.081 C 
ATOM     23  C   UNL     1       4.426  -1.571  -1.418  0.00  0.00    +0.022 C 
ENDBRANCH  18  22
ENDBRANCH  12  18
ENDBRANCH   1  15
BRANCH   1  24
ATOM     24  C   UNL     1       1.123  -6.982  -2.520  0.00  0.00    -0.059 C 
BRANCH  24  25
ATOM     25  N   UNL     1       0.683  -8.383  -2.554  0.00  0.00    +0.380 N 
ATOM     26  H   UNL     1       0.724  -8.771  -1.624  0.00  0.00    -0.090 HD
ATOM     27  H   UNL     1      -0.265  -8.430  -2.897  0.00  0.00    -0.090 HD
ATOM     28  H   UNL     1       1.288  -8.911  -3.165  0.00  0.00    -0.090 HD
ENDBRANCH  24  25
ENDBRANCH   1  24
TORSDOF 7
