REMARK  Name = ZINC20839137
REMARK  12 active torsions:
REMARK  status: ('A' for Active; 'I' for Inactive)
REMARK    1  A    between atoms: C_1  and  C_2
REMARK    2  A    between atoms: C_2  and  C_3
REMARK    3  A    between atoms: C_2  and  C_4
REMARK    4  A    between atoms: C_2  and  C_5
REMARK    5  A    between atoms: C_8  and  S_13
REMARK    6  A    between atoms: N_9  and  C_10
REMARK    7  A    between atoms: C_10  and  C_11
REMARK    8  A    between atoms: S_13  and  C_14
REMARK    9  A    between atoms: C_14  and  C_15
REMARK   10  A    between atoms: C_21  and  S_23
REMARK   11  A    between atoms: S_23  and  C_24
REMARK   12  A    between atoms: C_24  and  C_25
REMARK                            x       y       z     vdW  Elec       q    Type
REMARK                         _______ _______ _______ _____ _____    ______ ____
ROOT
ATOM      1  C   UNL     1      -0.503   1.718   1.363  0.00  0.00    +0.229 C 
ATOM      2  O   UNL     1      -1.478   2.440   1.333  0.00  0.00    -0.275 OA
ATOM      3  N   UNL     1       0.054   1.387   2.544  0.00  0.00    -0.263 N 
ATOM      4  C   UNL     1      -0.489   1.874   3.731  0.00  0.00    +0.189 A 
ATOM      5  N   UNL     1      -1.533   2.662   3.928  0.00  0.00    -0.125 NA
ATOM      6  N   UNL     1      -1.897   3.014   5.083  0.00  0.00    -0.133 NA
ATOM      7  C   UNL     1      -1.256   2.614   6.172  0.00  0.00    +0.160 A 
ATOM      8  S   UNL     1       0.021   1.604   5.426  0.00  0.00    -0.024 S 
ATOM      9  H   UNL     1       0.937   0.733   2.572  0.00  0.00    +0.157 HD
ENDROOT
BRANCH   1  10
ATOM     10  C   UNL     1       0.084   1.192   0.079  0.00  0.00    +0.173 C 
BRANCH  10  11
ATOM     11  S   UNL     1      -0.880   1.809  -1.323  0.00  0.00    -0.077 S 
BRANCH  11  15
ATOM     12  C   UNL     1       0.662   0.432  -4.632  0.00  0.00    +0.140 A 
ATOM     13  N   UNL     1       1.440  -0.083  -3.723  0.00  0.00    -0.133 NA
ATOM     14  N   UNL     1       1.055   0.285  -2.553  0.00  0.00    -0.122 NA
ATOM     15  C   UNL     1       0.002   1.061  -2.653  0.00  0.00    +0.192 A 
ATOM     16  N   UNL     1      -0.286   1.175  -3.983  0.00  0.00    -0.302 N 
BRANCH  12  18
ATOM     17  C   UNL     1       2.040  -0.571  -6.433  0.00  0.00    +0.019 C 
ATOM     18  C   UNL     1       0.780   0.240  -6.122  0.00  0.00    +0.022 C 
ATOM     19  C   UNL     1      -0.449  -0.509  -6.639  0.00  0.00    +0.019 C 
ATOM     20  C   UNL     1       0.871   1.605  -6.806  0.00  0.00    +0.019 C 
ENDBRANCH  12  18
BRANCH  16  21
ATOM     21  C   UNL     1      -1.381   1.937  -4.590  0.00  0.00    +0.152 C 
BRANCH  21  22
ATOM     22  C   UNL     1      -0.967   3.378  -4.739  0.00  0.00    -0.013 C 
ATOM     23  C   UNL     1      -1.062   3.970  -5.904  0.00  0.00    +0.005 C 
ENDBRANCH  21  22
ENDBRANCH  16  21
ENDBRANCH  11  15
ENDBRANCH  10  11
ENDBRANCH   1  10
BRANCH   7  24
ATOM     24  S   UNL     1      -1.573   2.967   7.868  0.00  0.00    -0.092 S 
BRANCH  24  25
ATOM     25  C   UNL     1      -3.031   4.046   7.826  0.00  0.00    +0.111 C 
BRANCH  25  26
ATOM     26  C   UNL     1      -3.414   4.428   9.233  0.00  0.00    -0.037 A 
ATOM     27  C   UNL     1      -4.307   3.647   9.942  0.00  0.00    +0.006 A 
ATOM     28  C   UNL     1      -4.654   3.993  11.234  0.00  0.00    +0.020 A 
ATOM     29  C   UNL     1      -4.117   5.129  11.813  0.00  0.00    +0.041 A 
ATOM     30  C   UNL     1      -3.228   5.914  11.101  0.00  0.00    +0.020 A 
ATOM     31  C   UNL     1      -2.877   5.563   9.811  0.00  0.00    +0.006 A 
ATOM     32 CL   UNL     1      -4.558   5.569  13.434  0.00  0.00    -0.084 Cl
ENDBRANCH  25  26
ENDBRANCH  24  25
ENDBRANCH   7  24
TORSDOF 9
