REMARK  Name = ZINC14461118
REMARK  5 active torsions:
REMARK  status: ('A' for Active; 'I' for Inactive)
REMARK    1  A    between atoms: C_4  and  C_7
REMARK    2  A    between atoms: C_7  and  O_8
REMARK    3  A    between atoms: O_8  and  C_9
REMARK    4  A    between atoms: C_22  and  C_25
REMARK    5  A    between atoms: C_30  and  O_31
REMARK                            x       y       z     vdW  Elec       q    Type
REMARK                         _______ _______ _______ _____ _____    ______ ____
ROOT
ATOM      1  C   UNL     1       0.541   1.201   0.139  0.00  0.00    +0.121 A 
ATOM      2  C   UNL     1      -0.753   0.701   0.156  0.00  0.00    +0.047 A 
ATOM      3  C   UNL     1      -1.823   1.574   0.133  0.00  0.00    +0.027 A 
ATOM      4  C   UNL     1      -1.602   2.945   0.106  0.00  0.00    +0.032 A 
ATOM      5  C   UNL     1      -0.311   3.452   0.086  0.00  0.00    -0.016 A 
ATOM      6  C   UNL     1       0.759   2.567   0.104  0.00  0.00    +0.051 A 
ATOM      7  C   UNL     1      -0.028   4.920   0.045  0.00  0.00    +0.049 C 
ATOM      8  C   UNL     1       0.443   5.429   1.386  0.00  0.00    -0.023 C 
ATOM      9  C   UNL     1      -0.023   6.635   1.603  0.00  0.00    -0.030 C 
ATOM     10  C   UNL     1      -0.865   7.097   0.429  0.00  0.00    +0.033 C 
ATOM     11  C   UNL     1      -1.278   5.766  -0.265  0.00  0.00    +0.029 C 
ATOM     12  C   UNL     1      -2.486   5.211   0.495  0.00  0.00    +0.108 C 
ATOM     13  N   UNL     1      -2.700   3.817   0.094  0.00  0.00    -0.336 N 
ATOM     14  H   UNL     1      -3.579   3.506  -0.173  0.00  0.00    +0.147 HD
ENDROOT
BRANCH  12  15
ATOM     15  C   UNL     1      -2.222   5.275   1.978  0.00  0.00    +0.015 A 
ATOM     16  C   UNL     1      -1.611   4.214   2.618  0.00  0.00    +0.024 A 
ATOM     17  C   UNL     1      -1.364   4.274   3.977  0.00  0.00    +0.018 A 
ATOM     18  C   UNL     1      -1.738   5.392   4.701  0.00  0.00    +0.019 A 
ATOM     19  C   UNL     1      -2.354   6.453   4.067  0.00  0.00    +0.047 A 
ATOM     20  C   UNL     1      -2.598   6.397   2.702  0.00  0.00    +0.122 A 
ATOM     21 BR   UNL     1      -0.522   2.822   4.849  0.00  0.00    -0.050 Br
BRANCH  20  22
ATOM     22  O   UNL     1      -3.204   7.439   2.076  0.00  0.00    -0.506 OA
ATOM     23  H   UNL     1      -4.169   7.376   2.051  0.00  0.00    +0.292 HD
ENDBRANCH  20  22
ENDBRANCH  12  15
BRANCH   1  24
ATOM     24  O   UNL     1       1.598   0.346   0.156  0.00  0.00    -0.487 OA
BRANCH  24  25
ATOM     25  C   UNL     1       1.302  -1.052   0.192  0.00  0.00    +0.264 C 
BRANCH  25  29
ATOM     26  C   UNL     1       4.946  -3.280   0.234  0.00  0.00    +0.000 A 
ATOM     27  C   UNL     1       4.361  -2.890   1.424  0.00  0.00    +0.000 A 
ATOM     28  C   UNL     1       3.182  -2.168   1.410  0.00  0.00    +0.007 A 
ATOM     29  C   UNL     1       2.588  -1.837   0.207  0.00  0.00    -0.010 A 
ATOM     30  C   UNL     1       3.170  -2.232  -0.983  0.00  0.00    +0.007 A 
ATOM     31  C   UNL     1       4.352  -2.949  -0.970  0.00  0.00    +0.000 A 
ENDBRANCH  25  29
ENDBRANCH  24  25
ENDBRANCH   1  24
TORSDOF 5
