REMARK  Name = ZINC16903572
REMARK  12 active torsions:
REMARK  status: ('A' for Active; 'I' for Inactive)
REMARK    1  A    between atoms: C_1  and  C_2
REMARK    2  A    between atoms: C_5  and  N_9
REMARK    3  A    between atoms: C_6  and  C_8
REMARK    4  A    between atoms: C_10  and  C_12
REMARK    5  A    between atoms: C_12  and  C_14
REMARK    6  A    between atoms: C_12  and  O_15
REMARK    7  A    between atoms: O_15  and  C_16
REMARK    8  A    between atoms: C_16  and  C_18
REMARK    9  A    between atoms: C_21  and  S_27
REMARK   10  A    between atoms: C_22  and  N_24
REMARK   11  A    between atoms: S_27  and  C_28
REMARK   12  A    between atoms: C_30  and  C_33
REMARK                            x       y       z     vdW  Elec       q    Type
REMARK                         _______ _______ _______ _____ _____    ______ ____
ROOT
ATOM      1  C   UNL     1       4.639   1.710  -0.398  0.00  0.00    +0.340 C 
ATOM      2  O   UNL     1       4.792   0.634  -0.943  0.00  0.00    -0.245 OA
ENDROOT
BRANCH   1   3
ATOM      3  C   UNL     1       5.723   2.708  -0.423  0.00  0.00    +0.061 A 
ATOM      4  C   UNL     1       5.547   3.949   0.199  0.00  0.00    +0.016 A 
ATOM      5  C   UNL     1       6.555   4.870   0.178  0.00  0.00    +0.018 A 
ATOM      6  C   UNL     1       7.753   4.580  -0.470  0.00  0.00    +0.045 A 
ATOM      7  C   UNL     1       7.929   3.348  -1.095  0.00  0.00    +0.141 A 
ATOM      8  C   UNL     1       6.927   2.420  -1.073  0.00  0.00    +0.048 A 
BRANCH   7   9
ATOM      9  N   UNL     1       9.204   3.043  -1.783  0.00  0.00    +0.058 N 
ATOM     10  O   UNL     1       9.359   1.966  -2.329  0.00  0.00    -0.126 OA
ATOM     11  O   UNL     1      10.099   3.870  -1.802  0.00  0.00    -0.126 OA
ENDBRANCH   7   9
BRANCH   6  12
ATOM     12  S   UNL     1       9.049   5.774  -0.500  0.00  0.00    -0.061 S 
BRANCH  12  13
ATOM     13  C   UNL     1      10.207   5.176   0.685  0.00  0.00    +0.139 A 
ATOM     14  N   UNL     1      11.402   5.647   0.987  0.00  0.00    -0.238 NA
ATOM     15  C   UNL     1      12.149   5.073   1.911  0.00  0.00    +0.047 A 
ATOM     16  C   UNL     1      11.662   3.982   2.549  0.00  0.00    +0.070 A 
ATOM     17  S   UNL     1      10.067   3.820   1.760  0.00  0.00    -0.069 S 
ATOM     18  C   UNL     1      13.512   5.620   2.249  0.00  0.00    +0.066 C 
ENDBRANCH  12  13
ENDBRANCH   6  12
ENDBRANCH   1   3
BRANCH   1  19
ATOM     19  O   UNL     1       3.480   1.989   0.229  0.00  0.00    -0.449 OA
BRANCH  19  20
ATOM     20  C   UNL     1       2.457   0.959   0.213  0.00  0.00    +0.259 C 
ATOM     21  C   UNL     1       2.629   0.051   1.433  0.00  0.00    +0.062 C 
BRANCH  20  23
ATOM     22  N   UNL     1      -0.013   0.835   0.248  0.00  0.00    -0.282 N 
ATOM     23  C   UNL     1       1.095   1.602   0.254  0.00  0.00    +0.258 C 
ATOM     24  O   UNL     1       0.996   2.810   0.292  0.00  0.00    -0.271 OA
ATOM     25  H   UNL     1       0.062  -0.126   0.137  0.00  0.00    +0.155 HD
BRANCH  22  30
ATOM     26  C   UNL     1      -5.122   3.229   0.846  0.00  0.00    +0.044 C 
ATOM     27  C   UNL     1      -3.765   2.592   0.687  0.00  0.00    -0.050 A 
ATOM     28  C   UNL     1      -2.642   3.231   1.180  0.00  0.00    +0.005 A 
ATOM     29  C   UNL     1      -1.397   2.651   1.036  0.00  0.00    +0.024 A 
ATOM     30  C   UNL     1      -1.274   1.425   0.396  0.00  0.00    +0.036 A 
ATOM     31  C   UNL     1      -2.403   0.789  -0.102  0.00  0.00    -0.029 A 
ATOM     32  C   UNL     1      -3.646   1.372   0.049  0.00  0.00    +0.008 A 
ATOM     33  C   UNL     1      -2.273  -0.539  -0.803  0.00  0.00    +0.045 C 
ENDBRANCH  22  30
ENDBRANCH  20  23
ENDBRANCH  19  20
ENDBRANCH   1  19
TORSDOF 8
