REMARK  Name = ZINC04809092
REMARK  5 active torsions:
REMARK  status: ('A' for Active; 'I' for Inactive)
REMARK    1  A    between atoms: N_7  and  C_10
REMARK    2  A    between atoms: C_12  and  O_22
REMARK    3  A    between atoms: C_14  and  S_21
REMARK    4  A    between atoms: C_16  and  C_19
REMARK    5  A    between atoms: C_19  and  O_20
REMARK                            x       y       z     vdW  Elec       q    Type
REMARK                         _______ _______ _______ _____ _____    ______ ____
ROOT
ATOM      1  C   UNL     1      -3.294   3.041   0.122  0.00  0.00    +0.225 A 
ATOM      2  N   UNL     1      -2.901   4.302   0.115  0.00  0.00    -0.219 NA
ATOM      3  C   UNL     1      -1.611   4.620   0.084  0.00  0.00    +0.147 A 
ATOM      4  C   UNL     1      -0.665   3.582   0.044  0.00  0.00    +0.147 A 
ATOM      5  C   UNL     1      -1.134   2.257   0.050  0.00  0.00    +0.167 A 
ATOM      6  N   UNL     1      -2.444   2.036   0.090  0.00  0.00    -0.216 NA
ATOM      7  N   UNL     1      -0.018   1.461   0.010  0.00  0.00    -0.286 N 
ATOM      8  C   UNL     1       1.069   2.282  -0.026  0.00  0.00    +0.203 A 
ATOM      9  N   UNL     1       0.687   3.526  -0.006  0.00  0.00    -0.231 NA
ATOM     10  N   UNL     1      -1.209   5.945   0.075  0.00  0.00    -0.341 N 
ATOM     11  H   UNL     1      -0.632   6.123   0.872  0.00  0.00    +0.144 HD
ATOM     12  H   UNL     1      -1.872   6.653   0.103  0.00  0.00    +0.144 HD
ENDROOT
BRANCH   7  13
ATOM     13  C   UNL     1       0.002  -0.004   0.002  0.00  0.00    +0.252 C 
ATOM     14  C   UNL     1      -0.216  -0.537  -1.431  0.00  0.00    +0.179 C 
ATOM     15  C   UNL     1       1.218  -0.764  -1.967  0.00  0.00    +0.107 C 
ATOM     16  C   UNL     1       2.129  -0.342  -0.793  0.00  0.00    +0.161 C 
ATOM     17  O   UNL     1       1.307  -0.491   0.385  0.00  0.00    -0.347 OA
BRANCH  15  18
ATOM     18  S   UNL     1       1.477  -2.512  -2.376  0.00  0.00    -0.169 S 
ATOM     19  H   UNL     1       2.771  -2.573  -2.739  0.00  0.00    +0.102 HD
ENDBRANCH  15  18
BRANCH  14  20
ATOM     20  O   UNL     1      -0.903   0.432  -2.227  0.00  0.00    -0.386 OA
ATOM     21  H   UNL     1      -1.066   0.149  -3.137  0.00  0.00    +0.210 HD
ENDBRANCH  14  20
BRANCH  16  22
ATOM     22  C   UNL     1       3.350  -1.259  -0.710  0.00  0.00    +0.188 C 
BRANCH  22  23
ATOM     23  O   UNL     1       4.200  -0.826   0.354  0.00  0.00    -0.392 OA
ATOM     24  H   UNL     1       4.997  -1.363   0.465  0.00  0.00    +0.210 HD
ENDBRANCH  22  23
ENDBRANCH  16  22
ENDBRANCH   7  13
TORSDOF 5
