REMARK  Name = ZINC48869833
REMARK  4 active torsions:
REMARK  status: ('A' for Active; 'I' for Inactive)
REMARK    1  A    between atoms: C_5  and  C_7
REMARK    2  A    between atoms: C_7  and  N_8
REMARK    3  A    between atoms: N_11  and  C_12
REMARK    4  A    between atoms: C_15  and  N_18
REMARK                            x       y       z     vdW  Elec       q    Type
REMARK                         _______ _______ _______ _____ _____    ______ ____
ROOT
ATOM      1  N   UNL     1       1.494  -2.679   1.332  0.00  0.00    -0.295 N 
ATOM      2  C   UNL     1       1.550  -4.004   1.568  0.00  0.00    +0.304 C 
ATOM      3  O   UNL     1       1.382  -4.791   0.656  0.00  0.00    -0.252 OA
ATOM      4  N   UNL     1       1.790  -4.458   2.814  0.00  0.00    -0.269 N 
ATOM      5  H   UNL     1       1.628  -2.051   2.059  0.00  0.00    +0.151 HD
ATOM      6  H   UNL     1       1.990  -3.832   3.528  0.00  0.00    +0.156 HD
ENDROOT
BRANCH   4   7
ATOM      7  C   UNL     1       1.752  -5.834   3.079  0.00  0.00    +0.035 A 
ATOM      8  C   UNL     1       1.272  -6.293   4.298  0.00  0.00    +0.025 A 
ATOM      9  C   UNL     1       1.234  -7.649   4.559  0.00  0.00    +0.024 A 
ATOM     10  C   UNL     1       1.675  -8.553   3.601  0.00  0.00    +0.025 A 
ATOM     11  C   UNL     1       2.155  -8.093   2.382  0.00  0.00    +0.024 A 
ATOM     12  C   UNL     1       2.188  -6.738   2.119  0.00  0.00    +0.025 A 
BRANCH  10  13
ATOM     13  N   UNL     1       1.637  -9.926   3.865  0.00  0.00    -0.358 N 
ATOM     14  H   UNL     1       1.302 -10.247   4.717  0.00  0.00    +0.142 HD
ATOM     15  H   UNL     1       1.946 -10.557   3.196  0.00  0.00    +0.142 HD
ENDBRANCH  10  13
ENDBRANCH   4   7
BRANCH   1  16
ATOM     16  C   UNL     1       1.232  -2.186  -0.022  0.00  0.00    +0.142 C 
BRANCH  16  21
ATOM     17  C   UNL     1       0.010   1.386   0.010  0.00  0.00    +0.000 A 
ATOM     18  C   UNL     1       1.202   2.087  -0.003  0.00  0.00    +0.001 A 
ATOM     19  C   UNL     1       2.404   1.405  -0.022  0.00  0.00    +0.015 A 
ATOM     20  C   UNL     1       2.415   0.021  -0.028  0.00  0.00    +0.023 A 
ATOM     21  C   UNL     1       1.222  -0.679  -0.015  0.00  0.00    -0.016 A 
ATOM     22  C   UNL     1       0.020   0.004   0.004  0.00  0.00    +0.006 A 
ATOM     23 BR   UNL     1       4.059  -0.912  -0.055  0.00  0.00    -0.050 Br
ENDBRANCH  16  21
ENDBRANCH   1  16
TORSDOF 4
