REMARK  Name = ZINC39533665
REMARK  11 active torsions:
REMARK  status: ('A' for Active; 'I' for Inactive)
REMARK    1  A    between atoms: C_1  and  C_2
REMARK    2  A    between atoms: C_2  and  C_3
REMARK    3  A    between atoms: C_2  and  S_4
REMARK    4  A    between atoms: S_4  and  N_7
REMARK    5  A    between atoms: N_7  and  C_8
REMARK    6  A    between atoms: C_8  and  C_9
REMARK    7  A    between atoms: C_9  and  C_11
REMARK    8  A    between atoms: C_9  and  N_23
REMARK    9  A    between atoms: C_14  and  C_17
REMARK   10  A    between atoms: C_27  and  C_30
REMARK   11  A    between atoms: C_35  and  O_36
REMARK                            x       y       z     vdW  Elec       q    Type
REMARK                         _______ _______ _______ _____ _____    ______ ____
ROOT
ATOM      1  C   UNL     1      -1.910  -0.062   4.354  0.00  0.00    +0.102 C 
ENDROOT
BRANCH   1   2
ATOM      2  N   UNL     1      -1.841   1.398   4.503  0.00  0.00    -0.297 NA
ATOM      3  C   UNL     1      -0.494   1.896   4.194  0.00  0.00    +0.066 C 
ATOM      4  C   UNL     1      -0.480   3.422   4.303  0.00  0.00    -0.066 C 
ATOM      5  N   UNL     1      -0.867   3.820   5.663  0.00  0.00    +0.385 N 
ATOM      6  C   UNL     1      -2.224   3.336   5.948  0.00  0.00    -0.023 C 
ATOM      7  C   UNL     1      -2.253   1.809   5.853  0.00  0.00    +0.074 C 
ATOM      8  H   UNL     1      -0.221   3.420   6.327  0.00  0.00    -0.085 HD
ATOM      9  H   UNL     1      -0.846   4.826   5.738  0.00  0.00    -0.085 HD
BRANCH   6  10
ATOM     10  C   UNL     1      -2.627   3.760   7.337  0.00  0.00    -0.019 A 
ATOM     11  C   UNL     1      -1.661   4.118   8.258  0.00  0.00    +0.005 A 
ATOM     12  C   UNL     1      -2.030   4.506   9.533  0.00  0.00    +0.000 A 
ATOM     13  C   UNL     1      -3.365   4.539   9.889  0.00  0.00    +0.004 A 
ATOM     14  C   UNL     1      -4.335   4.183   8.972  0.00  0.00    +0.045 A 
ATOM     15  C   UNL     1      -3.968   3.798   7.690  0.00  0.00    +0.118 A 
BRANCH  15  16
ATOM     16  O   UNL     1      -4.920   3.453   6.784  0.00  0.00    -0.507 OA
ATOM     17  H   UNL     1      -5.148   2.513   6.792  0.00  0.00    +0.292 HD
ENDBRANCH  15  16
ENDBRANCH   6  10
ENDBRANCH   1   2
BRANCH   1  18
ATOM     18  C   UNL     1      -3.333  -0.520   4.546  0.00  0.00    -0.029 A 
ATOM     19  C   UNL     1      -4.373   0.220   4.014  0.00  0.00    +0.006 A 
ATOM     20  C   UNL     1      -5.678  -0.195   4.187  0.00  0.00    +0.009 A 
ATOM     21  C   UNL     1      -5.946  -1.362   4.899  0.00  0.00    -0.018 A 
ATOM     22  C   UNL     1      -4.895  -2.104   5.433  0.00  0.00    +0.009 A 
ATOM     23  C   UNL     1      -3.593  -1.683   5.249  0.00  0.00    +0.006 A 
BRANCH  21  24
ATOM     24  C   UNL     1      -7.347  -1.813   5.089  0.00  0.00    -0.018 A 
ATOM     25  C   UNL     1      -8.399  -1.074   4.551  0.00  0.00    +0.008 A 
ATOM     26  C   UNL     1      -9.700  -1.498   4.730  0.00  0.00    +0.001 A 
ATOM     27  C   UNL     1      -9.961  -2.654   5.443  0.00  0.00    +0.000 A 
ATOM     28  C   UNL     1      -8.921  -3.392   5.980  0.00  0.00    +0.001 A 
ATOM     29  C   UNL     1      -7.616  -2.980   5.801  0.00  0.00    +0.008 A 
ENDBRANCH  21  24
ENDBRANCH   1  18
BRANCH   1  30
ATOM     30  C   UNL     1      -1.432  -0.455   2.955  0.00  0.00    +0.129 C 
BRANCH  30  31
ATOM     31  N   UNL     1      -1.446  -1.914   2.826  0.00  0.00    -0.192 NA
ATOM     32  H   UNL     1      -1.518  -2.470   3.617  0.00  0.00    +0.148 HD
BRANCH  31  33
ATOM     33  S   UNL     1      -1.338  -2.614   1.329  0.00  0.00    +0.032 S 
ATOM     34  O   UNL     1      -2.337  -1.967   0.553  0.00  0.00    -0.158 OA
ATOM     35  O   UNL     1      -1.405  -4.012   1.576  0.00  0.00    -0.158 OA
BRANCH  33  37
ATOM     36  C   UNL     1       1.373  -2.711   1.680  0.00  0.00    +0.033 C 
ATOM     37  C   UNL     1       0.312  -2.165   0.722  0.00  0.00    +0.142 C 
ATOM     38  C   UNL     1       0.524  -2.765  -0.669  0.00  0.00    +0.033 C 
ENDBRANCH  33  37
ENDBRANCH  31  33
ENDBRANCH  30  31
ENDBRANCH   1  30
TORSDOF 9
