REMARK  Name = ZINC52527995
REMARK  10 active torsions:
REMARK  status: ('A' for Active; 'I' for Inactive)
REMARK    1  A    between atoms: C_1  and  C_2
REMARK    2  A    between atoms: C_2  and  C_3
REMARK    3  A    between atoms: C_3  and  C_5
REMARK    4  A    between atoms: C_3  and  C_6
REMARK    5  A    between atoms: C_6  and  C_8
REMARK    6  A    between atoms: C_6  and  N_25
REMARK    7  A    between atoms: N_10  and  C_11
REMARK    8  A    between atoms: C_11  and  C_12
REMARK    9  A    between atoms: C_17  and  C_18
REMARK   10  A    between atoms: C_18  and  N_19
REMARK                            x       y       z     vdW  Elec       q    Type
REMARK                         _______ _______ _______ _____ _____    ______ ____
ROOT
ATOM      1  C   UNL     1       1.212  -2.504   2.760  0.00  0.00    +0.234 C 
ATOM      2  O   UNL     1       2.328  -2.780   3.145  0.00  0.00    -0.274 OA
ATOM      3  N   UNL     1       0.165  -2.601   3.603  0.00  0.00    -0.310 N 
ATOM      4  H   UNL     1      -0.728  -2.381   3.295  0.00  0.00    +0.149 HD
ENDROOT
BRANCH   1   5
ATOM      5  C   UNL     1       0.995  -2.054   1.338  0.00  0.00    +0.163 C 
BRANCH   5   6
ATOM      6  N   UNL     1       2.131  -2.473   0.514  0.00  0.00    -0.288 N 
ATOM      7  C   UNL     1       2.156  -3.710  -0.021  0.00  0.00    +0.298 C 
ATOM      8  O   UNL     1       1.282  -4.509   0.255  0.00  0.00    -0.253 OA
ATOM      9  N   UNL     1       3.149  -4.061  -0.861  0.00  0.00    -0.313 N 
ATOM     10  H   UNL     1       2.866  -1.861   0.353  0.00  0.00    +0.151 HD
ATOM     11  H   UNL     1       3.846  -3.424  -1.081  0.00  0.00    +0.146 HD
ATOM     12  H   UNL     1       3.167  -4.952  -1.246  0.00  0.00    +0.146 HD
ENDBRANCH   5   6
BRANCH   5  13
ATOM     13  C   UNL     1       0.871  -0.530   1.299  0.00  0.00    +0.015 C 
ATOM     14  C   UNL     1       2.163   0.100   1.822  0.00  0.00    +0.010 C 
BRANCH  13  16
ATOM     15  C   UNL     1       0.382   1.435  -0.165  0.00  0.00    +0.004 C 
ATOM     16  C   UNL     1       0.629  -0.074  -0.142  0.00  0.00    +0.002 C 
ENDBRANCH  13  16
ENDBRANCH   5  13
ENDBRANCH   1   5
BRANCH   3  17
ATOM     17  C   UNL     1       0.376  -3.038   4.985  0.00  0.00    +0.139 C 
BRANCH  17  18
ATOM     18  C   UNL     1      -0.944  -3.061   5.712  0.00  0.00    -0.029 A 
ATOM     19  C   UNL     1      -1.294  -2.013   6.543  0.00  0.00    +0.005 A 
ATOM     20  C   UNL     1      -2.504  -2.034   7.210  0.00  0.00    +0.000 A 
ATOM     21  C   UNL     1      -3.366  -3.103   7.045  0.00  0.00    +0.000 A 
ATOM     22  C   UNL     1      -3.017  -4.150   6.213  0.00  0.00    +0.002 A 
ATOM     23  C   UNL     1      -1.808  -4.127   5.543  0.00  0.00    -0.059 A 
BRANCH  23  24
ATOM     24  C   UNL     1      -1.430  -5.266   4.632  0.00  0.00    -0.043 C 
BRANCH  24  25
ATOM     25  N   UNL     1      -0.510  -6.170   5.334  0.00  0.00    +0.382 N 
ATOM     26  C   UNL     1      -1.205  -6.786   6.471  0.00  0.00    -0.078 C 
ATOM     27  C   UNL     1      -0.229  -7.667   7.255  0.00  0.00    -0.019 C 
ATOM     28  C   UNL     1       0.315  -8.762   6.333  0.00  0.00    -0.004 C 
ATOM     29  C   UNL     1       0.972  -8.110   5.113  0.00  0.00    -0.019 C 
ATOM     30  C   UNL     1      -0.049  -7.213   4.409  0.00  0.00    -0.078 C 
ATOM     31  H   UNL     1       0.284  -5.646   5.671  0.00  0.00    -0.081 HD
ENDBRANCH  24  25
ENDBRANCH  23  24
ENDBRANCH  17  18
ENDBRANCH   3  17
TORSDOF 8
