REMARK  Name = ZINC03362898
REMARK  12 active torsions:
REMARK  status: ('A' for Active; 'I' for Inactive)
REMARK    1  A    between atoms: C_1  and  C_2
REMARK    2  A    between atoms: C_2  and  C_3
REMARK    3  A    between atoms: C_2  and  C_4
REMARK    4  A    between atoms: C_4  and  C_6
REMARK    5  A    between atoms: C_4  and  N_21
REMARK    6  A    between atoms: N_8  and  C_9
REMARK    7  A    between atoms: C_10  and  C_18
REMARK    8  A    between atoms: C_22  and  C_24
REMARK    9  A    between atoms: C_26  and  O_32
REMARK   10  A    between atoms: C_28  and  O_30
REMARK   11  A    between atoms: O_30  and  C_31
REMARK   12  A    between atoms: O_32  and  C_33
REMARK                            x       y       z     vdW  Elec       q    Type
REMARK                         _______ _______ _______ _____ _____    ______ ____
ROOT
ATOM      1  C   UNL     1       0.109   1.064   2.432  0.00  0.00    +0.162 C 
ENDROOT
BRANCH   1   2
ATOM      2  C   UNL     1       0.231  -0.436   2.347  0.00  0.00    +0.238 C 
ATOM      3  O   UNL     1      -0.258  -1.134   3.211  0.00  0.00    -0.273 OA
ATOM      4  N   UNL     1       0.882  -1.002   1.312  0.00  0.00    -0.278 N 
ATOM      5  H   UNL     1       1.213  -0.450   0.587  0.00  0.00    +0.155 HD
BRANCH   4   6
ATOM      6  C   UNL     1       1.079  -2.374   1.284  0.00  0.00    +0.084 A 
ATOM      7  C   UNL     1       1.715  -3.134   0.312  0.00  0.00    +0.068 A 
ATOM      8  C   UNL     1       1.792  -4.569   0.526  0.00  0.00    -0.023 A 
ATOM      9  C   UNL     1       1.216  -5.013   1.664  0.00  0.00    -0.004 A 
ATOM     10  S   UNL     1       0.586  -3.557   2.450  0.00  0.00    -0.077 S 
ATOM     11  C   UNL     1       1.135  -6.430   2.143  0.00  0.00    +0.043 C 
ATOM     12  C   UNL     1       1.478  -7.358   0.968  0.00  0.00    +0.005 C 
ATOM     13  C   UNL     1       2.752  -6.846   0.291  0.00  0.00    +0.005 C 
ATOM     14  C   UNL     1       2.462  -5.536  -0.443  0.00  0.00    +0.037 C 
BRANCH   7  15
ATOM     15  C   UNL     1       2.291  -2.512  -0.884  0.00  0.00    +0.244 C 
ATOM     16  O   UNL     1       3.447  -2.132  -0.876  0.00  0.00    -0.270 OA
ATOM     17  N   UNL     1       1.539  -2.360  -1.993  0.00  0.00    -0.325 N 
ATOM     18  H   UNL     1       0.618  -2.663  -1.999  0.00  0.00    +0.145 HD
ATOM     19  H   UNL     1       1.920  -1.948  -2.784  0.00  0.00    +0.145 HD
ENDBRANCH   7  15
ENDBRANCH   4   6
ENDBRANCH   1   2
BRANCH   1  20
ATOM     20  N   UNL     1      -0.241   1.449   3.801  0.00  0.00    -0.300 N 
ATOM     21  C   UNL     1       0.076   2.677   4.257  0.00  0.00    +0.245 C 
ATOM     22  O   UNL     1       0.652   3.465   3.533  0.00  0.00    -0.270 OA
ATOM     23  H   UNL     1      -0.700   0.820   4.379  0.00  0.00    +0.150 HD
BRANCH  21  24
ATOM     24  C   UNL     1      -0.277   3.066   5.640  0.00  0.00    +0.044 A 
ATOM     25  C   UNL     1      -0.943   2.165   6.471  0.00  0.00    +0.059 A 
ATOM     26  C   UNL     1      -1.266   2.531   7.768  0.00  0.00    +0.124 A 
ATOM     27  C   UNL     1      -0.939   3.796   8.235  0.00  0.00    +0.091 A 
ATOM     28  C   UNL     1      -0.282   4.697   7.410  0.00  0.00    +0.124 A 
ATOM     29  C   UNL     1       0.050   4.336   6.114  0.00  0.00    +0.059 A 
BRANCH  28  30
ATOM     30  O   UNL     1       0.037   5.934   7.873  0.00  0.00    -0.495 OA
ATOM     31  C   UNL     1      -0.336   6.239   9.218  0.00  0.00    +0.277 C 
ENDBRANCH  28  30
BRANCH  26  32
ATOM     32  O   UNL     1      -1.909   1.653   8.581  0.00  0.00    -0.495 OA
ATOM     33  C   UNL     1      -2.218   2.098   9.903  0.00  0.00    +0.277 C 
ENDBRANCH  26  32
ENDBRANCH  21  24
ENDBRANCH   1  20
BRANCH   1  35
ATOM     34  C   UNL     1      -1.012   3.071   1.454  0.00  0.00    +0.009 C 
ATOM     35  C   UNL     1      -0.983   1.542   1.473  0.00  0.00    +0.012 C 
ATOM     36  C   UNL     1      -2.340   1.012   1.941  0.00  0.00    +0.009 C 
ENDBRANCH   1  35
TORSDOF 8
