REMARK  Name = ZINC38185106
REMARK  11 active torsions:
REMARK  status: ('A' for Active; 'I' for Inactive)
REMARK    1  A    between atoms: C_1  and  C_2
REMARK    2  A    between atoms: C_2  and  O_3
REMARK    3  A    between atoms: O_3  and  C_4
REMARK    4  A    between atoms: C_6  and  C_14
REMARK    5  A    between atoms: C_9  and  O_10
REMARK    6  A    between atoms: O_10  and  C_11
REMARK    7  A    between atoms: C_11  and  C_12
REMARK    8  A    between atoms: C_16  and  C_25
REMARK    9  A    between atoms: C_17  and  C_24
REMARK   10  A    between atoms: N_27  and  C_28
REMARK   11  A    between atoms: C_33  and  C_34
REMARK                            x       y       z     vdW  Elec       q    Type
REMARK                         _______ _______ _______ _____ _____    ______ ____
ROOT
ATOM      1  C   UNL     1       0.329  -4.297   0.043  0.00  0.00    +0.179 C 
ATOM      2  C   UNL     1       0.852  -5.053  -1.149  0.00  0.00    +0.060 C 
ATOM      3  C   UNL     1       0.943  -6.391  -1.186  0.00  0.00    +0.018 C 
ATOM      4  N   UNL     1       0.575  -7.181  -0.124  0.00  0.00    -0.286 N 
ATOM      5  C   UNL     1       0.344  -6.550   1.090  0.00  0.00    +0.240 A 
ATOM      6  N   UNL     1       0.231  -5.199   1.185  0.00  0.00    -0.201 N 
ATOM      7  N   UNL     1       0.015  -4.934   2.535  0.00  0.00    -0.042 NA
ATOM      8  N   UNL     1       0.006  -6.080   3.137  0.00  0.00    -0.021 NA
ATOM      9  N   UNL     1       0.198  -7.034   2.290  0.00  0.00    -0.092 NA
ATOM     10  C   UNL     1       1.468  -7.050  -2.435  0.00  0.00    +0.061 C 
ATOM     11  H   UNL     1       0.479  -8.141  -0.219  0.00  0.00    +0.155 HD
ENDROOT
BRANCH   1  14
ATOM     12  C   UNL     1      -2.473  -1.854  -0.631  0.00  0.00    +0.163 A 
ATOM     13  C   UNL     1      -1.221  -2.370  -0.339  0.00  0.00    +0.055 A 
ATOM     14  C   UNL     1      -1.034  -3.738  -0.274  0.00  0.00    -0.014 A 
ATOM     15  C   UNL     1      -2.095  -4.595  -0.500  0.00  0.00    +0.025 A 
ATOM     16  C   UNL     1      -3.348  -4.087  -0.793  0.00  0.00    +0.063 A 
ATOM     17  C   UNL     1      -3.543  -2.716  -0.853  0.00  0.00    +0.176 A 
ATOM     18 BR   UNL     1      -4.796  -5.262  -1.103  0.00  0.00    -0.046 Br
BRANCH  12  19
ATOM     19  O   UNL     1      -2.658  -0.508  -0.696  0.00  0.00    -0.489 OA
BRANCH  19  21
ATOM     20  C   UNL     1      -1.881   1.779  -0.772  0.00  0.00    +0.048 C 
ATOM     21  C   UNL     1      -1.496   0.313  -0.563  0.00  0.00    +0.226 C 
ENDBRANCH  19  21
ENDBRANCH  12  19
BRANCH  17  22
ATOM     22  O   UNL     1      -4.775  -2.214  -1.135  0.00  0.00    -0.487 OA
BRANCH  22  23
ATOM     23  C   UNL     1      -5.088  -1.996  -2.512  0.00  0.00    +0.226 C 
ATOM     24  C   UNL     1      -6.506  -1.433  -2.630  0.00  0.00    +0.048 C 
ENDBRANCH  22  23
ENDBRANCH  17  22
ENDBRANCH   1  14
BRANCH   2  25
ATOM     25  C   UNL     1       1.266  -4.319  -2.285  0.00  0.00    +0.248 C 
ATOM     26  O   UNL     1       2.377  -3.820  -2.317  0.00  0.00    -0.270 OA
ATOM     27  N   UNL     1       0.431  -4.170  -3.333  0.00  0.00    -0.281 N 
ATOM     28  H   UNL     1      -0.478  -4.506  -3.280  0.00  0.00    +0.155 HD
BRANCH  27  29
ATOM     29  C   UNL     1       0.874  -3.531  -4.495  0.00  0.00    +0.037 A 
ATOM     30  C   UNL     1       2.235  -3.408  -4.746  0.00  0.00    +0.023 A 
ATOM     31  C   UNL     1       2.669  -2.777  -5.895  0.00  0.00    +0.002 A 
ATOM     32  C   UNL     1       1.751  -2.268  -6.796  0.00  0.00    +0.000 A 
ATOM     33  C   UNL     1       0.396  -2.389  -6.549  0.00  0.00    +0.005 A 
ATOM     34  C   UNL     1      -0.045  -3.024  -5.404  0.00  0.00    -0.029 A 
ATOM     35  C   UNL     1      -1.523  -3.161  -5.139  0.00  0.00    +0.045 C 
ENDBRANCH  27  29
ENDBRANCH   2  25
TORSDOF 7
