REMARK  Name = ZINC20155840
REMARK  9 active torsions:
REMARK  status: ('A' for Active; 'I' for Inactive)
REMARK    1  A    between atoms: C_1  and  C_2
REMARK    2  A    between atoms: C_3  and  N_11
REMARK    3  A    between atoms: C_7  and  N_8
REMARK    4  A    between atoms: C_12  and  C_14
REMARK    5  A    between atoms: N_24  and  C_37
REMARK    6  A    between atoms: C_25  and  C_27
REMARK    7  A    between atoms: C_37  and  C_38
REMARK    8  A    between atoms: C_38  and  O_39
REMARK    9  A    between atoms: O_39  and  C_40
REMARK                            x       y       z     vdW  Elec       q    Type
REMARK                         _______ _______ _______ _____ _____    ______ ____
ROOT
ATOM      1  C   UNL     1      -1.475  -0.414  -4.545  0.00  0.00    +0.131 C 
ATOM      2  C   UNL     1      -0.309   0.494  -4.833  0.00  0.00    -0.021 A 
ATOM      3  C   UNL     1      -0.312   1.803  -4.401  0.00  0.00    +0.005 A 
ATOM      4  C   UNL     1       0.774   2.620  -4.662  0.00  0.00    +0.000 A 
ATOM      5  C   UNL     1       1.868   2.132  -5.355  0.00  0.00    +0.001 A 
ATOM      6  C   UNL     1       1.881   0.824  -5.798  0.00  0.00    +0.013 A 
ATOM      7  C   UNL     1       0.787  -0.000  -5.543  0.00  0.00    +0.041 A 
ATOM      8  C   UNL     1       0.755  -1.394  -6.035  0.00  0.00    +0.247 C 
ATOM      9  O   UNL     1       1.768  -1.923  -6.449  0.00  0.00    -0.270 OA
ATOM     10  N   UNL     1      -0.409  -2.071  -6.021  0.00  0.00    -0.287 N 
ATOM     11  C   UNL     1      -1.663  -1.403  -5.692  0.00  0.00    +0.125 C 
ENDROOT
BRANCH  11  12
ATOM     12  C   UNL     1      -2.164  -0.665  -6.907  0.00  0.00    -0.001 A 
ATOM     13  C   UNL     1      -1.431  -0.269  -7.959  0.00  0.00    +0.089 A 
ATOM     14  N   UNL     1      -2.228   0.372  -8.868  0.00  0.00    -0.360 N 
ATOM     15  H   UNL     1      -1.923   0.747  -9.709  0.00  0.00    +0.165 HD
ATOM     16  C   UNL     1      -3.526   0.406  -8.411  0.00  0.00    +0.047 A 
ATOM     17  C   UNL     1      -3.544  -0.247  -7.165  0.00  0.00    +0.005 A 
ATOM     18  C   UNL     1      -4.743  -0.371  -6.460  0.00  0.00    +0.010 A 
ATOM     19  C   UNL     1      -5.895   0.141  -6.987  0.00  0.00    +0.001 A 
ATOM     20  C   UNL     1      -5.884   0.783  -8.218  0.00  0.00    +0.002 A 
ATOM     21  C   UNL     1      -4.710   0.924  -8.925  0.00  0.00    +0.026 A 
ENDBRANCH  11  12
BRANCH   1  23
ATOM     22  N   UNL     1      -1.216  -0.523  -2.088  0.00  0.00    -0.285 N 
ATOM     23  C   UNL     1      -1.216  -1.172  -3.269  0.00  0.00    +0.227 C 
ATOM     24  O   UNL     1      -1.005  -2.366  -3.305  0.00  0.00    -0.275 OA
ATOM     25  H   UNL     1      -1.369   0.435  -2.061  0.00  0.00    +0.155 HD
BRANCH  22  28
ATOM     26  C   UNL     1      -2.209   0.584   0.339  0.00  0.00    +0.048 C 
ATOM     27  C   UNL     1      -1.465  -0.727   0.306  0.00  0.00    +0.001 A 
ATOM     28  C   UNL     1      -0.997  -1.230  -0.901  0.00  0.00    +0.038 A 
ATOM     29  C   UNL     1      -0.312  -2.438  -0.926  0.00  0.00    +0.024 A 
ATOM     30  C   UNL     1      -0.098  -3.134   0.247  0.00  0.00    +0.004 A 
ATOM     31  C   UNL     1      -0.565  -2.630   1.447  0.00  0.00    +0.033 A 
ATOM     32  C   UNL     1      -1.244  -1.425   1.477  0.00  0.00    +0.131 A 
BRANCH  32  33
ATOM     33  N   UNL     1      -1.737  -0.886   2.764  0.00  0.00    +0.057 N 
ATOM     34  O   UNL     1      -1.691   0.303   2.979  0.00  0.00    -0.126 OA
ATOM     35  O   UNL     1      -2.185  -1.635   3.601  0.00  0.00    -0.126 OA
ENDBRANCH  32  33
ENDBRANCH  22  28
ENDBRANCH   1  23
BRANCH  10  36
ATOM     36  C   UNL     1      -0.415  -3.501  -6.342  0.00  0.00    +0.137 C 
BRANCH  36  37
ATOM     37  C   UNL     1      -0.695  -3.688  -7.834  0.00  0.00    +0.178 C 
BRANCH  37  38
ATOM     38  O   UNL     1       0.356  -3.091  -8.595  0.00  0.00    -0.381 OA
ATOM     39  C   UNL     1       0.139  -3.116 -10.007  0.00  0.00    +0.194 C 
ENDBRANCH  37  38
ENDBRANCH  36  37
ENDBRANCH  10  36
TORSDOF 7
