REMARK  Name = ZINC22189140
REMARK  8 active torsions:
REMARK  status: ('A' for Active; 'I' for Inactive)
REMARK    1  A    between atoms: C_1  and  C_2
REMARK    2  A    between atoms: C_5  and  C_30
REMARK    3  A    between atoms: C_6  and  N_8
REMARK    4  A    between atoms: C_9  and  C_11
REMARK    5  A    between atoms: C_11  and  C_13
REMARK    6  A    between atoms: C_11  and  S_14
REMARK    7  A    between atoms: S_14  and  C_15
REMARK    8  A    between atoms: C_23  and  C_25
REMARK                            x       y       z     vdW  Elec       q    Type
REMARK                         _______ _______ _______ _____ _____    ______ ____
ROOT
ATOM      1  S   UNL     1       6.107   2.591  -0.954  0.00  0.00    -0.093 S 
ENDROOT
BRANCH   1   2
ATOM      2  C   UNL     1       7.449   1.463  -1.132  0.00  0.00    +0.109 A 
ATOM      3  C   UNL     1       8.731   1.895  -1.685  0.00  0.00    +0.032 A 
ATOM      4  C   UNL     1       8.963   3.212  -2.088  0.00  0.00    +0.012 A 
ATOM      5  C   UNL     1      10.184   3.556  -2.592  0.00  0.00    +0.001 A 
ATOM      6  C   UNL     1      11.201   2.612  -2.705  0.00  0.00    +0.002 A 
ATOM      7  C   UNL     1      11.008   1.320  -2.316  0.00  0.00    +0.028 A 
ATOM      8  C   UNL     1       9.766   0.933  -1.794  0.00  0.00    +0.076 A 
ATOM      9  N   UNL     1       9.522  -0.323  -1.397  0.00  0.00    -0.225 NA
ATOM     10  C   UNL     1       8.343  -0.664  -0.908  0.00  0.00    +0.197 A 
ATOM     11  N   UNL     1       7.329   0.191  -0.774  0.00  0.00    -0.218 NA
BRANCH  10  12
ATOM     12  C   UNL     1       8.137  -2.063  -0.489  0.00  0.00    +0.172 A 
ATOM     13  C   UNL     1       6.992  -2.581   0.032  0.00  0.00    +0.053 A 
ATOM     14  C   UNL     1       7.242  -3.943   0.286  0.00  0.00    +0.042 A 
ATOM     15  C   UNL     1       8.514  -4.188  -0.088  0.00  0.00    +0.196 A 
ATOM     16  O   UNL     1       9.050  -3.052  -0.561  0.00  0.00    -0.460 OA
ENDBRANCH  10  12
ENDBRANCH   1   2
BRANCH   1  17
ATOM     17  C   UNL     1       4.858   1.485  -0.251  0.00  0.00    +0.136 C 
ATOM     18  C   UNL     1       5.316   1.011   1.130  0.00  0.00    +0.029 C 
BRANCH  17  20
ATOM     19  N   UNL     1       2.397   1.533  -0.012  0.00  0.00    -0.284 N 
ATOM     20  C   UNL     1       3.550   2.222  -0.121  0.00  0.00    +0.230 C 
ATOM     21  O   UNL     1       3.535   3.434  -0.115  0.00  0.00    -0.274 OA
ATOM     22  H   UNL     1       2.416   0.436   0.057  0.00  0.00    +0.155 HD
BRANCH  19  28
ATOM     23  C   UNL     1      -0.223   5.477   1.315  0.00  0.00    +0.044 C 
ATOM     24  C   UNL     1      -0.123   4.128   0.650  0.00  0.00    -0.049 A 
ATOM     25  C   UNL     1      -1.241   3.562   0.064  0.00  0.00    +0.004 A 
ATOM     26  C   UNL     1      -1.153   2.327  -0.551  0.00  0.00    +0.005 A 
ATOM     27  C   UNL     1       0.050   1.650  -0.573  0.00  0.00    -0.029 A 
ATOM     28  C   UNL     1       1.175   2.215   0.013  0.00  0.00    +0.037 A 
ATOM     29  C   UNL     1       1.084   3.458   0.626  0.00  0.00    +0.027 A 
ATOM     30  C   UNL     1       0.144   0.301  -1.239  0.00  0.00    +0.045 C 
ENDBRANCH  19  28
ENDBRANCH  17  20
ENDBRANCH   1  17
TORSDOF 5
