REMARK  Name = ZINC41405346
REMARK  10 active torsions:
REMARK  status: ('A' for Active; 'I' for Inactive)
REMARK    1  A    between atoms: C_1  and  C_2
REMARK    2  A    between atoms: C_2  and  C_3
REMARK    3  A    between atoms: C_3  and  N_4
REMARK    4  A    between atoms: C_5  and  C_7
REMARK    5  A    between atoms: C_7  and  N_8
REMARK    6  A    between atoms: C_11  and  N_14
REMARK    7  A    between atoms: C_15  and  C_17
REMARK    8  A    between atoms: C_17  and  C_18
REMARK    9  A    between atoms: C_18  and  C_20
REMARK   10  A    between atoms: C_18  and  N_25
REMARK                            x       y       z     vdW  Elec       q    Type
REMARK                         _______ _______ _______ _____ _____    ______ ____
ROOT
ATOM      1  N   UNL     1       3.121  -6.626   6.990  0.00  0.00    -0.313 N 
ATOM      2  C   UNL     1       3.014  -7.880   7.473  0.00  0.00    +0.215 C 
ATOM      3  O   UNL     1       2.250  -8.666   6.955  0.00  0.00    -0.276 OA
ATOM      4  H   UNL     1       3.732  -5.997   7.404  0.00  0.00    +0.149 HD
ENDROOT
BRANCH   1   8
ATOM      5  N   UNL     1       2.095  -4.641   3.417  0.00  0.00    +0.385 N 
ATOM      6  C   UNL     1       1.347  -4.261   4.621  0.00  0.00    -0.076 C 
ATOM      7  C   UNL     1       2.123  -4.694   5.867  0.00  0.00    +0.003 C 
ATOM      8  C   UNL     1       2.313  -6.213   5.840  0.00  0.00    +0.069 C 
ATOM      9  C   UNL     1       3.029  -6.606   4.544  0.00  0.00    +0.003 C 
ATOM     10  C   UNL     1       2.219  -6.101   3.348  0.00  0.00    -0.076 C 
ATOM     11  H   UNL     1       3.015  -4.227   3.451  0.00  0.00    -0.081 HD
BRANCH   5  12
ATOM     12  C   UNL     1       1.385  -4.154   2.227  0.00  0.00    +0.019 C 
BRANCH  12  14
ATOM     13  N   UNL     1       0.762  -1.976   1.234  0.00  0.00    -0.317 N 
ATOM     14  C   UNL     1       1.364  -2.647   2.235  0.00  0.00    +0.196 C 
ATOM     15  O   UNL     1       1.890  -2.038   3.143  0.00  0.00    -0.278 OA
ATOM     16  H   UNL     1       0.342  -2.462   0.507  0.00  0.00    +0.149 HD
BRANCH  13  17
ATOM     17  C   UNL     1       0.742  -0.511   1.242  0.00  0.00    +0.104 C 
BRANCH  17  19
ATOM     18  C   UNL     1      -0.019   1.526   0.010  0.00  0.00    +0.005 C 
ATOM     19  C   UNL     1       0.002  -0.004   0.002  0.00  0.00    +0.015 C 
ENDBRANCH  17  19
ENDBRANCH  13  17
ENDBRANCH  12  14
ENDBRANCH   5  12
ENDBRANCH   1   8
BRANCH   2  20
ATOM     20  C   UNL     1       3.845  -8.305   8.656  0.00  0.00    +0.123 C 
BRANCH  20  21
ATOM     21  C   UNL     1       3.536  -9.763   8.999  0.00  0.00    +0.120 C 
BRANCH  21  22
ATOM     22  N   UNL     1       2.144  -9.876   9.443  0.00  0.00    -0.292 N 
ATOM     23  C   UNL     1       1.490 -11.048   9.320  0.00  0.00    +0.298 C 
ATOM     24  O   UNL     1       2.055 -12.012   8.841  0.00  0.00    -0.253 OA
ATOM     25  N   UNL     1       0.210 -11.152   9.728  0.00  0.00    -0.313 N 
ATOM     26  H   UNL     1       1.693  -9.107   9.825  0.00  0.00    +0.151 HD
ATOM     27  H   UNL     1      -0.241 -10.383  10.110  0.00  0.00    +0.146 HD
ATOM     28  H   UNL     1      -0.261 -11.995   9.639  0.00  0.00    +0.146 HD
ENDBRANCH  21  22
BRANCH  21  29
ATOM     29  C   UNL     1       4.453 -10.226  10.102  0.00  0.00    +0.010 A 
ATOM     30  C   UNL     1       5.589 -10.961  10.016  0.00  0.00    +0.013 A 
ATOM     31  C   UNL     1       6.277 -11.269  11.174  0.00  0.00    +0.008 A 
ATOM     32  C   UNL     1       5.796 -10.828  12.362  0.00  0.00    +0.045 A 
ATOM     33  S   UNL     1       4.331  -9.940  11.860  0.00  0.00    -0.100 S 
ENDBRANCH  21  29
ENDBRANCH  20  21
ENDBRANCH   2  20
TORSDOF 9
