REMARK  Name = ZINC59409338
REMARK  12 active torsions:
REMARK  status: ('A' for Active; 'I' for Inactive)
REMARK    1  A    between atoms: C_1  and  C_2
REMARK    2  A    between atoms: C_2  and  C_3
REMARK    3  A    between atoms: C_3  and  C_4
REMARK    4  A    between atoms: C_5  and  C_6
REMARK    5  A    between atoms: C_6  and  C_7
REMARK    6  A    between atoms: C_6  and  C_8
REMARK    7  A    between atoms: C_6  and  O_26
REMARK    8  A    between atoms: C_8  and  N_9
REMARK    9  A    between atoms: N_9  and  CA_10
REMARK   10  A    between atoms: CA_10  and  CB_12
REMARK   11  A    between atoms: CA_10  and  C_23
REMARK   12  A    between atoms: CB_12  and  CG_13
REMARK                            x       y       z     vdW  Elec       q    Type
REMARK                         _______ _______ _______ _____ _____    ______ ____
ROOT
ATOM      1  CA  UNL     1       2.349  -7.071   1.082  0.00  0.00    +0.048 C 
ENDROOT
BRANCH   1   2
ATOM      2  N   UNL     1       1.639  -6.584  -0.108  0.00  0.00    +0.391 N 
ATOM      3  H1  UNL     1       0.720  -6.999  -0.144  0.00  0.00    -0.085 HD
ATOM      4  H2  UNL     1       2.155  -6.839  -0.936  0.00  0.00    -0.085 HD
BRANCH   2   5
ATOM      5  C   ACE A   0       1.514  -5.122  -0.040  0.00  0.00    -0.033 C 
BRANCH   5   6
ATOM      6  C   UNL     1       0.774  -4.615  -1.279  0.00  0.00    +0.109 C 
ATOM      7  C   UNL     1       1.490  -5.109  -2.538  0.00  0.00    +0.053 C 
BRANCH   6   9
ATOM      8  C   UNL     1       0.738  -1.969  -1.265  0.00  0.00    -0.099 C 
ATOM      9  C   UNL     1       0.754  -3.143  -1.271  0.00  0.00    -0.070 C 
BRANCH   8  10
ATOM     10  C   UNL     1       0.718  -0.497  -1.257  0.00  0.00    +0.088 C 
BRANCH  10  12
ATOM     11  C   UNL     1      -0.019   1.526   0.010  0.00  0.00    +0.005 C 
ATOM     12  C   UNL     1       0.002  -0.004   0.002  0.00  0.00    +0.009 C 
ENDBRANCH  10  12
ENDBRANCH   8  10
ENDBRANCH   6   9
BRANCH   6  13
ATOM     13  O   UNL     1      -0.567  -5.110  -1.269  0.00  0.00    -0.379 OA
ATOM     14  H   UNL     1      -1.081  -4.835  -0.498  0.00  0.00    +0.211 HD
ENDBRANCH   6  13
ENDBRANCH   5   6
ENDBRANCH   2   5
ENDBRANCH   1   2
BRANCH   1  15
ATOM     15  C   UNL     1       3.763  -6.549   1.072  0.00  0.00    +0.343 C 
ATOM     16  O   UNL     1       4.345  -6.344   2.123  0.00  0.00    -0.248 OA
ATOM     17  OXT UNL     1       4.325  -6.332   0.011  0.00  0.00    -0.248 OA
ENDBRANCH   1  15
BRANCH   1  18
ATOM     18  CB  UNL     1       2.370  -8.601   1.074  0.00  0.00    +0.032 C 
BRANCH  18  19
ATOM     19  CG  UNL     1       0.963  -9.123   1.208  0.00  0.00    -0.023 A 
ATOM     20  CD1 UNL     1       0.351  -9.487   2.347  0.00  0.00    +0.087 A 
ATOM     21  NE1 UNL     1      -0.922  -9.910   2.078  0.00  0.00    -0.360 N 
ATOM     22  HE1 UNL     1      -1.557 -10.222   2.741  0.00  0.00    +0.165 HD
ATOM     23  CE2 UNL     1      -1.167  -9.826   0.726  0.00  0.00    +0.047 A 
ATOM     24  CD2 UNL     1       0.000  -9.323   0.122  0.00  0.00    +0.003 A 
ATOM     25  CE3 UNL     1       0.041  -9.126  -1.259  0.00  0.00    +0.010 A 
ATOM     26  CZ3 UNL     1      -1.057  -9.419  -2.019  0.00  0.00    +0.001 A 
ATOM     27  CH2 UNL     1      -2.212  -9.911  -1.428  0.00  0.00    +0.002 A 
ATOM     28  CZ2 UNL     1      -2.271 -10.122  -0.067  0.00  0.00    +0.026 A 
ENDBRANCH  18  19
ENDBRANCH   1  18
TORSDOF 10
