REMARK  Name = ZINC20568354
REMARK  5 active torsions:
REMARK  status: ('A' for Active; 'I' for Inactive)
REMARK    1  A    between atoms: C_1  and  C_2
REMARK    2  A    between atoms: C_2  and  C_23
REMARK    3  A    between atoms: C_6  and  C_17
REMARK    4  A    between atoms: C_11  and  C_15
REMARK    5  A    between atoms: C_11  and  C_16
REMARK                            x       y       z     vdW  Elec       q    Type
REMARK                         _______ _______ _______ _____ _____    ______ ____
ROOT
ATOM      1  C   UNL     1      -3.550   1.151  -1.702  0.00  0.00    +0.011 C 
ATOM      2  C   UNL     1      -3.675   1.425  -0.202  0.00  0.00    -0.023 C 
ATOM      3  C   UNL     1      -2.433   0.902   0.522  0.00  0.00    +0.058 C 
ATOM      4  C   UNL     1      -1.209   1.625   0.017  0.00  0.00    +0.016 C 
ATOM      5  C   UNL     1      -1.286   2.902  -0.408  0.00  0.00    +0.030 C 
ATOM      6  C   UNL     1      -0.056   3.618  -0.902  0.00  0.00    +0.171 C 
ATOM      7  C   UNL     1       1.200   2.940  -0.421  0.00  0.00    +0.030 C 
ATOM      8  C   UNL     1       1.169   1.658  -0.000  0.00  0.00    +0.016 C 
ATOM      9  N   UNL     1      -0.011   0.966   0.007  0.00  0.00    -0.320 N 
ATOM     10  C   UNL     1       2.423   0.961   0.466  0.00  0.00    +0.058 C 
ATOM     11  C   UNL     1       3.372   1.982   1.097  0.00  0.00    -0.023 C 
ATOM     12  C   UNL     1       3.688   3.061   0.056  0.00  0.00    +0.086 C 
ATOM     13  C   UNL     1       2.400   3.674  -0.423  0.00  0.00    +0.162 C 
ATOM     14  O   UNL     1       2.396   4.823  -0.817  0.00  0.00    -0.292 OA
ATOM     15  C   UNL     1       2.703   2.623   2.314  0.00  0.00    +0.011 C 
ATOM     16  C   UNL     1       4.666   1.286   1.524  0.00  0.00    +0.011 C 
ATOM     17  C   UNL     1      -2.510   3.594  -0.412  0.00  0.00    +0.162 C 
ATOM     18  O   UNL     1      -2.543   4.746  -0.799  0.00  0.00    -0.292 OA
ATOM     19  C   UNL     1      -3.779   2.935   0.037  0.00  0.00    +0.086 C 
ATOM     20  C   UNL     1      -4.922   0.731   0.349  0.00  0.00    +0.011 C 
ATOM     21  H   UNL     1       0.011  -0.134   0.006  0.00  0.00    +0.152 HD
ENDROOT
BRANCH   6  22
ATOM     22  C   UNL     1      -0.063   3.630  -2.409  0.00  0.00    +0.368 C 
ATOM     23  O   UNL     1       0.855   3.140  -3.022  0.00  0.00    -0.245 OA
ATOM     24  O   UNL     1      -1.090   4.186  -3.071  0.00  0.00    -0.245 OA
ENDBRANCH   6  22
TORSDOF 1
