REMARK  Name = ZINC33692110
REMARK  7 active torsions:
REMARK  status: ('A' for Active; 'I' for Inactive)
REMARK    1  A    between atoms: C_1  and  C_2
REMARK    2  A    between atoms: C_5  and  N_8
REMARK    3  A    between atoms: C_9  and  C_11
REMARK    4  A    between atoms: C_11  and  S_12
REMARK    5  A    between atoms: S_12  and  C_13
REMARK    6  A    between atoms: C_17  and  C_21
REMARK    7  A    between atoms: N_24  and  C_25
REMARK                            x       y       z     vdW  Elec       q    Type
REMARK                         _______ _______ _______ _____ _____    ______ ____
ROOT
ATOM      1  C   UNL     1       0.593  -8.709   2.636  0.00  0.00    +0.177 A 
ATOM      2  N   UNL     1       0.583  -9.200   1.417  0.00  0.00    -0.201 NA
ATOM      3  C   UNL     1       0.692 -10.526   1.202  0.00  0.00    +0.187 A 
ATOM      4  C   UNL     1       0.822 -11.406   2.377  0.00  0.00    +0.079 A 
ATOM      5  C   UNL     1       0.916 -12.693   1.896  0.00  0.00    +0.046 A 
ATOM      6  N   UNL     1       0.852 -12.636   0.558  0.00  0.00    -0.279 N 
ATOM      7  N   UNL     1       0.715 -11.306   0.144  0.00  0.00    -0.153 NA
ATOM      8  H   UNL     1       0.894 -13.402  -0.035  0.00  0.00    +0.189 HD
ATOM      9  C   UNL     1       1.065 -13.943   2.725  0.00  0.00    +0.066 C 
ATOM     10  C   UNL     1       0.824 -10.776   3.694  0.00  0.00    +0.115 A 
ATOM     11  N   UNL     1       0.941 -11.525   4.842  0.00  0.00    -0.344 N 
ATOM     12  N   UNL     1       0.713  -9.449   3.744  0.00  0.00    -0.275 N 
ATOM     13  H   UNL     1       1.026 -12.490   4.786  0.00  0.00    +0.144 HD
ATOM     14  H   UNL     1       0.940 -11.088   5.708  0.00  0.00    +0.144 HD
ENDROOT
BRANCH  12  15
ATOM     15  C   UNL     1       0.716  -8.822   4.972  0.00  0.00    +0.068 A 
ATOM     16  C   UNL     1      -0.480  -8.616   5.655  0.00  0.00    +0.028 A 
ATOM     17  C   UNL     1      -0.471  -7.988   6.884  0.00  0.00    +0.002 A 
ATOM     18  C   UNL     1       0.723  -7.563   7.439  0.00  0.00    +0.002 A 
ATOM     19  C   UNL     1       1.914  -7.764   6.765  0.00  0.00    +0.022 A 
ATOM     20  C   UNL     1       1.918  -8.396   5.537  0.00  0.00    +0.065 A 
ATOM     21 CL   UNL     1       3.415  -8.655   4.696  0.00  0.00    -0.081 Cl
ENDBRANCH  12  15
BRANCH   1  22
ATOM     22  S   UNL     1       0.446  -6.963   2.823  0.00  0.00    -0.078 S 
BRANCH  22  23
ATOM     23  C   UNL     1       0.309  -6.349   1.121  0.00  0.00    +0.173 C 
BRANCH  23  25
ATOM     24  N   UNL     1       0.059  -4.170  -0.021  0.00  0.00    -0.285 N 
ATOM     25  C   UNL     1       0.175  -4.848   1.138  0.00  0.00    +0.227 C 
ATOM     26  O   UNL     1       0.173  -4.251   2.193  0.00  0.00    -0.275 OA
ATOM     27  H   UNL     1      -0.017  -4.651  -0.860  0.00  0.00    +0.155 HD
BRANCH  24  32
ATOM     28  C   UNL     1       0.008   1.503   0.007  0.00  0.00    +0.044 C 
ATOM     29  C   UNL     1       0.022  -0.004  -0.001  0.00  0.00    -0.050 A 
ATOM     30  C   UNL     1       0.777  -0.692   0.931  0.00  0.00    +0.005 A 
ATOM     31  C   UNL     1       0.791  -2.073   0.927  0.00  0.00    +0.023 A 
ATOM     32  C   UNL     1       0.046  -2.771  -0.014  0.00  0.00    +0.033 A 
ATOM     33  C   UNL     1      -0.712  -2.077  -0.948  0.00  0.00    +0.023 A 
ATOM     34  C   UNL     1      -0.726  -0.696  -0.936  0.00  0.00    +0.005 A 
ENDBRANCH  24  32
ENDBRANCH  23  25
ENDBRANCH  22  23
ENDBRANCH   1  22
TORSDOF 5
