REMARK  Name = ZINC12578821
REMARK  13 active torsions:
REMARK  status: ('A' for Active; 'I' for Inactive)
REMARK    1  A    between atoms: C_1  and  C_2
REMARK    2  A    between atoms: C_2  and  N_3
REMARK    3  A    between atoms: N_3  and  C_4
REMARK    4  A    between atoms: N_3  and  S_6
REMARK    5  A    between atoms: C_4  and  C_5
REMARK    6  A    between atoms: S_6  and  C_9
REMARK    7  A    between atoms: C_12  and  N_32
REMARK    8  A    between atoms: C_13  and  C_15
REMARK    9  A    between atoms: C_15  and  O_17
REMARK   10  A    between atoms: O_17  and  C_18
REMARK   11  A    between atoms: C_18  and  C_19
REMARK   12  A    between atoms: C_19  and  C_20
REMARK   13  A    between atoms: C_20  and  N_21
REMARK                            x       y       z     vdW  Elec       q    Type
REMARK                         _______ _______ _______ _____ _____    ______ ____
ROOT
ATOM      1  C   UNL     1      -7.789   2.990  -6.638  0.00  0.00    +0.106 A 
ATOM      2  C   UNL     1      -9.137   2.715  -6.809  0.00  0.00    +0.030 A 
ATOM      3  C   UNL     1      -9.959   2.538  -5.715  0.00  0.00    +0.026 A 
ATOM      4  C   UNL     1      -9.437   2.629  -4.431  0.00  0.00    +0.044 A 
ATOM      5  C   UNL     1      -8.074   2.913  -4.253  0.00  0.00    +0.082 A 
ATOM      6  C   UNL     1      -7.255   3.090  -5.372  0.00  0.00    +0.045 A 
ENDROOT
BRANCH   4   7
ATOM      7  N   UNL     1     -10.261   2.445  -3.328  0.00  0.00    -0.329 N 
ATOM      8  C   UNL     1     -10.784   1.073  -3.284  0.00  0.00    +0.105 C 
ATOM      9  C   UNL     1     -11.566   0.865  -1.986  0.00  0.00    +0.019 C 
ATOM     10  C   UNL     1     -12.717   1.873  -1.922  0.00  0.00    +0.003 C 
ATOM     11  C   UNL     1     -12.150   3.291  -2.018  0.00  0.00    +0.019 C 
ATOM     12  C   UNL     1     -11.351   3.429  -3.316  0.00  0.00    +0.105 C 
ENDBRANCH   4   7
BRANCH   1  13
ATOM     13  S   UNL     1      -6.754   3.213  -8.046  0.00  0.00    +0.061 S 
ATOM     14  O   UNL     1      -7.603   3.609  -9.115  0.00  0.00    -0.153 OA
ATOM     15  O   UNL     1      -5.650   3.999  -7.618  0.00  0.00    -0.153 OA
BRANCH  13  16
ATOM     16  N   UNL     1      -6.148   1.726  -8.449  0.00  0.00    -0.177 NA
BRANCH  16  18
ATOM     17  C   UNL     1      -6.318   1.073 -10.800  0.00  0.00    +0.022 C 
ATOM     18  C   UNL     1      -6.875   0.869  -9.389  0.00  0.00    +0.106 C 
ENDBRANCH  16  18
BRANCH  16  19
ATOM     19  C   UNL     1      -4.886   1.266  -7.865  0.00  0.00    +0.106 C 
ATOM     20  C   UNL     1      -5.176   0.409  -6.632  0.00  0.00    +0.022 C 
ENDBRANCH  16  19
ENDBRANCH  13  16
ENDBRANCH   1  13
BRANCH   5  21
ATOM     21  C   UNL     1      -7.509   3.019  -2.897  0.00  0.00    +0.341 C 
ATOM     22  O   UNL     1      -8.225   2.865  -1.927  0.00  0.00    -0.245 OA
BRANCH  21  23
ATOM     23  O   UNL     1      -6.199   3.288  -2.732  0.00  0.00    -0.461 OA
BRANCH  23  24
ATOM     24  C   UNL     1      -5.711   3.378  -1.367  0.00  0.00    +0.234 C 
BRANCH  24  25
ATOM     25  C   UNL     1      -4.213   3.686  -1.380  0.00  0.00    +0.063 C 
BRANCH  25  26
ATOM     26  C   UNL     1      -3.699   3.781   0.058  0.00  0.00    +0.130 C 
BRANCH  26  27
ATOM     27  N   UNL     1      -2.264   4.076   0.045  0.00  0.00    -0.292 N 
ATOM     28  C   UNL     1      -1.238   3.134   0.031  0.00  0.00    +0.070 A 
ATOM     29  C   UNL     1      -1.220   1.747   0.017  0.00  0.00    +0.028 A 
ATOM     30  C   UNL     1      -0.013   1.076   0.008  0.00  0.00    +0.002 A 
ATOM     31  C   UNL     1       1.179   1.781   0.000  0.00  0.00    +0.002 A 
ATOM     32  C   UNL     1       1.170   3.162   0.007  0.00  0.00    +0.028 A 
ATOM     33  C   UNL     1      -0.037   3.845   0.023  0.00  0.00    +0.067 A 
ATOM     34  N   UNL     1      -0.370   5.197   0.033  0.00  0.00    -0.306 N 
ATOM     35  H   UNL     1       0.258   5.937   0.031  0.00  0.00    +0.170 HD
ATOM     36  C   UNL     1      -1.712   5.304   0.046  0.00  0.00    +0.328 A 
ATOM     37  O   UNL     1      -2.332   6.351   0.058  0.00  0.00    -0.247 OA
ENDBRANCH  26  27
ENDBRANCH  25  26
ENDBRANCH  24  25
ENDBRANCH  23  24
ENDBRANCH  21  23
ENDBRANCH   5  21
TORSDOF 11
