REMARK  Name = ZINC18036744
REMARK  13 active torsions:
REMARK  status: ('A' for Active; 'I' for Inactive)
REMARK    1  A    between atoms: C_1  and  C_2
REMARK    2  A    between atoms: C_2  and  C_3
REMARK    3  A    between atoms: C_2  and  C_4
REMARK    4  A    between atoms: C_2  and  C_5
REMARK    5  A    between atoms: C_7  and  C_16
REMARK    6  A    between atoms: C_9  and  C_12
REMARK    7  A    between atoms: C_10  and  O_11
REMARK    8  A    between atoms: C_12  and  C_13
REMARK    9  A    between atoms: C_12  and  C_14
REMARK   10  A    between atoms: C_12  and  C_15
REMARK   11  A    between atoms: N_24  and  C_27
REMARK   12  A    between atoms: C_27  and  C_28
REMARK   13  A    between atoms: N_35  and  C_36
REMARK                            x       y       z     vdW  Elec       q    Type
REMARK                         _______ _______ _______ _____ _____    ______ ____
ROOT
ATOM      1  C   UNL     1       2.418   0.968  -4.270  0.00  0.00    +0.157 C 
ATOM      2  C   UNL     1       3.927   1.103  -4.107  0.00  0.00    +0.145 C 
ATOM      3  C   UNL     1       4.263   1.426  -5.612  0.00  0.00    +0.249 C 
ATOM      4  C   UNL     1       5.588   2.001  -5.496  0.00  0.00    +0.254 C 
ATOM      5  O   UNL     1       6.498   1.917  -6.293  0.00  0.00    -0.272 OA
ATOM      6  N   UNL     1       5.593   2.661  -4.295  0.00  0.00    -0.235 N 
ATOM      7  C   UNL     1       4.520   2.333  -3.495  0.00  0.00    +0.231 C 
ATOM      8  O   UNL     1       4.129   2.916  -2.506  0.00  0.00    -0.275 OA
ATOM      9  O   UNL     1       3.582   0.455  -6.290  0.00  0.00    -0.257 OA
ATOM     10  N   UNL     1       2.259   0.466  -5.666  0.00  0.00    -0.244 N 
ENDROOT
BRANCH   1  13
ATOM     11  C   UNL     1       0.707  -0.490  -1.238  0.00  0.00    +0.000 A 
ATOM     12  C   UNL     1       1.217   0.419  -2.145  0.00  0.00    +0.013 A 
ATOM     13  C   UNL     1       1.864  -0.026  -3.283  0.00  0.00    -0.021 A 
ATOM     14  C   UNL     1       2.003  -1.382  -3.516  0.00  0.00    +0.013 A 
ATOM     15  C   UNL     1       1.496  -2.295  -2.612  0.00  0.00    +0.000 A 
ATOM     16  C   UNL     1       0.851  -1.851  -1.467  0.00  0.00    +0.124 A 
BRANCH  11  18
ATOM     17  C   UNL     1      -0.019   1.526   0.010  0.00  0.00    +0.015 C 
ATOM     18  C   UNL     1       0.002  -0.004   0.002  0.00  0.00    -0.009 C 
ATOM     19  C   UNL     1       0.742  -0.511   1.242  0.00  0.00    +0.015 C 
ATOM     20  C   UNL     1      -1.433  -0.534   0.013  0.00  0.00    +0.015 C 
ENDBRANCH  11  18
BRANCH  15  21
ATOM     21  C   UNL     1       1.648  -3.773  -2.867  0.00  0.00    -0.009 C 
ATOM     22  C   UNL     1       2.396  -3.989  -4.184  0.00  0.00    +0.015 C 
ATOM     23  C   UNL     1       2.438  -4.409  -1.722  0.00  0.00    +0.015 C 
ATOM     24  C   UNL     1       0.264  -4.420  -2.953  0.00  0.00    +0.015 C 
ENDBRANCH  15  21
BRANCH  16  25
ATOM     25  O   UNL     1       0.356  -2.747  -0.573  0.00  0.00    -0.506 OA
ATOM     26  H   UNL     1      -0.556  -3.015  -0.749  0.00  0.00    +0.292 HD
ENDBRANCH  16  25
ENDBRANCH   1  13
BRANCH  10  27
ATOM     27  C   UNL     1       1.060   0.068  -6.263  0.00  0.00    +0.065 A 
ATOM     28  C   UNL     1      -0.128   0.126  -5.546  0.00  0.00    +0.028 A 
ATOM     29  C   UNL     1      -1.311  -0.268  -6.140  0.00  0.00    +0.002 A 
ATOM     30  C   UNL     1      -1.314  -0.720  -7.446  0.00  0.00    +0.000 A 
ATOM     31  C   UNL     1      -0.133  -0.779  -8.163  0.00  0.00    +0.002 A 
ATOM     32  C   UNL     1       1.053  -0.382  -7.578  0.00  0.00    +0.028 A 
ENDBRANCH  10  27
BRANCH   6  33
ATOM     33  C   UNL     1       6.637   3.607  -3.893  0.00  0.00    +0.151 C 
BRANCH  33  34
ATOM     34  C   UNL     1       6.255   4.995  -4.337  0.00  0.00    -0.030 A 
ATOM     35  C   UNL     1       6.636   5.452  -5.584  0.00  0.00    +0.005 A 
ATOM     36  C   UNL     1       6.285   6.726  -5.990  0.00  0.00    +0.000 A 
ATOM     37  C   UNL     1       5.552   7.542  -5.149  0.00  0.00    +0.000 A 
ATOM     38  C   UNL     1       5.170   7.085  -3.902  0.00  0.00    +0.000 A 
ATOM     39  C   UNL     1       5.517   5.810  -3.498  0.00  0.00    +0.005 A 
ENDBRANCH  33  34
ENDBRANCH   6  33
TORSDOF 7
