REMARK  Name = ZINC53113042
REMARK  7 active torsions:
REMARK  status: ('A' for Active; 'I' for Inactive)
REMARK    1  A    between atoms: C_1  and  C_2
REMARK    2  A    between atoms: C_5  and  C_8
REMARK    3  A    between atoms: C_5  and  N_10
REMARK    4  A    between atoms: C_8  and  O_9
REMARK    5  A    between atoms: N_10  and  S_11
REMARK    6  A    between atoms: S_11  and  C_14
REMARK    7  A    between atoms: C_18  and  N_20
REMARK                            x       y       z     vdW  Elec       q    Type
REMARK                         _______ _______ _______ _____ _____    ______ ____
ROOT
ATOM      1  S   UNL     1       3.696  -2.932  -0.915  0.00  0.00    +0.059 S 
ATOM      2  O   UNL     1       4.438  -1.811  -1.379  0.00  0.00    -0.153 OA
ATOM      3  O   UNL     1       4.317  -4.152  -0.535  0.00  0.00    -0.153 OA
ENDROOT
BRANCH   1   4
ATOM      4  C   UNL     1       2.538  -3.329  -2.183  0.00  0.00    +0.107 A 
ATOM      5  C   UNL     1       1.805  -4.499  -2.106  0.00  0.00    +0.030 A 
ATOM      6  C   UNL     1       0.896  -4.815  -3.098  0.00  0.00    +0.024 A 
ATOM      7  C   UNL     1       0.717  -3.962  -4.171  0.00  0.00    +0.062 A 
ATOM      8  C   UNL     1       1.452  -2.785  -4.250  0.00  0.00    +0.045 A 
ATOM      9  C   UNL     1       2.361  -2.469  -3.249  0.00  0.00    +0.052 A 
ATOM     10 CL   UNL     1      -0.424  -4.360  -5.417  0.00  0.00    -0.082 Cl
BRANCH   8  11
ATOM     11  N   UNL     1       1.274  -1.920  -5.333  0.00  0.00    -0.357 N 
ATOM     12  H   UNL     1       0.637  -2.141  -6.031  0.00  0.00    +0.142 HD
ATOM     13  H   UNL     1       1.788  -1.099  -5.388  0.00  0.00    +0.142 HD
ENDBRANCH   8  11
ENDBRANCH   1   4
BRANCH   1  14
ATOM     14  N   UNL     1       2.828  -2.414   0.396  0.00  0.00    -0.182 NA
ATOM     15  H   UNL     1       2.889  -2.893   1.238  0.00  0.00    +0.149 HD
BRANCH  14  20
ATOM     16  C   UNL     1      -1.446  -1.104   1.189  0.00  0.00    +0.007 C 
ATOM     17  C   UNL     1      -0.548  -2.337   1.304  0.00  0.00    -0.014 C 
ATOM     18  C   UNL     1      -0.013  -2.710  -0.081  0.00  0.00    +0.005 C 
ATOM     19  C   UNL     1       0.795  -1.541  -0.647  0.00  0.00    +0.026 C 
ATOM     20  C   UNL     1       1.968  -1.233   0.286  0.00  0.00    +0.063 C 
ATOM     21  C   UNL     1       1.434  -0.860   1.671  0.00  0.00    +0.026 C 
ATOM     22  C   UNL     1       0.625  -2.029   2.237  0.00  0.00    +0.005 C 
BRANCH  20  23
ATOM     23  C   UNL     1       2.777  -0.064  -0.280  0.00  0.00    +0.179 C 
BRANCH  23  24
ATOM     24  O   UNL     1       3.958   0.121   0.502  0.00  0.00    -0.393 OA
ATOM     25  H   UNL     1       4.521   0.847   0.200  0.00  0.00    +0.209 HD
ENDBRANCH  23  24
ENDBRANCH  20  23
ENDBRANCH  14  20
ENDBRANCH   1  14
TORSDOF 6
