REMARK  Name = ZINC36598878
REMARK  17 active torsions:
REMARK  status: ('A' for Active; 'I' for Inactive)
REMARK    1  A    between atoms: C_1  and  C_2
REMARK    2  A    between atoms: C_5  and  C_7
REMARK    3  A    between atoms: C_7  and  N_8
REMARK    4  A    between atoms: N_8  and  C_9
REMARK    5  A    between atoms: C_9  and  C_11
REMARK    6  A    between atoms: C_9  and  C_18
REMARK    7  A    between atoms: C_16  and  O_17
REMARK    8  A    between atoms: N_20  and  C_21
REMARK    9  A    between atoms: C_21  and  C_22
REMARK   10  A    between atoms: C_21  and  C_23
REMARK   11  A    between atoms: C_21  and  C_24
REMARK   12  A    between atoms: C_24  and  C_25
REMARK   13  A    between atoms: C_25  and  C_26
REMARK   14  A    between atoms: C_25  and  C_27
REMARK   15  A    between atoms: C_25  and  C_28
REMARK   16  A    between atoms: C_29  and  C_31
REMARK   17  A    between atoms: C_31  and  C_32
REMARK                            x       y       z     vdW  Elec       q    Type
REMARK                         _______ _______ _______ _____ _____    ______ ____
ROOT
ATOM      1  C   UNL     1       3.722  -3.819  -2.506  0.00  0.00    +0.196 C 
ENDROOT
BRANCH   1   2
ATOM      2  C   UNL     1       3.051  -2.523  -2.883  0.00  0.00    +0.023 A 
ATOM      3  C   UNL     1       1.920  -2.107  -2.206  0.00  0.00    +0.009 A 
ATOM      4  C   UNL     1       1.304  -0.919  -2.552  0.00  0.00    +0.001 A 
ATOM      5  C   UNL     1       1.818  -0.143  -3.575  0.00  0.00    +0.004 A 
ATOM      6  C   UNL     1       2.948  -0.554  -4.254  0.00  0.00    +0.046 A 
ATOM      7  C   UNL     1       3.572  -1.744  -3.905  0.00  0.00    +0.122 A 
BRANCH   7   8
ATOM      8  O   UNL     1       4.687  -2.147  -4.568  0.00  0.00    -0.506 OA
ATOM      9  H   UNL     1       4.507  -2.695  -5.344  0.00  0.00    +0.292 HD
ENDBRANCH   7   8
ENDBRANCH   1   2
BRANCH   1  10
ATOM     10  C   UNL     1       4.904  -3.532  -1.616  0.00  0.00    +0.239 C 
ATOM     11  O   UNL     1       4.947  -3.995  -0.496  0.00  0.00    -0.273 OA
ATOM     12  N   UNL     1       5.914  -2.761  -2.066  0.00  0.00    -0.308 N 
ATOM     13  H   UNL     1       5.880  -2.391  -2.962  0.00  0.00    +0.149 HD
BRANCH  12  14
ATOM     14  C   UNL     1       7.064  -2.482  -1.201  0.00  0.00    +0.030 C 
ATOM     15  C   UNL     1       6.657  -1.480  -0.119  0.00  0.00    +0.031 C 
ATOM     16  C   UNL     1       7.533  -3.781  -0.542  0.00  0.00    +0.031 C 
BRANCH  14  17
ATOM     17  C   UNL     1       8.201  -1.895  -2.039  0.00  0.00    +0.031 C 
BRANCH  17  18
ATOM     18  C   UNL     1       8.298  -2.648  -3.367  0.00  0.00    -0.036 C 
ATOM     19  C   UNL     1       7.270  -2.082  -4.349  0.00  0.00    +0.010 C 
ATOM     20  C   UNL     1       9.703  -2.480  -3.948  0.00  0.00    +0.010 C 
ATOM     21  C   UNL     1       8.016  -4.133  -3.133  0.00  0.00    +0.010 C 
ENDBRANCH  17  18
ENDBRANCH  14  17
ENDBRANCH  12  14
ENDBRANCH   1  10
BRANCH   1  22
ATOM     22  N   UNL     1       2.769  -4.672  -1.791  0.00  0.00    -0.278 N 
ATOM     23  C   UNL     1       2.330  -4.315  -0.568  0.00  0.00    +0.221 C 
ATOM     24  O   UNL     1       2.632  -3.235  -0.107  0.00  0.00    -0.275 OA
BRANCH  22  25
ATOM     25  C   UNL     1       2.294  -5.914  -2.407  0.00  0.00    +0.183 C 
BRANCH  25  30
ATOM     26  C   UNL     1       6.244  -9.051  -2.377  0.00  0.00    +0.086 C 
ATOM     27  C   UNL     1       4.929  -8.411  -2.012  0.00  0.00    +0.102 A 
ATOM     28  C   UNL     1       4.101  -8.818  -1.034  0.00  0.00    +0.045 A 
ATOM     29  C   UNL     1       2.994  -7.939  -1.042  0.00  0.00    +0.046 A 
ATOM     30  C   UNL     1       3.212  -7.047  -2.025  0.00  0.00    +0.122 A 
ATOM     31  O   UNL     1       4.388  -7.334  -2.606  0.00  0.00    -0.463 OA
ENDBRANCH  25  30
ENDBRANCH  22  25
BRANCH  23  32
ATOM     32  C   UNL     1       1.464  -5.258   0.227  0.00  0.00    +0.131 C 
BRANCH  32  33
ATOM     33  C   UNL     1       1.112  -4.624   1.548  0.00  0.00    -0.035 A 
ATOM     34  C   UNL     1       1.933  -4.813   2.644  0.00  0.00    +0.008 A 
ATOM     35  C   UNL     1       1.615  -4.234   3.858  0.00  0.00    +0.050 A 
ATOM     36  C   UNL     1       0.471  -3.462   3.979  0.00  0.00    +0.166 A 
ATOM     37  C   UNL     1      -0.356  -3.271   2.875  0.00  0.00    +0.166 A 
ATOM     38  C   UNL     1      -0.028  -3.851   1.660  0.00  0.00    +0.053 A 
ATOM     39  O   UNL     1      -1.406  -2.482   3.247  0.00  0.00    -0.453 OA
ATOM     40  C   UNL     1      -1.430  -2.529   4.686  0.00  0.00    +0.466 C 
ATOM     41  O   UNL     1      -0.061  -2.792   5.043  0.00  0.00    -0.453 OA
ENDBRANCH  32  33
ENDBRANCH  23  32
ENDBRANCH   1  22
TORSDOF 11
