REMARK  Name = ZINC22473312
REMARK  9 active torsions:
REMARK  status: ('A' for Active; 'I' for Inactive)
REMARK    1  A    between atoms: C_4  and  C_7
REMARK    2  A    between atoms: C_7  and  N_8
REMARK    3  A    between atoms: N_8  and  C_9
REMARK    4  A    between atoms: C_9  and  C_10
REMARK    5  A    between atoms: C_10  and  C_11
REMARK    6  A    between atoms: C_11  and  N_12
REMARK    7  A    between atoms: C_15  and  O_16
REMARK    8  A    between atoms: C_24  and  C_26
REMARK    9  A    between atoms: C_26  and  C_31
REMARK                            x       y       z     vdW  Elec       q    Type
REMARK                         _______ _______ _______ _____ _____    ______ ____
ROOT
ATOM      1  N   UNL     1      -6.560   1.944   0.597  0.00  0.00    -0.296 N 
ATOM      2  C   UNL     1      -7.329   2.687  -0.223  0.00  0.00    +0.226 C 
ATOM      3  O   UNL     1      -7.959   3.623   0.221  0.00  0.00    -0.275 OA
ENDROOT
BRANCH   2   4
ATOM      4  C   UNL     1      -7.407   2.355  -1.691  0.00  0.00    +0.072 C 
ATOM      5  C   UNL     1      -6.026   2.534  -2.345  0.00  0.00    +0.021 C 
ATOM      6  C   UNL     1      -6.192   3.616  -3.434  0.00  0.00    +0.001 C 
ATOM      7  C   UNL     1      -7.430   4.427  -2.978  0.00  0.00    +0.001 C 
ATOM      8  C   UNL     1      -8.364   3.332  -2.404  0.00  0.00    +0.021 C 
BRANCH   4   9
ATOM      9  C   UNL     1      -7.885   0.938  -1.874  0.00  0.00    -0.032 A 
ATOM     10  C   UNL     1      -7.886   0.366  -3.133  0.00  0.00    +0.004 A 
ATOM     11  C   UNL     1      -8.319  -0.936  -3.300  0.00  0.00    +0.000 A 
ATOM     12  C   UNL     1      -8.763  -1.662  -2.211  0.00  0.00    +0.000 A 
ATOM     13  C   UNL     1      -8.768  -1.088  -0.954  0.00  0.00    +0.000 A 
ATOM     14  C   UNL     1      -8.329   0.211  -0.785  0.00  0.00    +0.004 A 
ENDBRANCH   4   9
ENDBRANCH   2   4
BRANCH   1  15
ATOM     15  C   UNL     1      -6.589   2.179   2.042  0.00  0.00    +0.142 C 
BRANCH  15  19
ATOM     16  C   UNL     1      -3.630   5.084   3.070  0.00  0.00    +0.000 A 
ATOM     17  C   UNL     1      -4.879   5.492   2.643  0.00  0.00    +0.000 A 
ATOM     18  C   UNL     1      -5.837   4.552   2.310  0.00  0.00    +0.005 A 
ATOM     19  C   UNL     1      -5.545   3.204   2.405  0.00  0.00    -0.030 A 
ATOM     20  C   UNL     1      -4.297   2.796   2.838  0.00  0.00    +0.005 A 
ATOM     21  C   UNL     1      -3.338   3.736   3.166  0.00  0.00    +0.000 A 
ENDBRANCH  15  19
ENDBRANCH   1  15
BRANCH   1  22
ATOM     22  C   UNL     1      -5.695   0.899   0.042  0.00  0.00    +0.110 C 
BRANCH  22  23
ATOM     23  C   UNL     1      -4.264   1.429  -0.072  0.00  0.00    +0.040 C 
BRANCH  23  24
ATOM     24  C   UNL     1      -3.348   0.318  -0.588  0.00  0.00    +0.114 C 
BRANCH  24  25
ATOM     25  N   UNL     1      -1.978   0.826  -0.697  0.00  0.00    -0.384 N 
ATOM     26  C   UNL     1      -0.971  -0.001  -1.144  0.00  0.00    +0.053 A 
ATOM     27  C   UNL     1      -1.227  -1.302  -1.492  0.00  0.00    +0.113 A 
ATOM     28  C   UNL     1      -0.183  -2.116  -1.949  0.00  0.00    +0.286 A 
ATOM     29  O   UNL     1       1.076  -1.661  -2.058  0.00  0.00    -0.425 OA
ATOM     30  C   UNL     1       1.403  -0.392  -1.733  0.00  0.00    +0.141 A 
ATOM     31  C   UNL     1       0.413   0.488  -1.268  0.00  0.00    +0.041 A 
ATOM     32  C   UNL     1       0.746   1.800  -0.932  0.00  0.00    +0.013 A 
ATOM     33  C   UNL     1       2.050   2.226  -1.060  0.00  0.00    +0.001 A 
ATOM     34  C   UNL     1       3.028   1.357  -1.520  0.00  0.00    +0.004 A 
ATOM     35  C   UNL     1       2.712   0.057  -1.854  0.00  0.00    +0.047 A 
ATOM     36  H   UNL     1      -1.754   1.867  -0.422  0.00  0.00    +0.160 HD
BRANCH  28  37
ATOM     37  O   UNL     1      -0.423  -3.271  -2.255  0.00  0.00    -0.480 OA
ATOM     38  H   UNL     1       0.385  -3.925  -2.615  0.00  0.00    +0.295 HD
ENDBRANCH  28  37
ENDBRANCH  24  25
ENDBRANCH  23  24
ENDBRANCH  22  23
ENDBRANCH   1  22
TORSDOF 9
