REMARK  Name = ZINC08818237
REMARK  13 active torsions:
REMARK  status: ('A' for Active; 'I' for Inactive)
REMARK    1  A    between atoms: C_1  and  C_2
REMARK    2  A    between atoms: C_2  and  O_3
REMARK    3  A    between atoms: O_3  and  C_4
REMARK    4  A    between atoms: C_7  and  C_10
REMARK    5  A    between atoms: N_11  and  N_12
REMARK    6  A    between atoms: C_13  and  C_15
REMARK    7  A    between atoms: C_15  and  S_16
REMARK    8  A    between atoms: S_16  and  C_17
REMARK    9  A    between atoms: C_20  and  C_29
REMARK   10  A    between atoms: N_21  and  C_22
REMARK   11  A    between atoms: C_25  and  C_28
REMARK   12  A    between atoms: C_32  and  O_35
REMARK   13  A    between atoms: O_35  and  C_36
REMARK                            x       y       z     vdW  Elec       q    Type
REMARK                         _______ _______ _______ _____ _____    ______ ____
ROOT
ATOM      1  C   UNL     1      -0.016   1.310   0.009  0.00  0.00    +0.197 A 
ATOM      2  N   UNL     1       0.002  -0.004   0.002  0.00  0.00    -0.122 NA
ATOM      3  N   UNL     1       1.214  -0.430  -0.012  0.00  0.00    -0.128 NA
ATOM      4  C   UNL     1       2.048   0.584  -0.014  0.00  0.00    +0.169 A 
ATOM      5  N   UNL     1       1.286   1.732  -0.001  0.00  0.00    -0.270 N 
ENDROOT
BRANCH   5   6
ATOM      6  C   UNL     1       1.748   3.056   0.001  0.00  0.00    +0.051 A 
ATOM      7  C   UNL     1       2.450   3.549  -1.090  0.00  0.00    +0.026 A 
ATOM      8  C   UNL     1       2.899   4.856  -1.087  0.00  0.00    +0.005 A 
ATOM      9  C   UNL     1       2.659   5.668   0.006  0.00  0.00    -0.050 A 
ATOM     10  C   UNL     1       1.964   5.178   1.096  0.00  0.00    +0.005 A 
ATOM     11  C   UNL     1       1.508   3.874   1.097  0.00  0.00    +0.026 A 
ATOM     12  C   UNL     1       3.156   7.091   0.009  0.00  0.00    +0.044 C 
ENDBRANCH   5   6
BRANCH   4  13
ATOM     13  C   UNL     1       3.523   0.509  -0.028  0.00  0.00    +0.020 A 
ATOM     14  C   UNL     1       4.285   1.638   0.278  0.00  0.00    +0.015 A 
ATOM     15  C   UNL     1       5.661   1.563   0.269  0.00  0.00    +0.046 A 
ATOM     16  C   UNL     1       6.291   0.368  -0.055  0.00  0.00    +0.120 A 
ATOM     17  C   UNL     1       5.537  -0.756  -0.365  0.00  0.00    +0.046 A 
ATOM     18  C   UNL     1       4.160  -0.691  -0.353  0.00  0.00    +0.015 A 
BRANCH  16  19
ATOM     19  O   UNL     1       7.648   0.299  -0.068  0.00  0.00    -0.495 OA
ATOM     20  C   UNL     1       8.361   1.492   0.261  0.00  0.00    +0.277 C 
ENDBRANCH  16  19
ENDBRANCH   4  13
BRANCH   1  21
ATOM     21  S   UNL     1      -1.448   2.336   0.022  0.00  0.00    -0.076 S 
BRANCH  21  22
ATOM     22  C   UNL     1      -2.742   1.070   0.022  0.00  0.00    +0.174 C 
BRANCH  22  24
ATOM     23  N   UNL     1      -5.214   0.983   0.035  0.00  0.00    -0.206 N 
ATOM     24  C   UNL     1      -4.094   1.734   0.033  0.00  0.00    +0.242 C 
ATOM     25  O   UNL     1      -4.176   2.945   0.039  0.00  0.00    -0.273 OA
ATOM     26  H   UNL     1      -5.149   0.015   0.029  0.00  0.00    +0.177 HD
BRANCH  23  28
ATOM     27  C   UNL     1      -7.549   0.878   0.046  0.00  0.00    +0.138 C 
ATOM     28  N   UNL     1      -6.471   1.601   0.044  0.00  0.00    -0.188 NA
BRANCH  27  32
ATOM     29  C   UNL     1     -11.360   2.749   0.076  0.00  0.00    +0.121 A 
ATOM     30  C   UNL     1     -11.269   1.363   0.068  0.00  0.00    +0.046 A 
ATOM     31  C   UNL     1     -10.034   0.751   0.059  0.00  0.00    +0.013 A 
ATOM     32  C   UNL     1      -8.873   1.528   0.057  0.00  0.00    -0.005 A 
ATOM     33  C   UNL     1      -8.969   2.921   0.070  0.00  0.00    +0.013 A 
ATOM     34  C   UNL     1     -10.208   3.524   0.074  0.00  0.00    +0.046 A 
BRANCH  29  35
ATOM     35  O   UNL     1     -12.579   3.347   0.085  0.00  0.00    -0.492 OA
BRANCH  35  37
ATOM     36  C   UNL     1     -14.050   5.265   0.102  0.00  0.00    +0.048 C 
ATOM     37  C   UNL     1     -12.601   4.776   0.092  0.00  0.00    +0.225 C 
ENDBRANCH  35  37
ENDBRANCH  29  35
ENDBRANCH  27  32
ENDBRANCH  23  28
ENDBRANCH  22  24
ENDBRANCH  21  22
ENDBRANCH   1  21
TORSDOF 10
