REMARK  Name = ZINC12502341
REMARK  7 active torsions:
REMARK  status: ('A' for Active; 'I' for Inactive)
REMARK    1  A    between atoms: C_3  and  O_28
REMARK    2  A    between atoms: C_6  and  C_7
REMARK    3  A    between atoms: N_9  and  C_10
REMARK    4  A    between atoms: C_16  and  O_18
REMARK    5  A    between atoms: O_18  and  C_19
REMARK    6  A    between atoms: C_19  and  C_21
REMARK    7  A    between atoms: C_24  and  O_27
REMARK                            x       y       z     vdW  Elec       q    Type
REMARK                         _______ _______ _______ _____ _____    ______ ____
ROOT
ATOM      1  C   UNL     1      -0.709   1.570   1.294  0.00  0.00    +0.097 C 
ATOM      2  C   UNL     1      -0.013   1.086   0.008  0.00  0.00    -0.056 C 
ATOM      3  C   UNL     1      -0.023   2.776  -1.674  0.00  0.00    -0.082 C 
ATOM      4  C   UNL     1      -0.474   3.984  -0.992  0.00  0.00    -0.015 C 
ATOM      5  C   UNL     1      -0.166   3.930   0.521  0.00  0.00    +0.044 C 
ATOM      6  C   UNL     1      -1.175   3.037   1.191  0.00  0.00    +0.195 C 
ATOM      7  N   UNL     1      -0.688   1.552  -1.179  0.00  0.00    +0.380 N 
ATOM      8  H   UNL     1      -1.667   1.762  -0.955  0.00  0.00    -0.086 HD
ATOM      9  H   UNL     1      -0.650   0.825  -1.902  0.00  0.00    -0.086 HD
ENDROOT
BRANCH   1  12
ATOM     10  C   UNL     1       0.345   0.276   3.068  0.00  0.00    +0.244 C 
ATOM     11  O   UNL     1      -0.322  -0.681   2.727  0.00  0.00    -0.270 OA
ATOM     12  N   UNL     1       0.226   1.449   2.415  0.00  0.00    -0.307 N 
ATOM     13  H   UNL     1       0.759   2.212   2.688  0.00  0.00    +0.149 HD
BRANCH  10  19
ATOM     14  C   UNL     1       2.060   1.250   4.588  0.00  0.00    +0.016 A 
ATOM     15  C   UNL     1       2.933   1.133   5.647  0.00  0.00    +0.046 A 
ATOM     16  C   UNL     1       3.055  -0.077   6.319  0.00  0.00    +0.117 A 
ATOM     17  C   UNL     1       2.293  -1.172   5.930  0.00  0.00    +0.046 A 
ATOM     18  C   UNL     1       1.413  -1.062   4.877  0.00  0.00    +0.016 A 
ATOM     19  C   UNL     1       1.288   0.153   4.198  0.00  0.00    +0.037 A 
BRANCH  16  20
ATOM     20  O   UNL     1       3.921  -0.190   7.358  0.00  0.00    -0.507 OA
ATOM     21  H   UNL     1       4.811  -0.468   7.100  0.00  0.00    +0.292 HD
ENDBRANCH  16  20
ENDBRANCH  10  19
ENDBRANCH   1  12
BRANCH   6  22
ATOM     22  O   UNL     1      -1.431   3.542   2.528  0.00  0.00    -0.456 OA
BRANCH  22  23
ATOM     23  C   UNL     1      -2.428   4.438   2.663  0.00  0.00    +0.340 C 
ATOM     24  O   UNL     1      -3.067   4.788   1.690  0.00  0.00    -0.245 OA
BRANCH  23  25
ATOM     25  C   UNL     1      -2.745   4.994   3.992  0.00  0.00    +0.059 A 
ATOM     26  C   UNL     1      -2.016   4.588   5.113  0.00  0.00    +0.018 A 
ATOM     27  C   UNL     1      -2.311   5.114   6.351  0.00  0.00    +0.046 A 
ATOM     28  C   UNL     1      -3.340   6.038   6.488  0.00  0.00    +0.117 A 
ATOM     29  C   UNL     1      -4.072   6.440   5.376  0.00  0.00    +0.046 A 
ATOM     30  C   UNL     1      -3.779   5.923   4.134  0.00  0.00    +0.018 A 
BRANCH  28  31
ATOM     31  O   UNL     1      -3.632   6.550   7.711  0.00  0.00    -0.507 OA
ATOM     32  H   UNL     1      -4.289   6.040   8.204  0.00  0.00    +0.292 HD
ENDBRANCH  28  31
ENDBRANCH  23  25
ENDBRANCH  22  23
ENDBRANCH   6  22
TORSDOF 7
