REMARK  Name = ZINC32958131
REMARK  13 active torsions:
REMARK  status: ('A' for Active; 'I' for Inactive)
REMARK    1  A    between atoms: C_1  and  C_2
REMARK    2  A    between atoms: C_2  and  C_3
REMARK    3  A    between atoms: C_3  and  N_4
REMARK    4  A    between atoms: N_4  and  C_5
REMARK    5  A    between atoms: C_5  and  C_6
REMARK    6  A    between atoms: C_6  and  C_7
REMARK    7  A    between atoms: N_11  and  C_19
REMARK    8  A    between atoms: C_19  and  C_20
REMARK    9  A    between atoms: N_22  and  C_23
REMARK   10  A    between atoms: C_24  and  C_36
REMARK   11  A    between atoms: N_26  and  C_29
REMARK   12  A    between atoms: C_27  and  C_28
REMARK   13  A    between atoms: C_32  and  C_35
REMARK                            x       y       z     vdW  Elec       q    Type
REMARK                         _______ _______ _______ _____ _____    ______ ____
ROOT
ATOM      1  C   UNL     1       6.581   0.653  -0.867  0.00  0.00    +0.221 C 
ENDROOT
BRANCH   1   6
ATOM      2  N   UNL     1       8.437   5.067   0.265  0.00  0.00    -0.311 N 
ATOM      3  C   UNL     1       8.084   4.135  -0.695  0.00  0.00    +0.188 A 
ATOM      4  C   UNL     1       7.501   2.843  -0.287  0.00  0.00    +0.292 A 
ATOM      5  O   UNL     1       7.328   2.588   0.891  0.00  0.00    -0.264 OA
ATOM      6  N   UNL     1       7.162   1.946  -1.238  0.00  0.00    -0.295 N 
ATOM      7  C   UNL     1       7.376   2.262  -2.567  0.00  0.00    +0.071 A 
ATOM      8  C   UNL     1       7.032   1.358  -3.567  0.00  0.00    +0.028 A 
ATOM      9  C   UNL     1       7.243   1.683  -4.889  0.00  0.00    +0.002 A 
ATOM     10  C   UNL     1       7.795   2.910  -5.233  0.00  0.00    +0.002 A 
ATOM     11  C   UNL     1       8.135   3.814  -4.268  0.00  0.00    +0.030 A 
ATOM     12  C   UNL     1       7.929   3.507  -2.916  0.00  0.00    +0.090 A 
ATOM     13  N   UNL     1       8.267   4.401  -1.962  0.00  0.00    -0.225 NA
BRANCH   2  14
ATOM     14  C   UNL     1       9.387   4.497   1.229  0.00  0.00    +0.106 C 
BRANCH  14  16
ATOM     15  C   UNL     1      10.552   4.866   3.408  0.00  0.00    +0.005 C 
ATOM     16  C   UNL     1       9.562   5.460   2.404  0.00  0.00    +0.016 C 
ENDBRANCH  14  16
ENDBRANCH   2  14
BRANCH   2  17
ATOM     17  C   UNL     1       8.982   6.281  -0.357  0.00  0.00    +0.106 C 
BRANCH  17  18
ATOM     18  C   UNL     1       7.840   7.109  -0.949  0.00  0.00    +0.016 C 
ATOM     19  C   UNL     1       8.416   8.311  -1.699  0.00  0.00    +0.005 C 
ENDBRANCH  17  18
ENDBRANCH   2  17
ENDBRANCH   1   6
BRANCH   1  20
ATOM     20  C   UNL     1       5.080   0.774  -0.809  0.00  0.00    +0.237 C 
ATOM     21  O   UNL     1       4.548   1.837  -1.053  0.00  0.00    -0.274 OA
ATOM     22  N   UNL     1       4.329  -0.297  -0.485  0.00  0.00    -0.281 N 
ATOM     23  H   UNL     1       4.814  -1.236  -0.178  0.00  0.00    +0.155 HD
BRANCH  22  24
ATOM     24  C   UNL     1       2.925  -0.215  -0.540  0.00  0.00    +0.078 A 
ATOM     25  C   UNL     1       2.177   0.533  -1.462  0.00  0.00    +0.082 A 
ATOM     26  N   UNL     1       0.907   0.360  -1.199  0.00  0.00    -0.170 NA
ATOM     27  N   UNL     1       0.797  -0.504  -0.102  0.00  0.00    -0.235 N 
ATOM     28  C   UNL     1       2.055  -0.846   0.288  0.00  0.00    +0.063 A 
ATOM     29  C   UNL     1       2.416  -1.758   1.432  0.00  0.00    +0.068 C 
ATOM     30  C   UNL     1       2.740   1.391  -2.566  0.00  0.00    +0.069 C 
BRANCH  27  31
ATOM     31  C   UNL     1      -0.398  -0.939   0.489  0.00  0.00    +0.066 A 
ATOM     32  C   UNL     1      -0.491  -2.226   1.002  0.00  0.00    +0.028 A 
ATOM     33  C   UNL     1      -1.668  -2.650   1.588  0.00  0.00    +0.005 A 
ATOM     34  C   UNL     1      -2.755  -1.798   1.656  0.00  0.00    -0.050 A 
ATOM     35  C   UNL     1      -2.666  -0.518   1.141  0.00  0.00    +0.005 A 
ATOM     36  C   UNL     1      -1.491  -0.086   0.558  0.00  0.00    +0.028 A 
ATOM     37  C   UNL     1      -4.038  -2.266   2.291  0.00  0.00    +0.044 C 
ENDBRANCH  27  31
ENDBRANCH  22  24
ENDBRANCH   1  20
TORSDOF 8
