REMARK  Name = ZINC06543559
REMARK  5 active torsions:
REMARK  status: ('A' for Active; 'I' for Inactive)
REMARK    1  A    between atoms: C_6  and  N_11
REMARK    2  A    between atoms: C_12  and  C_14
REMARK    3  A    between atoms: C_14  and  C_15
REMARK    4  A    between atoms: C_15  and  C_17
REMARK    5  A    between atoms: C_15  and  N_24
REMARK                            x       y       z     vdW  Elec       q    Type
REMARK                         _______ _______ _______ _____ _____    ______ ____
ROOT
ATOM      1  C   UNL     1       2.282   9.342   0.371  0.00  0.00    +0.123 C 
ENDROOT
BRANCH   1   3
ATOM      2  N   UNL     1       1.438   7.021   0.230  0.00  0.00    -0.285 N 
ATOM      3  C   UNL     1       2.495   7.856   0.230  0.00  0.00    +0.219 C 
ATOM      4  O   UNL     1       3.618   7.413   0.116  0.00  0.00    -0.275 OA
ATOM      5  H   UNL     1       0.536   7.379   0.249  0.00  0.00    +0.155 HD
BRANCH   2  11
ATOM      6  C   UNL     1       1.401   0.704  -0.514  0.00  0.00    +0.001 A 
ATOM      7  C   UNL     1       0.297   1.244  -1.172  0.00  0.00    +0.001 A 
ATOM      8  C   UNL     1       0.064   2.585  -1.163  0.00  0.00    +0.008 A 
ATOM      9  C   UNL     1       0.953   3.442  -0.490  0.00  0.00    -0.016 A 
ATOM     10  C   UNL     1       0.747   4.830  -0.465  0.00  0.00    +0.031 A 
ATOM     11  C   UNL     1       1.640   5.637   0.203  0.00  0.00    +0.034 A 
ATOM     12  C   UNL     1       2.749   5.086   0.857  0.00  0.00    +0.024 A 
ATOM     13  C   UNL     1       2.971   3.745   0.847  0.00  0.00    +0.010 A 
ATOM     14  C   UNL     1       2.079   2.892   0.174  0.00  0.00    -0.018 A 
ATOM     15  C   UNL     1       2.283   1.502   0.147  0.00  0.00    +0.008 A 
ENDBRANCH   2  11
ENDBRANCH   1   3
BRANCH   1  16
ATOM     16  C   UNL     1       3.634  10.056   0.340  0.00  0.00    +0.115 C 
BRANCH  16  17
ATOM     17  C   UNL     1       3.431  11.526   0.604  0.00  0.00    -0.008 A 
ATOM     18  C   UNL     1       2.165  12.075   0.523  0.00  0.00    +0.007 A 
ATOM     19  C   UNL     1       1.979  13.423   0.765  0.00  0.00    +0.000 A 
ATOM     20  C   UNL     1       3.059  14.224   1.087  0.00  0.00    +0.001 A 
ATOM     21  C   UNL     1       4.326  13.676   1.168  0.00  0.00    +0.020 A 
ATOM     22  C   UNL     1       4.512  12.326   0.931  0.00  0.00    +0.046 A 
ATOM     23 CL   UNL     1       6.101  11.636   1.039  0.00  0.00    -0.083 Cl
ENDBRANCH  16  17
BRANCH  16  24
ATOM     24  N   UNL     1       4.251   9.877  -0.977  0.00  0.00    -0.292 N 
ATOM     25  C   UNL     1       3.629  10.335  -2.081  0.00  0.00    +0.298 C 
ATOM     26  O   UNL     1       2.600  10.975  -1.978  0.00  0.00    -0.253 OA
ATOM     27  N   UNL     1       4.147  10.084  -3.299  0.00  0.00    -0.313 N 
ATOM     28  H   UNL     1       5.108   9.428  -1.053  0.00  0.00    +0.151 HD
ATOM     29  H   UNL     1       4.967   9.573  -3.382  0.00  0.00    +0.146 HD
ATOM     30  H   UNL     1       3.699  10.413  -4.094  0.00  0.00    +0.146 HD
ENDBRANCH  16  24
ENDBRANCH   1  16
TORSDOF 5
