REMARK  Name = ZINC20356009
REMARK  12 active torsions:
REMARK  status: ('A' for Active; 'I' for Inactive)
REMARK    1  A    between atoms: C_1  and  C_2
REMARK    2  A    between atoms: C_4  and  C_33
REMARK    3  A    between atoms: C_5  and  S_9
REMARK    4  A    between atoms: C_6  and  C_8
REMARK    5  A    between atoms: S_9  and  C_12
REMARK    6  A    between atoms: N_25  and  C_26
REMARK    7  A    between atoms: C_26  and  C_27
REMARK    8  A    between atoms: C_27  and  C_28
REMARK    9  A    between atoms: C_28  and  O_29
REMARK   10  A    between atoms: O_29  and  C_30
REMARK   11  A    between atoms: C_30  and  C_31
REMARK   12  A    between atoms: C_30  and  C_32
REMARK                            x       y       z     vdW  Elec       q    Type
REMARK                         _______ _______ _______ _____ _____    ______ ____
ROOT
ATOM      1  C   UNL     1       1.385  -2.651   0.305  0.00  0.00    +0.249 A 
ATOM      2  C   UNL     1       1.403  -1.270   0.388  0.00  0.00    +0.204 A 
ATOM      3  N   UNL     1       0.425  -0.349   0.327  0.00  0.00    -0.209 NA
ATOM      4  C   UNL     1       0.674   0.939   0.432  0.00  0.00    +0.130 A 
ATOM      5  C   UNL     1       2.062   1.384   0.620  0.00  0.00    +0.040 A 
ATOM      6  C   UNL     1       2.388   2.735   0.739  0.00  0.00    +0.013 A 
ATOM      7  C   UNL     1       3.704   3.103   0.915  0.00  0.00    +0.001 A 
ATOM      8  C   UNL     1       4.702   2.141   0.976  0.00  0.00    +0.002 A 
ATOM      9  C   UNL     1       4.394   0.801   0.860  0.00  0.00    +0.028 A 
ATOM     10  C   UNL     1       3.075   0.410   0.682  0.00  0.00    +0.080 A 
ATOM     11  N   UNL     1       2.717  -0.921   0.562  0.00  0.00    -0.192 N 
ATOM     12  N   UNL     1       3.447  -2.115   0.578  0.00  0.00    -0.057 NA
ATOM     13  N   UNL     1       2.630  -3.097   0.425  0.00  0.00    -0.108 NA
ATOM     14  N   UNL     1      -0.353   1.858   0.359  0.00  0.00    -0.328 N 
ATOM     15  H   UNL     1      -0.136   2.933   0.448  0.00  0.00    +0.147 HD
ENDROOT
BRANCH   1  16
ATOM     16  S   UNL     1      -0.049  -3.649   0.078  0.00  0.00    +0.048 S 
ATOM     17  O   UNL     1       0.265  -4.934   0.596  0.00  0.00    -0.163 OA
ATOM     18  O   UNL     1      -1.153  -2.887   0.549  0.00  0.00    -0.163 OA
BRANCH  16  23
ATOM     19  C   UNL     1      -0.830  -4.325  -5.866  0.00  0.00    +0.044 C 
ATOM     20  C   UNL     1      -0.635  -4.156  -4.381  0.00  0.00    -0.050 A 
ATOM     21  C   UNL     1       0.333  -4.891  -3.724  0.00  0.00    +0.008 A 
ATOM     22  C   UNL     1       0.512  -4.736  -2.362  0.00  0.00    -0.025 A 
ATOM     23  C   UNL     1      -0.277  -3.846  -1.658  0.00  0.00    +0.101 A 
ATOM     24  C   UNL     1      -1.250  -3.115  -2.315  0.00  0.00    -0.025 A 
ATOM     25  C   UNL     1      -1.425  -3.267  -3.677  0.00  0.00    +0.008 A 
ATOM     26  C   UNL     1      -2.114  -2.150  -1.546  0.00  0.00    +0.046 C 
ATOM     27  C   UNL     1       1.568  -5.537  -1.644  0.00  0.00    +0.046 C 
ENDBRANCH  16  23
ENDBRANCH   1  16
BRANCH  14  28
ATOM     28  C   UNL     1      -1.732   1.403   0.165  0.00  0.00    +0.105 C 
BRANCH  28  29
ATOM     29  C   UNL     1      -2.667   2.613   0.121  0.00  0.00    +0.047 C 
BRANCH  29  30
ATOM     30  C   UNL     1      -4.107   2.137  -0.082  0.00  0.00    +0.161 C 
BRANCH  30  31
ATOM     31  O   UNL     1      -4.980   3.267  -0.124  0.00  0.00    -0.377 OA
BRANCH  31  32
ATOM     32  C   UNL     1      -6.357   2.932  -0.311  0.00  0.00    +0.112 C 
ATOM     33  C   UNL     1      -7.235   3.983   0.370  0.00  0.00    +0.037 C 
ATOM     34  C   UNL     1      -6.674   2.894  -1.807  0.00  0.00    +0.037 C 
ENDBRANCH  31  32
ENDBRANCH  30  31
ENDBRANCH  29  30
ENDBRANCH  28  29
ENDBRANCH  14  28
TORSDOF 7
