REMARK  Name = ZINC56214342
REMARK  5 active torsions:
REMARK  status: ('A' for Active; 'I' for Inactive)
REMARK    1  A    between atoms: C_6  and  C_7
REMARK    2  A    between atoms: C_7  and  C_8
REMARK    3  A    between atoms: C_8  and  C_9
REMARK    4  A    between atoms: C_9  and  C_10
REMARK    5  A    between atoms: C_10  and  N_12
REMARK                            x       y       z     vdW  Elec       q    Type
REMARK                         _______ _______ _______ _____ _____    ______ ____
ROOT
ATOM      1  C   UNL     1      -3.072  -1.794  -1.418  0.00  0.00    +0.098 C 
ENDROOT
BRANCH   1   2
ATOM      2  C   UNL     1      -3.513  -2.048  -2.837  0.00  0.00    +0.239 C 
ATOM      3  O   UNL     1      -2.846  -1.633  -3.764  0.00  0.00    -0.274 OA
BRANCH   2   4
ATOM      4  N   UNL     1      -4.632  -2.728  -3.073  0.00  0.00    -0.148 NA
ATOM      5  C   UNL     1      -5.078  -2.862  -4.320  0.00  0.00    +0.210 C 
ATOM      6  N   UNL     1      -4.399  -2.435  -5.428  0.00  0.00    -0.306 N 
ATOM      7  C   UNL     1      -5.255  -2.785  -6.576  0.00  0.00    +0.205 C 
ATOM      8  C   UNL     1      -6.458  -3.444  -5.930  0.00  0.00    +0.266 C 
ATOM      9  O   UNL     1      -7.533  -3.944  -6.560  0.00  0.00    -0.269 OA
ATOM     10  N   UNL     1      -6.240  -3.435  -4.643  0.00  0.00    -0.180 NA
ATOM     11  H   UNL     1      -3.535  -1.994  -5.453  0.00  0.00    +0.149 HD
ENDBRANCH   2   4
ENDBRANCH   1   2
BRANCH   1  12
ATOM     12  C   UNL     1      -1.765  -0.999  -1.425  0.00  0.00    +0.014 C 
BRANCH  12  13
ATOM     13  C   UNL     1      -1.317  -0.741   0.015  0.00  0.00    +0.035 C 
BRANCH  13  19
ATOM     14  C   UNL     1      -0.062   1.425   0.015  0.00  0.00    +0.005 A 
ATOM     15  C   UNL     1       1.118   2.145   0.009  0.00  0.00    +0.022 A 
ATOM     16  C   UNL     1       2.332   1.483  -0.005  0.00  0.00    +0.059 A 
ATOM     17  C   UNL     1       2.365   0.099  -0.012  0.00  0.00    +0.060 A 
ATOM     18  C   UNL     1       1.183  -0.620  -0.006  0.00  0.00    +0.025 A 
ATOM     19  C   UNL     1      -0.030   0.043   0.007  0.00  0.00    -0.046 A 
ATOM     20 CL   UNL     1       3.888  -0.734  -0.029  0.00  0.00    -0.082 Cl
ATOM     21 CL   UNL     1       3.814   2.387  -0.013  0.00  0.00    -0.082 Cl
ENDBRANCH  13  19
ENDBRANCH  12  13
ENDBRANCH   1  12
TORSDOF 5
