REMARK  Name = ZINC38170712
REMARK  2 active torsions:
REMARK  status: ('A' for Active; 'I' for Inactive)
REMARK    1  A    between atoms: C_6  and  N_7
REMARK    2  A    between atoms: C_8  and  C_10
REMARK                            x       y       z     vdW  Elec       q    Type
REMARK                         _______ _______ _______ _____ _____    ______ ____
ROOT
ATOM      1  N   UNL     1      -1.201  -0.721   0.010  0.00  0.00    -0.280 N 
ATOM      2  C   UNL     1      -2.374  -0.067   0.127  0.00  0.00    +0.267 C 
ATOM      3  O   UNL     1      -2.394   1.149   0.134  0.00  0.00    -0.268 OA
ATOM      4  H   UNL     1      -1.190  -1.688  -0.063  0.00  0.00    +0.155 HD
ENDROOT
BRANCH   2   5
ATOM      5  C   UNL     1      -3.627  -0.824   0.245  0.00  0.00    +0.153 C 
ATOM      6  C   UNL     1      -4.869  -0.306   0.363  0.00  0.00    +0.228 C 
ATOM      7  O   UNL     1      -5.744  -1.325   0.446  0.00  0.00    -0.443 OA
ATOM      8  C   UNL     1      -5.075  -2.485   0.382  0.00  0.00    +0.239 C 
ATOM      9  C   UNL     1      -5.647  -3.770   0.436  0.00  0.00    +0.164 C 
ATOM     10  C   UNL     1      -7.014  -4.081   0.560  0.00  0.00    +0.149 C 
ATOM     11  N   UNL     1      -7.101  -5.406   0.570  0.00  0.00    -0.219 NA
ATOM     12  C   UNL     1      -5.881  -5.920   0.460  0.00  0.00    +0.224 C 
ATOM     13  N   UNL     1      -4.992  -4.959   0.373  0.00  0.00    -0.227 NA
ATOM     14  N   UNL     1      -8.069  -3.177   0.655  0.00  0.00    -0.341 N 
ATOM     15  N   UNL     1      -3.760  -2.213   0.252  0.00  0.00    -0.171 NA
ATOM     16  H   UNL     1      -7.893  -2.223   0.638  0.00  0.00    +0.144 HD
ATOM     17  H   UNL     1      -8.979  -3.501   0.737  0.00  0.00    +0.144 HD
ENDBRANCH   2   5
BRANCH   1  23
ATOM     18  C   UNL     1       1.138  -0.541   0.582  0.00  0.00    +0.027 A 
ATOM     19  C   UNL     1       2.326   0.166   0.567  0.00  0.00    +0.051 A 
ATOM     20  C   UNL     1       2.386   1.412  -0.035  0.00  0.00    +0.166 A 
ATOM     21  C   UNL     1       1.246   1.954  -0.626  0.00  0.00    +0.168 A 
ATOM     22  C   UNL     1       0.057   1.246  -0.610  0.00  0.00    +0.072 A 
ATOM     23  C   UNL     1       0.002  -0.003  -0.006  0.00  0.00    +0.037 A 
ATOM     24  O   UNL     1       1.563   3.177  -1.144  0.00  0.00    -0.453 OA
ATOM     25  C   UNL     1       2.798   3.556  -0.507  0.00  0.00    +0.466 C 
ATOM     26  O   UNL     1       3.416   2.297  -0.182  0.00  0.00    -0.453 OA
ENDBRANCH   1  23
TORSDOF 2
