REMARK  Name = ZINC13545169
REMARK  4 active torsions:
REMARK  status: ('A' for Active; 'I' for Inactive)
REMARK    1  A    between atoms: C_3  and  S_19
REMARK    2  A    between atoms: C_6  and  N_7
REMARK    3  A    between atoms: N_9  and  C_10
REMARK    4  A    between atoms: S_19  and  N_22
REMARK                            x       y       z     vdW  Elec       q    Type
REMARK                         _______ _______ _______ _____ _____    ______ ____
ROOT
ATOM      1  N   UNL     1      -1.033  -1.197   0.514  0.00  0.00    -0.225 NA
ATOM      2  C   UNL     1      -1.230  -2.076  -0.443  0.00  0.00    +0.170 C 
ATOM      3  N   UNL     1      -2.510  -2.438  -0.791  0.00  0.00    -0.293 N 
ATOM      4  S   UNL     1       0.146  -2.792  -1.278  0.00  0.00    -0.014 SA
ATOM      5  H   UNL     1      -3.268  -1.984  -0.391  0.00  0.00    +0.154 HD
ENDROOT
BRANCH   3   6
ATOM      6  C   UNL     1      -2.719  -3.460  -1.722  0.00  0.00    +0.034 A 
ATOM      7  C   UNL     1      -1.931  -4.604  -1.688  0.00  0.00    +0.024 A 
ATOM      8  C   UNL     1      -2.139  -5.612  -2.608  0.00  0.00    +0.018 A 
ATOM      9  C   UNL     1      -3.131  -5.485  -3.564  0.00  0.00    +0.036 A 
ATOM     10  C   UNL     1      -3.918  -4.346  -3.601  0.00  0.00    +0.057 A 
ATOM     11  C   UNL     1      -3.717  -3.336  -2.679  0.00  0.00    +0.044 A 
ATOM     12 CL   UNL     1      -5.162  -4.190  -4.801  0.00  0.00    -0.082 Cl
ATOM     13 BR   UNL     1      -3.413  -6.868  -4.823  0.00  0.00    -0.049 Br
ENDBRANCH   3   6
BRANCH   1  19
ATOM     14  C   UNL     1       0.562   0.508   1.055  0.00  0.00    +0.030 A 
ATOM     15  C   UNL     1       1.848   0.864   1.405  0.00  0.00    +0.030 A 
ATOM     16  C   UNL     1       2.820  -0.108   1.563  0.00  0.00    +0.105 A 
ATOM     17  C   UNL     1       2.509  -1.443   1.371  0.00  0.00    +0.030 A 
ATOM     18  C   UNL     1       1.228  -1.813   1.021  0.00  0.00    +0.030 A 
ATOM     19  C   UNL     1       0.242  -0.837   0.861  0.00  0.00    +0.067 A 
BRANCH  16  20
ATOM     20  S   UNL     1       4.460   0.355   2.009  0.00  0.00    +0.056 S 
ATOM     21  O   UNL     1       5.313  -0.690   1.562  0.00  0.00    -0.153 OA
ATOM     22  O   UNL     1       4.628   1.704   1.597  0.00  0.00    -0.153 OA
BRANCH  20  23
ATOM     23  N   UNL     1       4.537   0.353   3.663  0.00  0.00    -0.204 NA
ATOM     24  H   UNL     1       3.752   0.121   4.185  0.00  0.00    +0.144 HD
ATOM     25  H   UNL     1       5.366   0.584   4.111  0.00  0.00    +0.144 HD
ENDBRANCH  20  23
ENDBRANCH  16  20
ENDBRANCH   1  19
TORSDOF 4
