REMARK  Name = ZINC36553427
REMARK  12 active torsions:
REMARK  status: ('A' for Active; 'I' for Inactive)
REMARK    1  A    between atoms: C_1  and  C_2
REMARK    2  A    between atoms: C_5  and  S_8
REMARK    3  A    between atoms: S_8  and  C_11
REMARK    4  A    between atoms: C_11  and  N_12
REMARK    5  A    between atoms: C_13  and  C_15
REMARK    6  A    between atoms: C_15  and  C_17
REMARK    7  A    between atoms: C_15  and  N_25
REMARK    8  A    between atoms: C_20  and  O_23
REMARK    9  A    between atoms: O_23  and  C_24
REMARK   10  A    between atoms: N_25  and  C_26
REMARK   11  A    between atoms: C_33  and  C_35
REMARK   12  A    between atoms: C_35  and  C_37
REMARK                            x       y       z     vdW  Elec       q    Type
REMARK                         _______ _______ _______ _____ _____    ______ ____
ROOT
ATOM      1  C   UNL     1       2.889  -4.671   3.486  0.00  0.00    +0.197 C 
ENDROOT
BRANCH   1   2
ATOM      2  C   UNL     1       3.785  -3.470   3.645  0.00  0.00    -0.018 A 
ATOM      3  C   UNL     1       5.077  -3.630   4.112  0.00  0.00    +0.009 A 
ATOM      4  C   UNL     1       5.901  -2.530   4.259  0.00  0.00    +0.046 A 
ATOM      5  C   UNL     1       5.430  -1.265   3.938  0.00  0.00    +0.120 A 
ATOM      6  C   UNL     1       4.134  -1.107   3.470  0.00  0.00    +0.046 A 
ATOM      7  C   UNL     1       3.316  -2.211   3.320  0.00  0.00    +0.009 A 
BRANCH   5   8
ATOM      8  O   UNL     1       6.238  -0.182   4.083  0.00  0.00    -0.495 OA
ATOM      9  C   UNL     1       5.687   1.090   3.733  0.00  0.00    +0.277 C 
ENDBRANCH   5   8
ENDBRANCH   1   2
BRANCH   1  11
ATOM     10  N   UNL     1       2.424  -4.216   1.100  0.00  0.00    -0.294 N 
ATOM     11  C   UNL     1       2.855  -5.083   2.037  0.00  0.00    +0.240 C 
ATOM     12  O   UNL     1       3.215  -6.196   1.714  0.00  0.00    -0.273 OA
ATOM     13  H   UNL     1       2.136  -3.326   1.358  0.00  0.00    +0.150 HD
BRANCH  10  14
ATOM     14  C   UNL     1       2.391  -4.617  -0.309  0.00  0.00    +0.278 C 
BRANCH  14  15
ATOM     15  S   UNL     1       0.732  -5.222  -0.727  0.00  0.00    +0.013 S 
ATOM     16  O   UNL     1       0.281  -6.137   0.263  0.00  0.00    -0.168 OA
ATOM     17  O   UNL     1       0.666  -5.555  -2.106  0.00  0.00    -0.168 OA
BRANCH  15  22
ATOM     18  C   UNL     1      -2.868  -0.416  -0.131  0.00  0.00    +0.044 C 
ATOM     19  C   UNL     1      -1.969  -1.617  -0.280  0.00  0.00    -0.050 A 
ATOM     20  C   UNL     1      -1.369  -1.885  -1.496  0.00  0.00    +0.005 A 
ATOM     21  C   UNL     1      -0.544  -2.985  -1.633  0.00  0.00    +0.027 A 
ATOM     22  C   UNL     1      -0.318  -3.818  -0.552  0.00  0.00    +0.090 A 
ATOM     23  C   UNL     1      -0.917  -3.549   0.664  0.00  0.00    +0.027 A 
ATOM     24  C   UNL     1      -1.739  -2.446   0.802  0.00  0.00    +0.005 A 
ENDBRANCH  15  22
ENDBRANCH  14  15
ENDBRANCH  10  14
ENDBRANCH   1  11
BRANCH   1  25
ATOM     25  N   UNL     1       3.406  -5.777   4.296  0.00  0.00    -0.252 N 
ATOM     26  C   UNL     1       2.868  -6.036   5.505  0.00  0.00    +0.247 C 
ATOM     27  O   UNL     1       3.086  -7.100   6.052  0.00  0.00    -0.270 OA
BRANCH  25  28
ATOM     28  C   UNL     1       4.458  -6.564   3.816  0.00  0.00    +0.039 A 
ATOM     29  C   UNL     1       5.301  -6.070   2.829  0.00  0.00    +0.023 A 
ATOM     30  C   UNL     1       6.339  -6.849   2.356  0.00  0.00    +0.003 A 
ATOM     31  C   UNL     1       6.539  -8.120   2.864  0.00  0.00    +0.020 A 
ATOM     32  C   UNL     1       5.701  -8.615   3.848  0.00  0.00    +0.043 A 
ATOM     33  C   UNL     1       4.664  -7.837   4.329  0.00  0.00    +0.043 A 
ATOM     34 CL   UNL     1       5.956 -10.210   4.483  0.00  0.00    -0.083 Cl
ENDBRANCH  25  28
BRANCH  26  35
ATOM     35  C   UNL     1       2.018  -5.031   6.161  0.00  0.00    +0.005 C 
ATOM     36  C   UNL     1       1.639  -5.204   7.425  0.00  0.00    +0.017 C 
ATOM     37  C   UNL     1       1.575  -3.807   5.403  0.00  0.00    +0.048 C 
ENDBRANCH  26  35
ENDBRANCH   1  25
TORSDOF 9
