REMARK  Name = ZINC65528147
REMARK  7 active torsions:
REMARK  status: ('A' for Active; 'I' for Inactive)
REMARK    1  A    between atoms: C_4  and  C_22
REMARK    2  A    between atoms: C_5  and  C_7
REMARK    3  A    between atoms: C_7  and  N_8
REMARK    4  A    between atoms: C_17  and  C_19
REMARK    5  A    between atoms: C_19  and  C_20
REMARK    6  A    between atoms: C_20  and  N_21
REMARK    7  A    between atoms: C_22  and  N_23
REMARK                            x       y       z     vdW  Elec       q    Type
REMARK                         _______ _______ _______ _____ _____    ______ ____
ROOT
ATOM      1  N   UNL     1       1.366  -2.698   1.320  0.00  0.00    -0.324 N 
ATOM      2  C   UNL     1       1.410  -4.058   1.543  0.00  0.00    +0.130 A 
ATOM      3  C   UNL     1       1.541  -4.576   2.855  0.00  0.00    +0.040 A 
ATOM      4  C   UNL     1       1.630  -3.746   3.978  0.00  0.00    +0.013 A 
ATOM      5  C   UNL     1       1.754  -4.303   5.217  0.00  0.00    +0.001 A 
ATOM      6  C   UNL     1       1.793  -5.685   5.379  0.00  0.00    +0.002 A 
ATOM      7  C   UNL     1       1.709  -6.521   4.305  0.00  0.00    +0.028 A 
ATOM      8  C   UNL     1       1.580  -5.982   3.018  0.00  0.00    +0.076 A 
ATOM      9  N   UNL     1       1.492  -6.760   1.928  0.00  0.00    -0.232 NA
ATOM     10  C   UNL     1       1.373  -6.224   0.737  0.00  0.00    +0.130 A 
ATOM     11  N   UNL     1       1.326  -4.917   0.536  0.00  0.00    -0.217 NA
ATOM     12  H   UNL     1       1.429  -2.082   2.067  0.00  0.00    +0.148 HD
ENDROOT
BRANCH   1  13
ATOM     13  C   UNL     1       1.225  -2.184  -0.044  0.00  0.00    +0.138 C 
BRANCH  13  18
ATOM     14  C   UNL     1      -0.014   1.381  -0.119  0.00  0.00    +0.000 A 
ATOM     15  C   UNL     1       1.164   2.086   0.041  0.00  0.00    +0.000 A 
ATOM     16  C   UNL     1       2.362   1.410   0.173  0.00  0.00    +0.005 A 
ATOM     17  C   UNL     1       2.382   0.028   0.146  0.00  0.00    -0.025 A 
ATOM     18  C   UNL     1       1.203  -0.677  -0.013  0.00  0.00    -0.026 A 
ATOM     19  C   UNL     1       0.005  -0.000  -0.147  0.00  0.00    +0.005 A 
BRANCH  17  20
ATOM     20  C   UNL     1       3.688  -0.710   0.289  0.00  0.00    +0.143 C 
BRANCH  20  21
ATOM     21  N   UNL     1       4.793   0.252   0.308  0.00  0.00    -0.297 N 
ATOM     22  C   UNL     1       5.438   0.795  -0.892  0.00  0.00    +0.108 C 
ATOM     23  C   UNL     1       6.206   2.049  -0.416  0.00  0.00    +0.028 C 
ATOM     24  C   UNL     1       6.451   1.720   1.075  0.00  0.00    +0.097 C 
ATOM     25  C   UNL     1       5.341   0.754   1.428  0.00  0.00    +0.216 C 
ATOM     26  O   UNL     1       4.999   0.471   2.556  0.00  0.00    -0.276 OA
ENDBRANCH  20  21
ENDBRANCH  17  20
ENDBRANCH  13  18
ENDBRANCH   1  13
BRANCH  10  27
ATOM     27  C   UNL     1       1.278  -7.139  -0.457  0.00  0.00    +0.057 C 
BRANCH  27  28
ATOM     28  C   UNL     1      -0.190  -7.473  -0.728  0.00  0.00    -0.079 C 
BRANCH  28  29
ATOM     29  N   UNL     1      -0.283  -8.365  -1.892  0.00  0.00    +0.378 N 
ATOM     30  H   UNL     1       0.112  -7.906  -2.699  0.00  0.00    -0.090 HD
ATOM     31  H   UNL     1       0.227  -9.215  -1.705  0.00  0.00    -0.090 HD
ATOM     32  H   UNL     1      -1.251  -8.585  -2.071  0.00  0.00    -0.090 HD
ENDBRANCH  28  29
ENDBRANCH  27  28
ENDBRANCH  10  27
TORSDOF 7
