REMARK  Name = ZINC13064933
REMARK  13 active torsions:
REMARK  status: ('A' for Active; 'I' for Inactive)
REMARK    1  A    between atoms: C_1  and  C_2
REMARK    2  A    between atoms: C_2  and  C_3
REMARK    3  A    between atoms: C_3  and  C_5
REMARK    4  A    between atoms: C_3  and  N_72
REMARK    5  A    between atoms: N_9  and  C_10
REMARK    6  A    between atoms: C_10  and  C_11
REMARK    7  A    between atoms: C_17  and  C_18
REMARK    8  A    between atoms: C_17  and  N_72
REMARK    9  A    between atoms: C_21  and  C_24
REMARK   10  A    between atoms: C_25  and  C_26
REMARK   11  A    between atoms: C_25  and  N_72
REMARK   12  A    between atoms: C_29  and  C_39
REMARK   13  A    between atoms: C_31  and  C_38
REMARK                            x       y       z     vdW  Elec       q    Type
REMARK                         _______ _______ _______ _____ _____    ______ ____
ROOT
ATOM      1  N   UNL     1       4.045   0.816  -2.928  0.00  0.00    +0.392 N 
ATOM      2  H   UNL     1       4.683   0.721  -3.727  0.00  0.00    -0.080 HD
ENDROOT
BRANCH   1   3
ATOM      3  C   UNL     1       4.180   2.175  -2.364  0.00  0.00    +0.003 C 
BRANCH   3   4
ATOM      4  C   UNL     1       3.623   3.174  -3.345  0.00  0.00    +0.138 A 
ATOM      5  N   UNL     1       3.818   3.191  -4.641  0.00  0.00    -0.115 NA
ATOM      6  N   UNL     1       3.181   4.200  -5.126  0.00  0.00    -0.023 NA
ATOM      7  N   UNL     1       2.579   4.824  -4.174  0.00  0.00    -0.044 NA
ATOM      8  N   UNL     1       2.825   4.220  -3.061  0.00  0.00    -0.226 N 
BRANCH   8   9
ATOM      9  C   UNL     1       2.332   4.604  -1.736  0.00  0.00    +0.182 C 
BRANCH   9  10
ATOM     10  C   UNL     1       1.016   3.920  -1.471  0.00  0.00    -0.026 A 
ATOM     11  C   UNL     1       0.993   2.678  -0.865  0.00  0.00    +0.005 A 
ATOM     12  C   UNL     1      -0.215   2.050  -0.622  0.00  0.00    +0.000 A 
ATOM     13  C   UNL     1      -1.398   2.661  -0.990  0.00  0.00    +0.000 A 
ATOM     14  C   UNL     1      -1.375   3.906  -1.592  0.00  0.00    +0.000 A 
ATOM     15  C   UNL     1      -0.168   4.534  -1.834  0.00  0.00    +0.005 A 
ENDBRANCH   9  10
ENDBRANCH   8   9
ENDBRANCH   3   4
BRANCH   3  17
ATOM     16  C   UNL     1       5.813   3.821  -1.434  0.00  0.00    +0.002 C 
ATOM     17  C   UNL     1       5.663   2.466  -2.127  0.00  0.00    -0.011 C 
ENDBRANCH   3  17
ENDBRANCH   1   3
BRANCH   1  18
ATOM     18  C   UNL     1       2.659   0.598  -3.393  0.00  0.00    -0.042 C 
BRANCH  18  19
ATOM     19  C   UNL     1       2.646  -0.577  -4.338  0.00  0.00    -0.064 A 
ATOM     20  C   UNL     1       2.978  -0.398  -5.668  0.00  0.00    +0.002 A 
ATOM     21  C   UNL     1       2.970  -1.476  -6.533  0.00  0.00    +0.003 A 
ATOM     22  C   UNL     1       2.621  -2.731  -6.071  0.00  0.00    -0.050 A 
ATOM     23  C   UNL     1       2.284  -2.909  -4.742  0.00  0.00    +0.003 A 
ATOM     24  C   UNL     1       2.296  -1.832  -3.876  0.00  0.00    +0.002 A 
ATOM     25  C   UNL     1       2.608  -3.905  -7.016  0.00  0.00    +0.044 C 
ENDBRANCH  18  19
ENDBRANCH   1  18
BRANCH   1  26
ATOM     26  C   UNL     1       4.400  -0.193  -1.908  0.00  0.00    -0.036 C 
BRANCH  26  27
ATOM     27  C   UNL     1       3.540  -0.029  -0.681  0.00  0.00    +0.001 A 
ATOM     28  C   UNL     1       2.403  -0.756  -0.551  0.00  0.00    +0.017 A 
ATOM     29  C   UNL     1       1.589  -0.573   0.653  0.00  0.00    +0.002 A 
ATOM     30  C   UNL     1       0.407  -1.296   0.844  0.00  0.00    -0.041 A 
ATOM     31  C   UNL     1      -0.329  -1.102   1.978  0.00  0.00    +0.007 A 
ATOM     32  C   UNL     1       0.086  -0.195   2.943  0.00  0.00    -0.048 A 
ATOM     33  C   UNL     1       1.247   0.528   2.776  0.00  0.00    +0.029 A 
ATOM     34  C   UNL     1       2.014   0.347   1.629  0.00  0.00    +0.050 A 
ATOM     35  N   UNL     1       3.180   1.056   1.437  0.00  0.00    -0.322 N 
ATOM     36  H   UNL     1       3.471   1.690   2.111  0.00  0.00    +0.169 HD
ATOM     37  C   UNL     1       3.923   0.878   0.331  0.00  0.00    +0.251 A 
ATOM     38  O   UNL     1       4.952   1.518   0.196  0.00  0.00    -0.268 OA
ATOM     39  C   UNL     1      -0.743   0.002   4.187  0.00  0.00    +0.044 C 
ATOM     40  C   UNL     1      -0.053  -2.283  -0.198  0.00  0.00    +0.044 C 
ENDBRANCH  26  27
ENDBRANCH   1  26
TORSDOF 9
