REMARK  Name = ZINC00373906
REMARK  3 active torsions:
REMARK  status: ('A' for Active; 'I' for Inactive)
REMARK    1  A    between atoms: C_4  and  C_7
REMARK    2  A    between atoms: C_16  and  N_18
REMARK    3  A    between atoms: C_19  and  C_21
REMARK                            x       y       z     vdW  Elec       q    Type
REMARK                         _______ _______ _______ _____ _____    ______ ____
ROOT
ATOM      1  C   UNL     1      -0.018   1.468   0.010  0.00  0.00    +0.080 C 
ATOM      2  N   UNL     1      -1.157   2.054   0.019  0.00  0.00    -0.248 NA
ATOM      3  C   UNL     1      -1.414   3.385  -0.015  0.00  0.00    +0.078 A 
ATOM      4  C   UNL     1      -2.663   3.862   0.402  0.00  0.00    +0.029 A 
ATOM      5  C   UNL     1      -2.929   5.214   0.380  0.00  0.00    +0.002 A 
ATOM      6  C   UNL     1      -1.971   6.115  -0.053  0.00  0.00    +0.001 A 
ATOM      7  C   UNL     1      -0.733   5.663  -0.473  0.00  0.00    +0.017 A 
ATOM      8  C   UNL     1      -0.454   4.309  -0.458  0.00  0.00    +0.035 A 
ATOM      9  S   UNL     1       1.117   3.707  -0.995  0.00  0.00    -0.094 S 
ATOM     10  C   UNL     1       1.303   2.194   0.001  0.00  0.00    +0.186 C 
ENDROOT
BRANCH   1  14
ATOM     11  C   UNL     1       0.040  -2.774  -0.014  0.00  0.00    +0.000 A 
ATOM     12  C   UNL     1      -1.170  -2.102   0.002  0.00  0.00    +0.001 A 
ATOM     13  C   UNL     1      -1.197  -0.723   0.010  0.00  0.00    +0.010 A 
ATOM     14  C   UNL     1       0.002  -0.004   0.002  0.00  0.00    -0.001 A 
ATOM     15  C   UNL     1       1.220  -0.690  -0.019  0.00  0.00    +0.010 A 
ATOM     16  C   UNL     1       1.231  -2.069  -0.022  0.00  0.00    +0.001 A 
ENDBRANCH   1  14
BRANCH  10  17
ATOM     17  N   UNL     1       1.681   2.548   1.372  0.00  0.00    -0.291 N 
ATOM     18  C   UNL     1       2.943   2.342   1.798  0.00  0.00    +0.280 C 
ATOM     19  O   UNL     1       3.768   1.861   1.044  0.00  0.00    -0.267 OA
ATOM     20  H   UNL     1       1.023   2.932   1.973  0.00  0.00    +0.151 HD
BRANCH  18  21
ATOM     21  C   UNL     1       3.321   2.697   3.170  0.00  0.00    +0.189 A 
ATOM     22  C   UNL     1       4.558   2.541   3.726  0.00  0.00    +0.054 A 
ATOM     23  C   UNL     1       4.468   3.009   5.047  0.00  0.00    +0.042 A 
ATOM     24  C   UNL     1       3.196   3.425   5.235  0.00  0.00    +0.196 A 
ATOM     25  O   UNL     1       2.509   3.239   4.101  0.00  0.00    -0.458 OA
ENDBRANCH  18  21
ENDBRANCH  10  17
TORSDOF 3
