REMARK  Name = ZINC39534223
REMARK  11 active torsions:
REMARK  status: ('A' for Active; 'I' for Inactive)
REMARK    1  A    between atoms: C_1  and  O_2
REMARK    2  A    between atoms: O_2  and  N_3
REMARK    3  A    between atoms: N_3  and  C_4
REMARK    4  A    between atoms: C_4  and  C_5
REMARK    5  A    between atoms: C_5  and  C_7
REMARK    6  A    between atoms: C_5  and  N_23
REMARK    7  A    between atoms: C_10  and  S_13
REMARK    8  A    between atoms: S_13  and  O_16
REMARK    9  A    between atoms: O_16  and  C_17
REMARK   10  A    between atoms: C_27  and  C_30
REMARK   11  A    between atoms: C_30  and  C_31
REMARK                            x       y       z     vdW  Elec       q    Type
REMARK                         _______ _______ _______ _____ _____    ______ ____
ROOT
ATOM      1  C   UNL     1       1.352  -2.620  -2.340  0.00  0.00    +0.103 C 
ENDROOT
BRANCH   1   2
ATOM      2  N   UNL     1       0.227  -2.167  -3.169  0.00  0.00    -0.297 NA
ATOM      3  C   UNL     1       0.611  -1.010  -3.990  0.00  0.00    +0.066 C 
ATOM      4  C   UNL     1      -0.568  -0.606  -4.880  0.00  0.00    -0.067 C 
ATOM      5  N   UNL     1      -1.724  -0.270  -4.038  0.00  0.00    +0.383 N 
ATOM      6  C   UNL     1      -2.110  -1.443  -3.243  0.00  0.00    -0.053 C 
ATOM      7  C   UNL     1      -0.945  -1.853  -2.340  0.00  0.00    +0.069 C 
ATOM      8  H   UNL     1      -1.481   0.490  -3.421  0.00  0.00    -0.085 HD
ATOM      9  H   UNL     1      -2.497   0.007  -4.625  0.00  0.00    -0.085 HD
BRANCH   6  10
ATOM     10  C   UNL     1      -3.326  -1.097  -2.381  0.00  0.00    +0.020 C 
BRANCH  10  11
ATOM     11  C   UNL     1      -4.508  -0.812  -3.271  0.00  0.00    -0.049 A 
ATOM     12  C   UNL     1      -4.742   0.475  -3.719  0.00  0.00    +0.003 A 
ATOM     13  C   UNL     1      -5.826   0.736  -4.536  0.00  0.00    +0.000 A 
ATOM     14  C   UNL     1      -6.676  -0.290  -4.905  0.00  0.00    +0.000 A 
ATOM     15  C   UNL     1      -6.442  -1.577  -4.458  0.00  0.00    +0.000 A 
ATOM     16  C   UNL     1      -5.355  -1.839  -3.644  0.00  0.00    +0.003 A 
ENDBRANCH  10  11
ENDBRANCH   6  10
ENDBRANCH   1   2
BRANCH   1  17
ATOM     17  C   UNL     1       1.145  -4.063  -1.958  0.00  0.00    -0.029 A 
ATOM     18  C   UNL     1      -0.078  -4.668  -2.179  0.00  0.00    +0.007 A 
ATOM     19  C   UNL     1      -0.268  -5.991  -1.828  0.00  0.00    +0.031 A 
ATOM     20  C   UNL     1       0.765  -6.710  -1.256  0.00  0.00    +0.128 A 
ATOM     21  C   UNL     1       1.989  -6.105  -1.036  0.00  0.00    +0.031 A 
ATOM     22  C   UNL     1       2.180  -4.783  -1.391  0.00  0.00    +0.007 A 
BRANCH  20  23
ATOM     23  S   UNL     1       0.522  -8.397  -0.808  0.00  0.00    +0.151 S 
ATOM     24  O   UNL     1       1.473  -8.688   0.208  0.00  0.00    -0.131 OA
ATOM     25  O   UNL     1      -0.875  -8.569  -0.616  0.00  0.00    -0.131 OA
BRANCH  23  26
ATOM     26  O   UNL     1       0.903  -9.242  -2.015  0.00  0.00    -0.342 OA
BRANCH  26  27
ATOM     27  C   UNL     1       2.243  -9.340  -2.221  0.00  0.00    +0.157 A 
ATOM     28  C   UNL     1       2.893  -8.409  -3.018  0.00  0.00    +0.048 A 
ATOM     29  C   UNL     1       4.255  -8.510  -3.226  0.00  0.00    +0.004 A 
ATOM     30  C   UNL     1       4.970  -9.538  -2.641  0.00  0.00    +0.000 A 
ATOM     31  C   UNL     1       4.324 -10.468  -1.846  0.00  0.00    +0.004 A 
ATOM     32  C   UNL     1       2.964 -10.367  -1.630  0.00  0.00    +0.048 A 
ENDBRANCH  26  27
ENDBRANCH  23  26
ENDBRANCH  20  23
ENDBRANCH   1  17
BRANCH   1  33
ATOM     33  C   UNL     1       1.432  -1.763  -1.075  0.00  0.00    +0.134 C 
BRANCH  33  34
ATOM     34  N   UNL     1       1.583  -0.351  -1.449  0.00  0.00    -0.200 NA
ATOM     35  H   UNL     1       2.387  -0.218  -2.043  0.00  0.00    +0.154 HD
BRANCH  34  37
ATOM     36  C   UNL     1       1.810   1.891  -0.552  0.00  0.00    +0.221 C 
ATOM     37  O   UNL     1       1.662   0.500  -0.262  0.00  0.00    -0.303 OA
ENDBRANCH  34  37
ENDBRANCH  33  34
ENDBRANCH   1  33
TORSDOF 10
