REMARK  Name = ZINC36336057
REMARK  9 active torsions:
REMARK  status: ('A' for Active; 'I' for Inactive)
REMARK    1  A    between atoms: C_5  and  N_8
REMARK    2  A    between atoms: C_6  and  N_7
REMARK    3  A    between atoms: C_9  and  C_11
REMARK    4  A    between atoms: C_11  and  C_12
REMARK    5  A    between atoms: C_12  and  C_13
REMARK    6  A    between atoms: C_13  and  S_14
REMARK    7  A    between atoms: S_14  and  C_15
REMARK    8  A    between atoms: C_15  and  C_16
REMARK    9  A    between atoms: C_16  and  O_17
REMARK                            x       y       z     vdW  Elec       q    Type
REMARK                         _______ _______ _______ _____ _____    ______ ____
ROOT
ATOM      1  N   UNL     1       1.246  -2.083  -0.022  0.00  0.00    -0.283 N 
ATOM      2  C   UNL     1       2.410  -2.738   0.164  0.00  0.00    +0.217 C 
ATOM      3  O   UNL     1       3.418  -2.118   0.430  0.00  0.00    -0.275 OA
ATOM      4  H   UNL     1       0.427  -2.583  -0.163  0.00  0.00    +0.155 HD
ENDROOT
BRANCH   1   9
ATOM      5  C   UNL     1       0.983   1.393   1.183  0.00  0.00    +0.044 A 
ATOM      6  C   UNL     1       1.170   2.091   0.003  0.00  0.00    +0.044 A 
ATOM      7  C   UNL     1       1.381   1.409  -1.181  0.00  0.00    +0.042 A 
ATOM      8  C   UNL     1       1.407   0.025  -1.193  0.00  0.00    +0.065 A 
ATOM      9  C   UNL     1       1.221  -0.681  -0.013  0.00  0.00    +0.073 A 
ATOM     10  C   UNL     1       1.008   0.006   1.181  0.00  0.00    +0.049 A 
ATOM     11 CL   UNL     1       1.672  -0.826  -2.682  0.00  0.00    -0.082 Cl
ATOM     12 CL   UNL     1       1.138   3.826   0.009  0.00  0.00    -0.083 Cl
BRANCH  10  13
ATOM     13  N   UNL     1       0.819  -0.701   2.373  0.00  0.00    -0.356 N 
ATOM     14  H   UNL     1       0.671  -0.221   3.203  0.00  0.00    +0.142 HD
ATOM     15  H   UNL     1       0.837  -1.670   2.370  0.00  0.00    +0.142 HD
ENDBRANCH  10  13
ENDBRANCH   1   9
BRANCH   2  16
ATOM     16  C   UNL     1       2.458  -4.239   0.043  0.00  0.00    +0.097 C 
BRANCH  16  17
ATOM     17  C   UNL     1       3.886  -4.726   0.300  0.00  0.00    +0.020 C 
BRANCH  17  18
ATOM     18  C   UNL     1       3.935  -6.250   0.177  0.00  0.00    +0.069 C 
BRANCH  18  19
ATOM     19  S   UNL     1       5.627  -6.827   0.481  0.00  0.00    -0.158 S 
BRANCH  19  20
ATOM     20  C   UNL     1       5.516  -8.629   0.300  0.00  0.00    +0.097 C 
BRANCH  20  21
ATOM     21  C   UNL     1       6.894  -9.251   0.535  0.00  0.00    +0.166 C 
BRANCH  21  22
ATOM     22  O   UNL     1       6.806 -10.670   0.392  0.00  0.00    -0.394 OA
ATOM     23  H   UNL     1       7.645 -11.132   0.528  0.00  0.00    +0.209 HD
ENDBRANCH  21  22
ENDBRANCH  20  21
ENDBRANCH  19  20
ENDBRANCH  18  19
ENDBRANCH  17  18
ENDBRANCH  16  17
ENDBRANCH   2  16
TORSDOF 9
