REMARK  Name = ZINC39715294
REMARK  11 active torsions:
REMARK  status: ('A' for Active; 'I' for Inactive)
REMARK    1  A    between atoms: C_1  and  C_2
REMARK    2  A    between atoms: C_4  and  C_19
REMARK    3  A    between atoms: C_5  and  C_18
REMARK    4  A    between atoms: N_6  and  C_7
REMARK    5  A    between atoms: C_9  and  C_16
REMARK    6  A    between atoms: C_10  and  C_15
REMARK    7  A    between atoms: C_11  and  C_14
REMARK    8  A    between atoms: C_19  and  C_20
REMARK    9  A    between atoms: C_19  and  C_27
REMARK   10  A    between atoms: C_21  and  C_26
REMARK   11  A    between atoms: C_29  and  C_34
REMARK                            x       y       z     vdW  Elec       q    Type
REMARK                         _______ _______ _______ _____ _____    ______ ____
ROOT
ATOM      1  C   UNL     1      -0.553  -3.033  -1.623  0.00  0.00    +0.095 C 
ENDROOT
BRANCH   1   2
ATOM      2  C   UNL     1       0.640  -3.834  -2.076  0.00  0.00    +0.050 A 
ATOM      3  H   UNL     1       3.442  -4.323  -3.480  0.00  0.00    +0.190 HD
ATOM      4  C   UNL     1       0.837  -5.151  -1.862  0.00  0.00    +0.039 A 
ATOM      5  N   UNL     1       2.030  -5.506  -2.424  0.00  0.00    -0.301 N 
ATOM      6  N   UNL     1       2.595  -4.365  -3.009  0.00  0.00    -0.266 N 
ATOM      7  C   UNL     1       1.746  -3.337  -2.805  0.00  0.00    +0.269 A 
ATOM      8  O   UNL     1       1.904  -2.189  -3.178  0.00  0.00    -0.266 OA
ATOM      9  C   UNL     1      -0.100  -6.074  -1.126  0.00  0.00    +0.065 C 
ATOM     10  H   UNL     1       2.420  -6.395  -2.418  0.00  0.00    +0.186 HD
ENDBRANCH   1   2
BRANCH   1  11
ATOM     11  C   UNL     1      -1.196  -2.372  -2.815  0.00  0.00    +0.053 A 
ATOM     12  C   UNL     1      -2.012  -1.237  -2.787  0.00  0.00    +0.068 A 
ATOM     13  N   UNL     1      -2.378  -0.964  -4.013  0.00  0.00    -0.176 NA
ATOM     14  N   UNL     1      -1.806  -1.916  -4.866  0.00  0.00    -0.243 N 
ATOM     15  C   UNL     1      -1.080  -2.769  -4.110  0.00  0.00    +0.271 A 
ATOM     16  O   UNL     1      -0.366  -3.831  -4.562  0.00  0.00    -0.266 OA
ATOM     17  C   UNL     1      -2.405  -0.463  -1.555  0.00  0.00    +0.068 C 
ATOM     18  H   UNL     1      -1.911  -1.955  -5.830  0.00  0.00    +0.192 HD
ENDBRANCH   1  11
BRANCH   1  22
ATOM     19  C   UNL     1       1.625   1.116   0.376  0.00  0.00    +0.063 C 
ATOM     20  C   UNL     1       0.848  -0.165   0.215  0.00  0.00    +0.019 A 
ATOM     21  C   UNL     1       0.679  -0.847  -0.936  0.00  0.00    +0.027 A 
ATOM     22  C   UNL     1      -0.108  -1.979  -0.643  0.00  0.00    -0.014 A 
ATOM     23  C   UNL     1      -0.390  -1.944   0.675  0.00  0.00    +0.023 A 
ATOM     24  N   UNL     1       0.199  -0.836   1.208  0.00  0.00    -0.318 N 
ATOM     25  C   UNL     1      -1.209  -2.959   1.430  0.00  0.00    +0.064 C 
BRANCH  24  26
ATOM     26  C   UNL     1       0.141  -0.432   2.615  0.00  0.00    +0.262 C 
ATOM     27  C   UNL     1      -0.795  -1.340   3.381  0.00  0.00    +0.080 C 
ATOM     28  C   UNL     1      -1.952  -0.696   3.545  0.00  0.00    -0.027 C 
ATOM     29  C   UNL     1      -1.827   0.664   2.896  0.00  0.00    +0.145 C 
ATOM     30  O   UNL     1      -0.413   0.892   2.729  0.00  0.00    -0.344 OA
ATOM     31  C   UNL     1      -2.527   0.665   1.535  0.00  0.00    +0.043 C 
ATOM     32  C   UNL     1      -3.170  -1.230   4.254  0.00  0.00    +0.043 C 
BRANCH  27  33
ATOM     33  C   UNL     1      -0.493  -2.660   3.847  0.00  0.00    +0.099 C 
ATOM     34  N   UNL     1      -0.254  -3.707   4.217  0.00  0.00    -0.191 NA
ENDBRANCH  27  33
ENDBRANCH  24  26
ENDBRANCH   1  22
TORSDOF 5
