REMARK  Name = ZINC40364650
REMARK  8 active torsions:
REMARK  status: ('A' for Active; 'I' for Inactive)
REMARK    1  A    between atoms: C_1  and  C_2
REMARK    2  A    between atoms: C_2  and  C_3
REMARK    3  A    between atoms: C_3  and  C_4
REMARK    4  A    between atoms: C_3  and  C_5
REMARK    5  A    between atoms: C_3  and  N_8
REMARK    6  A    between atoms: C_5  and  N_7
REMARK    7  A    between atoms: N_8  and  S_9
REMARK    8  A    between atoms: S_9  and  C_12
REMARK                            x       y       z     vdW  Elec       q    Type
REMARK                         _______ _______ _______ _____ _____    ______ ____
ROOT
ATOM      1  N   UNL     1       0.762  -1.976   1.234  0.00  0.00    -0.178 NA
ATOM      2  H   UNL     1       0.342  -2.462   0.507  0.00  0.00    +0.149 HD
ENDROOT
BRANCH   1   3
ATOM      3  S   UNL     1       1.502  -2.801   2.464  0.00  0.00    +0.066 S 
ATOM      4  O   UNL     1       1.330  -4.184   2.187  0.00  0.00    -0.153 OA
ATOM      5  O   UNL     1       2.784  -2.211   2.635  0.00  0.00    -0.153 OA
BRANCH   3   6
ATOM      6  C   UNL     1       0.594  -2.465   3.936  0.00  0.00    +0.143 A 
ATOM      7  C   UNL     1      -0.457  -3.140   4.463  0.00  0.00    +0.037 A 
ATOM      8  C   UNL     1      -1.020  -2.690   5.643  0.00  0.00    +0.025 A 
ATOM      9  C   UNL     1      -0.503  -1.587   6.238  0.00  0.00    +0.057 A 
ATOM     10  S   UNL     1       0.824  -1.154   5.125  0.00  0.00    -0.062 S 
ATOM     11 BR   UNL     1      -1.043  -0.733   7.837  0.00  0.00    -0.043 Br
ENDBRANCH   3   6
ENDBRANCH   1   3
BRANCH   1  12
ATOM     12  C   UNL     1       0.742  -0.511   1.242  0.00  0.00    +0.081 C 
ATOM     13  C   UNL     1       2.178   0.019   1.231  0.00  0.00    +0.036 C 
BRANCH  12  15
ATOM     14  C   UNL     1      -0.019   1.526   0.010  0.00  0.00    +0.006 C 
ATOM     15  C   UNL     1       0.002  -0.004   0.002  0.00  0.00    +0.027 C 
ENDBRANCH  12  15
BRANCH  12  16
ATOM     16  C   UNL     1       0.037  -0.025   2.481  0.00  0.00    +0.068 C 
ATOM     17  S   UNL     1       0.721   1.085   3.407  0.00  0.00    -0.039 S 
BRANCH  16  18
ATOM     18  N   UNL     1      -1.171  -0.526   2.810  0.00  0.00    -0.354 N 
ATOM     19  H   UNL     1      -1.585  -1.199   2.248  0.00  0.00    +0.143 HD
ATOM     20  H   UNL     1      -1.625  -0.213   3.608  0.00  0.00    +0.143 HD
ENDBRANCH  16  18
ENDBRANCH  12  16
ENDBRANCH   1  12
TORSDOF 6
