REMARK  Name = ZINC16036204
REMARK  9 active torsions:
REMARK  status: ('A' for Active; 'I' for Inactive)
REMARK    1  A    between atoms: C_1  and  C_2
REMARK    2  A    between atoms: C_13  and  O_15
REMARK    3  A    between atoms: N_21  and  O_22
REMARK    4  A    between atoms: O_22  and  C_23
REMARK    5  A    between atoms: C_23  and  C_24
REMARK    6  A    between atoms: N_26  and  C_27
REMARK    7  A    between atoms: C_27  and  C_28
REMARK    8  A    between atoms: C_28  and  C_29
REMARK    9  A    between atoms: C_37  and  C_38
REMARK                            x       y       z     vdW  Elec       q    Type
REMARK                         _______ _______ _______ _____ _____    ______ ____
ROOT
ATOM      1  C   UNL     1      -7.577  -4.227   3.547  0.00  0.00    +0.014 C 
ATOM      2  C   UNL     1      -6.262  -3.679   2.987  0.00  0.00    -0.003 C 
ATOM      3  C   UNL     1      -5.821  -4.570   1.846  0.00  0.00    +0.010 C 
ATOM      4  C   UNL     1      -4.562  -4.008   1.191  0.00  0.00    +0.005 C 
ATOM      5  C   UNL     1      -4.866  -2.610   0.633  0.00  0.00    +0.002 C 
ATOM      6  C   UNL     1      -5.269  -1.682   1.766  0.00  0.00    -0.003 C 
ATOM      7  C   UNL     1      -6.473  -2.222   2.548  0.00  0.00    +0.001 C 
ATOM      8  C   UNL     1      -6.470  -1.480   3.918  0.00  0.00    +0.007 C 
ATOM      9  C   UNL     1      -5.363  -2.196   4.723  0.00  0.00    +0.032 C 
ATOM     10  C   UNL     1      -5.227  -3.608   4.117  0.00  0.00    +0.121 C 
ATOM     11  C   UNL     1      -5.649  -0.287   1.277  0.00  0.00    +0.008 C 
ATOM     12  C   UNL     1      -4.854   0.133   0.041  0.00  0.00    +0.031 C 
ATOM     13  C   UNL     1      -3.542  -0.610   0.005  0.00  0.00    -0.062 C 
ATOM     14  C   UNL     1      -2.393   0.048   0.025  0.00  0.00    +0.026 C 
ATOM     15  C   UNL     1      -1.111  -0.667   0.009  0.00  0.00    +0.080 C 
ATOM     16  N   UNL     1       0.002  -0.004   0.002  0.00  0.00    -0.089 NA
ATOM     17  C   UNL     1      -1.092  -2.175  -0.005  0.00  0.00    +0.059 C 
ATOM     18  C   UNL     1      -2.366  -2.690   0.679  0.00  0.00    +0.017 C 
ATOM     19  C   UNL     1      -3.583  -2.114  -0.048  0.00  0.00    -0.007 C 
ATOM     20  C   UNL     1      -3.570  -2.574  -1.507  0.00  0.00    +0.016 C 
ENDROOT
BRANCH  10  21
ATOM     21  O   UNL     1      -3.911  -3.795   3.592  0.00  0.00    -0.391 OA
ATOM     22  H   UNL     1      -3.210  -3.727   4.255  0.00  0.00    +0.210 HD
ENDBRANCH  10  21
BRANCH  16  23
ATOM     23  O   UNL     1      -0.017   1.412   0.010  0.00  0.00    -0.384 OA
BRANCH  23  24
ATOM     24  C   UNL     1       1.280   2.011   0.001  0.00  0.00    +0.358 C 
BRANCH  24  25
ATOM     25  C   UNL     1       1.141   3.511   0.010  0.00  0.00    +0.253 C 
ATOM     26  O   UNL     1       0.039   4.018   0.023  0.00  0.00    -0.272 OA
ATOM     27  N   UNL     1       2.241   4.290   0.004  0.00  0.00    -0.312 N 
ATOM     28  H   UNL     1       3.122   3.885  -0.007  0.00  0.00    +0.149 HD
BRANCH  27  29
ATOM     29  C   UNL     1       2.105   5.749   0.013  0.00  0.00    +0.110 C 
BRANCH  29  30
ATOM     30  C   UNL     1       3.494   6.390   0.003  0.00  0.00    +0.075 C 
BRANCH  30  31
ATOM     31  C   UNL     1       3.355   7.891   0.012  0.00  0.00    +0.060 A 
ATOM     32  C   UNL     1       3.908   8.731   0.907  0.00  0.00    +0.107 A 
ATOM     33  N   UNL     1       3.533   9.997   0.546  0.00  0.00    -0.351 N 
ATOM     34  H   UNL     1       3.787  10.846   1.009  0.00  0.00    +0.166 HD
ATOM     35  C   UNL     1       2.756   9.885  -0.552  0.00  0.00    +0.196 A 
ATOM     36  N   UNL     1       2.654   8.623  -0.866  0.00  0.00    -0.241 NA
ENDBRANCH  30  31
ENDBRANCH  29  30
ENDBRANCH  27  29
ENDBRANCH  24  25
ENDBRANCH  23  24
ENDBRANCH  16  23
TORSDOF 7
