REMARK  Name = ZINC38704691
REMARK  9 active torsions:
REMARK  status: ('A' for Active; 'I' for Inactive)
REMARK    1  A    between atoms: C_1  and  C_2
REMARK    2  A    between atoms: C_2  and  C_3
REMARK    3  A    between atoms: C_3  and  N_4
REMARK    4  A    between atoms: C_5  and  C_24
REMARK    5  A    between atoms: C_8  and  C_15
REMARK    6  A    between atoms: C_16  and  C_23
REMARK    7  A    between atoms: C_18  and  C_22
REMARK    8  A    between atoms: C_20  and  O_21
REMARK    9  A    between atoms: C_27  and  C_30
REMARK                            x       y       z     vdW  Elec       q    Type
REMARK                         _______ _______ _______ _____ _____    ______ ____
ROOT
ATOM      1  N   UNL     1      -0.972  -1.924  -0.305  0.00  0.00    -0.285 N 
ATOM      2  C   UNL     1      -0.953  -3.048  -1.251  0.00  0.00    +0.141 C 
ATOM      3  C   UNL     1      -1.096  -4.293  -0.419  0.00  0.00    +0.035 A 
ATOM      4  C   UNL     1      -1.177  -5.690  -0.391  0.00  0.00    +0.102 A 
ATOM      5  N   UNL     1      -1.307  -6.052   0.870  0.00  0.00    -0.173 NA
ATOM      6  N   UNL     1      -1.315  -5.023   1.641  0.00  0.00    -0.272 N 
ATOM      7  H   UNL     1      -1.400  -5.051   2.606  0.00  0.00    +0.189 HD
ATOM      8  C   UNL     1      -1.187  -3.884   0.897  0.00  0.00    +0.126 A 
ATOM      9  C   UNL     1      -1.102  -2.420   0.938  0.00  0.00    +0.265 C 
ATOM     10  O   UNL     1      -1.147  -1.750   1.952  0.00  0.00    -0.268 OA
ENDROOT
BRANCH   4  11
ATOM     11  C   UNL     1      -1.127  -6.596  -1.565  0.00  0.00    +0.047 A 
ATOM     12  C   UNL     1      -0.248  -7.676  -1.578  0.00  0.00    -0.037 A 
ATOM     13  C   UNL     1      -0.206  -8.517  -2.672  0.00  0.00    +0.007 A 
ATOM     14  C   UNL     1      -1.034  -8.291  -3.757  0.00  0.00    -0.047 A 
ATOM     15  C   UNL     1      -1.911  -7.222  -3.754  0.00  0.00    +0.049 A 
ATOM     16  C   UNL     1      -1.967  -6.374  -2.660  0.00  0.00    +0.127 A 
ATOM     17  C   UNL     1      -0.981  -9.214  -4.947  0.00  0.00    +0.044 C 
ATOM     18  C   UNL     1       0.657  -7.926  -0.400  0.00  0.00    +0.044 C 
BRANCH  16  19
ATOM     19  O   UNL     1      -2.832  -5.326  -2.654  0.00  0.00    -0.506 OA
ATOM     20  H   UNL     1      -2.495  -4.535  -3.096  0.00  0.00    +0.292 HD
ENDBRANCH  16  19
ENDBRANCH   4  11
BRANCH   2  21
ATOM     21  C   UNL     1       0.352  -3.071  -2.003  0.00  0.00    -0.022 A 
ATOM     22  C   UNL     1       1.548  -2.990  -1.315  0.00  0.00    +0.006 A 
ATOM     23  C   UNL     1       2.745  -3.011  -2.006  0.00  0.00    +0.004 A 
ATOM     24  C   UNL     1       2.747  -3.115  -3.384  0.00  0.00    -0.050 A 
ATOM     25  C   UNL     1       1.550  -3.197  -4.072  0.00  0.00    +0.004 A 
ATOM     26  C   UNL     1       0.353  -3.180  -3.381  0.00  0.00    +0.006 A 
ATOM     27  C   UNL     1       4.052  -3.137  -4.137  0.00  0.00    +0.044 C 
ENDBRANCH   2  21
BRANCH   1  28
ATOM     28  C   UNL     1      -0.861  -0.506  -0.656  0.00  0.00    +0.109 C 
BRANCH  28  30
ATOM     29  C   UNL     1       0.729   1.386  -1.027  0.00  0.00    +0.005 C 
ATOM     30  C   UNL     1       0.613  -0.095  -0.660  0.00  0.00    +0.016 C 
ENDBRANCH  28  30
ENDBRANCH   1  28
TORSDOF 5
