REMARK  Name = ZINC44604731
REMARK  4 active torsions:
REMARK  status: ('A' for Active; 'I' for Inactive)
REMARK    1  A    between atoms: C_1  and  C_2
REMARK    2  A    between atoms: C_5  and  C_18
REMARK    3  A    between atoms: C_8  and  C_10
REMARK    4  A    between atoms: C_13  and  O_17
REMARK                            x       y       z     vdW  Elec       q    Type
REMARK                         _______ _______ _______ _____ _____    ______ ____
ROOT
ATOM      1  C   UNL     1      -0.018   1.503   0.010  0.00  0.00    +0.111 C 
ATOM      2  C   UNL     1       0.002  -0.004   0.002  0.00  0.00    +0.232 C 
ATOM      3  O   UNL     1       0.020  -0.616   1.049  0.00  0.00    -0.274 OA
ATOM      4  N   UNL     1       0.000  -0.672  -1.169  0.00  0.00    -0.185 N 
ATOM      5  C   UNL     1       0.013  -2.135  -1.320  0.00  0.00    +0.137 C 
ATOM      6  C   UNL     1       0.003  -2.342  -2.847  0.00  0.00    +0.087 C 
ATOM      7  C   UNL     1      -0.014  -0.936  -3.404  0.00  0.00    +0.069 C 
ATOM      8  N   UNL     1      -0.020  -0.088  -2.434  0.00  0.00    -0.181 NA
ENDROOT
BRANCH   7   9
ATOM      9  C   UNL     1      -0.028  -0.589  -4.837  0.00  0.00    -0.001 A 
ATOM     10  C   UNL     1      -0.031  -1.599  -5.803  0.00  0.00    +0.013 A 
ATOM     11  C   UNL     1      -0.044  -1.271  -7.141  0.00  0.00    +0.047 A 
ATOM     12  C   UNL     1      -0.054   0.062  -7.531  0.00  0.00    +0.135 A 
ATOM     13  C   UNL     1      -0.051   1.070  -6.575  0.00  0.00    +0.083 A 
ATOM     14  C   UNL     1      -0.043   0.751  -5.234  0.00  0.00    +0.033 A 
ATOM     15 CL   UNL     1      -0.062   2.734  -7.070  0.00  0.00    -0.080 Cl
BRANCH  12  16
ATOM     16  O   UNL     1      -0.066   0.381  -8.852  0.00  0.00    -0.505 OA
ATOM     17  H   UNL     1      -0.953   0.469  -9.227  0.00  0.00    +0.292 HD
ENDBRANCH  12  16
ENDBRANCH   7   9
BRANCH   5  18
ATOM     18  C   UNL     1       1.260  -2.721  -0.710  0.00  0.00    -0.025 A 
ATOM     19  C   UNL     1       2.467  -2.057  -0.834  0.00  0.00    +0.007 A 
ATOM     20  C   UNL     1       3.611  -2.594  -0.275  0.00  0.00    +0.020 A 
ATOM     21  C   UNL     1       3.550  -3.794   0.409  0.00  0.00    +0.041 A 
ATOM     22  C   UNL     1       2.342  -4.458   0.533  0.00  0.00    +0.020 A 
ATOM     23  C   UNL     1       1.197  -3.918  -0.021  0.00  0.00    +0.007 A 
ATOM     24 CL   UNL     1       4.987  -4.469   1.111  0.00  0.00    -0.084 Cl
ENDBRANCH   5  18
TORSDOF 3
