REMARK  Name = ZINC13059064
REMARK  5 active torsions:
REMARK  status: ('A' for Active; 'I' for Inactive)
REMARK    1  A    between atoms: C_3  and  C_6
REMARK    2  A    between atoms: C_16  and  C_18
REMARK    3  A    between atoms: C_23  and  C_25
REMARK    4  A    between atoms: C_25  and  N_60
REMARK    5  A    between atoms: C_29  and  C_32
REMARK                            x       y       z     vdW  Elec       q    Type
REMARK                         _______ _______ _______ _____ _____    ______ ____
ROOT
ATOM      1  C   UNL     1       2.059  -1.858  -6.472  0.00  0.00    +0.020 C 
ATOM      2  C   UNL     1       1.312  -0.952  -7.145  0.00  0.00    -0.023 C 
ATOM      3  C   UNL     1       1.208  -1.042  -8.637  0.00  0.00    +0.037 C 
ATOM      4  C   UNL     1       0.476   0.119  -9.281  0.00  0.00    +0.005 C 
ATOM      5  C   UNL     1      -0.644   0.684  -8.411  0.00  0.00    +0.012 C 
ATOM      6  C   UNL     1      -0.020   1.247  -7.133  0.00  0.00    +0.067 C 
ATOM      7  C   UNL     1       0.650   0.076  -6.425  0.00  0.00    +0.068 C 
ATOM      8  N   UNL     1       0.394   0.161  -5.164  0.00  0.00    -0.181 NA
ATOM      9  N   UNL     1      -0.518   1.175  -4.847  0.00  0.00    -0.186 N 
ATOM     10  C   UNL     1      -1.092   1.676  -6.117  0.00  0.00    +0.146 C 
ATOM     11  C   UNL     1      -0.816   1.618  -3.610  0.00  0.00    +0.219 C 
ATOM     12  O   UNL     1      -1.624   2.511  -3.463  0.00  0.00    -0.276 OA
ENDROOT
BRANCH   1  15
ATOM     13  C   UNL     1       4.116  -4.817  -7.602  0.00  0.00    +0.008 A 
ATOM     14  C   UNL     1       3.564  -3.931  -6.708  0.00  0.00    +0.015 A 
ATOM     15  C   UNL     1       2.758  -2.916  -7.200  0.00  0.00    +0.012 A 
ATOM     16  S   UNL     1       2.789  -3.243  -8.955  0.00  0.00    -0.097 S 
ATOM     17  C   UNL     1       3.857  -4.672  -8.929  0.00  0.00    +0.046 A 
ENDBRANCH   1  15
BRANCH  10  18
ATOM     18  C   UNL     1      -1.239   3.176  -6.088  0.00  0.00    +0.013 A 
ATOM     19  C   UNL     1      -2.237   3.946  -6.586  0.00  0.00    +0.013 A 
ATOM     20  C   UNL     1      -2.161   5.318  -6.441  0.00  0.00    +0.008 A 
ATOM     21  C   UNL     1      -1.090   5.854  -5.806  0.00  0.00    +0.045 A 
ATOM     22  S   UNL     1      -0.147   4.399  -5.381  0.00  0.00    -0.100 S 
ENDBRANCH  10  18
BRANCH  11  23
ATOM     23  C   UNL     1      -0.145   1.005  -2.408  0.00  0.00    +0.021 C 
BRANCH  23  29
ATOM     24  C   UNL     1       0.043   1.172  -0.000  0.00  0.00    -0.078 C 
ATOM     25  C   UNL     1      -0.524   1.875   1.236  0.00  0.00    -0.018 C 
ATOM     26  C   UNL     1      -1.988   1.467   1.423  0.00  0.00    +0.009 C 
ATOM     27  C   UNL     1      -2.774   1.827   0.159  0.00  0.00    +0.058 C 
ATOM     28  C   UNL     1      -2.143   1.127  -1.046  0.00  0.00    -0.065 C 
ATOM     29  N   UNL     1      -0.743   1.579  -1.185  0.00  0.00    +0.386 N 
ATOM     30  H   UNL     1      -0.730   2.604  -1.257  0.00  0.00    -0.081 HD
BRANCH  27  31
ATOM     31  C   UNL     1      -4.204   1.377   0.311  0.00  0.00    +0.212 C 
ATOM     32  O   UNL     1      -4.673   0.574  -0.467  0.00  0.00    -0.276 OA
ATOM     33  N   UNL     1      -4.962   1.866   1.313  0.00  0.00    -0.329 N 
ATOM     34  H   UNL     1      -4.587   2.508   1.935  0.00  0.00    +0.145 HD
ATOM     35  H   UNL     1      -5.883   1.576   1.411  0.00  0.00    +0.145 HD
ENDBRANCH  27  31
ENDBRANCH  23  29
ENDBRANCH  11  23
TORSDOF 5
