REMARK  Name = ZINC12883979
REMARK  4 active torsions:
REMARK  status: ('A' for Active; 'I' for Inactive)
REMARK    1  A    between atoms: C_4  and  C_7
REMARK    2  A    between atoms: C_9  and  C_12
REMARK    3  A    between atoms: C_12  and  S_13
REMARK    4  A    between atoms: S_13  and  C_14
REMARK                            x       y       z     vdW  Elec       q    Type
REMARK                         _______ _______ _______ _____ _____    ______ ____
ROOT
ATOM      1  C   UNL     1      -2.694   0.751   0.019  0.00  0.00    +0.136 C 
ENDROOT
BRANCH   1   4
ATOM      2  C   UNL     1      -6.046   1.928  -0.650  0.00  0.00    +0.227 A 
ATOM      3  N   UNL     1      -4.867   1.516  -1.051  0.00  0.00    -0.213 NA
ATOM      4  C   UNL     1      -4.116   1.249   0.028  0.00  0.00    +0.090 A 
ATOM      5  C   UNL     1      -4.860   1.500   1.121  0.00  0.00    +0.221 A 
ATOM      6  O   UNL     1      -6.065   1.930   0.694  0.00  0.00    -0.443 OA
BRANCH   2  10
ATOM      7  C   UNL     1      -9.266   3.067  -3.176  0.00  0.00    +0.000 A 
ATOM      8  C   UNL     1      -9.418   3.115  -1.801  0.00  0.00    +0.001 A 
ATOM      9  C   UNL     1      -8.377   2.746  -0.975  0.00  0.00    +0.013 A 
ATOM     10  C   UNL     1      -7.167   2.324  -1.529  0.00  0.00    +0.037 A 
ATOM     11  C   UNL     1      -7.018   2.284  -2.916  0.00  0.00    +0.013 A 
ATOM     12  C   UNL     1      -8.069   2.650  -3.731  0.00  0.00    +0.001 A 
ENDBRANCH   2  10
ENDBRANCH   1   4
BRANCH   1  13
ATOM     13  S   UNL     1      -1.560   2.162   0.021  0.00  0.00    -0.081 S 
BRANCH  13  14
ATOM     14  C   UNL     1      -0.016   1.313   0.009  0.00  0.00    +0.170 A 
ATOM     15  N   UNL     1       1.146   2.030   0.002  0.00  0.00    -0.301 N 
ATOM     16  H   UNL     1       1.107   2.999   0.007  0.00  0.00    +0.171 HD
ATOM     17  C   UNL     1       2.344   1.417  -0.013  0.00  0.00    +0.260 A 
ATOM     18  O   UNL     1       3.372   2.072  -0.019  0.00  0.00    -0.267 OA
ATOM     19  C   UNL     1       2.395  -0.013  -0.021  0.00  0.00    +0.072 A 
ATOM     20  C   UNL     1       3.552  -0.891  -0.036  0.00  0.00    +0.023 A 
ATOM     21  C   UNL     1       3.366  -2.219  -0.041  0.00  0.00    +0.048 A 
ATOM     22  S   UNL     1       1.591  -2.389  -0.025  0.00  0.00    -0.077 S 
ATOM     23  C   UNL     1       1.150  -0.670  -0.013  0.00  0.00    +0.116 A 
ATOM     24  N   UNL     1       0.002  -0.004   0.002  0.00  0.00    -0.216 NA
ENDBRANCH  13  14
ENDBRANCH   1  13
TORSDOF 4
