REMARK  Name = ZINC45336175
REMARK  8 active torsions:
REMARK  status: ('A' for Active; 'I' for Inactive)
REMARK    1  A    between atoms: C_3  and  C_6
REMARK    2  A    between atoms: C_8  and  C_11
REMARK    3  A    between atoms: C_11  and  O_12
REMARK    4  A    between atoms: O_12  and  C_13
REMARK    5  A    between atoms: C_13  and  C_15
REMARK    6  A    between atoms: C_15  and  N_16
REMARK    7  A    between atoms: N_16  and  S_17
REMARK    8  A    between atoms: S_17  and  C_20
REMARK                            x       y       z     vdW  Elec       q    Type
REMARK                         _______ _______ _______ _____ _____    ______ ____
ROOT
ATOM      1  C   UNL     1       9.025   0.751  -1.617  0.00  0.00    +0.323 C 
ATOM      2  O   UNL     1       9.732   0.503  -0.669  0.00  0.00    -0.249 OA
ENDROOT
BRANCH   1   3
ATOM      3  O   UNL     1       7.769   1.182  -1.423  0.00  0.00    -0.454 OA
BRANCH   3   4
ATOM      4  C   UNL     1       7.333   1.324  -0.070  0.00  0.00    +0.330 C 
BRANCH   4   7
ATOM      5  C   UNL     1       3.738   1.826  -0.024  0.00  0.00    +0.209 A 
ATOM      6  N   UNL     1       4.846   1.060  -0.044  0.00  0.00    -0.188 NA
ATOM      7  C   UNL     1       5.908   1.813  -0.049  0.00  0.00    +0.265 A 
ATOM      8  O   UNL     1       5.522   3.095  -0.032  0.00  0.00    -0.334 OA
ATOM      9  N   UNL     1       4.102   3.087  -0.022  0.00  0.00    -0.055 NA
BRANCH   5  12
ATOM     10  C   UNL     1      -0.016   1.355   0.009  0.00  0.00    +0.008 A 
ATOM     11  C   UNL     1       1.176   2.042   0.002  0.00  0.00    +0.019 A 
ATOM     12  C   UNL     1       2.346   1.330  -0.013  0.00  0.00    +0.060 A 
ATOM     13  S   UNL     1       1.753  -0.354  -0.017  0.00  0.00    -0.093 S 
ATOM     14  C   UNL     1       0.002  -0.004   0.002  0.00  0.00    +0.046 A 
ENDBRANCH   5  12
ENDBRANCH   4   7
ENDBRANCH   3   4
ENDBRANCH   1   3
BRANCH   1  15
ATOM     15  C   UNL     1       9.554   0.578  -3.018  0.00  0.00    +0.226 C 
BRANCH  15  16
ATOM     16  N   UNL     1      10.939   0.102  -2.961  0.00  0.00    -0.179 NA
ATOM     17  H   UNL     1      11.437   0.156  -2.130  0.00  0.00    +0.149 HD
BRANCH  16  18
ATOM     18  S   UNL     1      11.654  -0.529  -4.315  0.00  0.00    +0.059 S 
ATOM     19  O   UNL     1      12.984  -0.870  -3.950  0.00  0.00    -0.153 OA
ATOM     20  O   UNL     1      10.743  -1.479  -4.850  0.00  0.00    -0.153 OA
BRANCH  18  21
ATOM     21  C   UNL     1      11.774   0.774  -5.495  0.00  0.00    +0.107 A 
ATOM     22  C   UNL     1      10.740   0.995  -6.387  0.00  0.00    +0.030 A 
ATOM     23  C   UNL     1      10.833   2.017  -7.314  0.00  0.00    +0.023 A 
ATOM     24  C   UNL     1      11.960   2.818  -7.349  0.00  0.00    +0.059 A 
ATOM     25  C   UNL     1      12.995   2.597  -6.456  0.00  0.00    +0.061 A 
ATOM     26  C   UNL     1      12.898   1.577  -5.525  0.00  0.00    +0.050 A 
ATOM     27 CL   UNL     1      14.410   3.601  -6.499  0.00  0.00    -0.082 Cl
ATOM     28 CL   UNL     1      12.078   4.101  -8.513  0.00  0.00    -0.082 Cl
ENDBRANCH  18  21
ENDBRANCH  16  18
ENDBRANCH  15  16
ENDBRANCH   1  15
TORSDOF 8
