REMARK  Name = ZINC39639281
REMARK  6 active torsions:
REMARK  status: ('A' for Active; 'I' for Inactive)
REMARK    1  A    between atoms: C_1  and  C_2
REMARK    2  A    between atoms: C_5  and  C_8
REMARK    3  A    between atoms: C_8  and  C_10
REMARK    4  A    between atoms: C_8  and  N_11
REMARK    5  A    between atoms: C_12  and  C_14
REMARK    6  A    between atoms: C_25  and  C_27
REMARK                            x       y       z     vdW  Elec       q    Type
REMARK                         _______ _______ _______ _____ _____    ______ ____
ROOT
ATOM      1  C   UNL     1       2.347  -6.779   2.527  0.00  0.00    +0.100 C 
ATOM      2  C   UNL     1       3.553  -5.826   2.372  0.00  0.00    +0.121 C 
ATOM      3  N   UNL     1       4.741  -6.703   2.492  0.00  0.00    -0.296 N 
ATOM      4  C   UNL     1       4.364  -7.936   1.761  0.00  0.00    +0.115 C 
ATOM      5  C   UNL     1       2.883  -8.163   2.124  0.00  0.00    -0.004 C 
ATOM      6  C   UNL     1       2.770  -9.134   3.295  0.00  0.00    -0.010 C 
ATOM      7  C   UNL     1       3.256 -10.518   2.853  0.00  0.00    -0.082 C 
ATOM      8  N   UNL     1       2.445 -10.986   1.723  0.00  0.00    +0.379 N 
ATOM      9  C   UNL     1       2.632 -10.096   0.570  0.00  0.00    -0.082 C 
ATOM     10  C   UNL     1       2.120  -8.695   0.915  0.00  0.00    -0.010 C 
ATOM     11  C   UNL     1       5.903  -6.439   3.123  0.00  0.00    +0.250 C 
ATOM     12  O   UNL     1       6.825  -7.227   3.052  0.00  0.00    -0.270 OA
ATOM     13  H   UNL     1       2.728 -11.921   1.473  0.00  0.00    -0.086 HD
ATOM     14  H   UNL     1       1.472 -10.990   1.988  0.00  0.00    -0.086 HD
ENDROOT
BRANCH  11  15
ATOM     15  C   UNL     1       6.054  -5.191   3.900  0.00  0.00    +0.074 A 
ATOM     16  C   UNL     1       5.441  -4.007   3.473  0.00  0.00    +0.017 A 
ATOM     17  C   UNL     1       5.614  -2.867   4.237  0.00  0.00    +0.021 A 
ATOM     18  C   UNL     1       6.379  -2.931   5.388  0.00  0.00    +0.112 A 
ATOM     19  N   UNL     1       6.945  -4.060   5.768  0.00  0.00    -0.243 NA
ATOM     20  C   UNL     1       6.806  -5.175   5.077  0.00  0.00    +0.141 A 
ATOM     21 CL   UNL     1       7.570  -6.631   5.631  0.00  0.00    -0.061 Cl
ENDBRANCH  11  15
BRANCH   1  23
ATOM     22  N   UNL     1      -0.052  -6.619   1.945  0.00  0.00    -0.308 N 
ATOM     23  C   UNL     1       1.227  -6.362   1.607  0.00  0.00    +0.219 C 
ATOM     24  O   UNL     1       1.478  -5.797   0.564  0.00  0.00    -0.275 OA
ATOM     25  H   UNL     1      -0.253  -7.071   2.779  0.00  0.00    +0.149 HD
BRANCH  22  26
ATOM     26  C   UNL     1      -1.140  -6.214   1.051  0.00  0.00    +0.100 C 
ATOM     27  C   UNL     1      -1.357  -7.294  -0.010  0.00  0.00    +0.033 C 
BRANCH  26  32
ATOM     28  C   UNL     1      -5.992  -5.522   4.112  0.00  0.00    +0.044 C 
ATOM     29  C   UNL     1      -4.727  -5.702   3.314  0.00  0.00    -0.050 A 
ATOM     30  C   UNL     1      -4.417  -4.816   2.300  0.00  0.00    +0.004 A 
ATOM     31  C   UNL     1      -3.256  -4.981   1.568  0.00  0.00    +0.006 A 
ATOM     32  C   UNL     1      -2.405  -6.033   1.850  0.00  0.00    -0.027 A 
ATOM     33  C   UNL     1      -2.715  -6.919   2.865  0.00  0.00    +0.006 A 
ATOM     34  C   UNL     1      -3.873  -6.752   3.599  0.00  0.00    +0.004 A 
ENDBRANCH  26  32
ENDBRANCH  22  26
ENDBRANCH   1  23
TORSDOF 4
