REMARK  Name = ZINC64450350
REMARK  4 active torsions:
REMARK  status: ('A' for Active; 'I' for Inactive)
REMARK    1  A    between atoms: C_1  and  C_2
REMARK    2  A    between atoms: C_4  and  C_23
REMARK    3  A    between atoms: N_12  and  C_14
REMARK    4  A    between atoms: C_26  and  C_29
REMARK                            x       y       z     vdW  Elec       q    Type
REMARK                         _______ _______ _______ _____ _____    ______ ____
ROOT
ATOM      1  C   UNL     1      -0.018   1.503   0.010  0.00  0.00    +0.062 C 
ATOM      2  C   UNL     1       0.002  -0.004   0.002  0.00  0.00    +0.019 C 
ATOM      3  C   UNL     1      -1.063  -0.754   0.003  0.00  0.00    -0.008 C 
ATOM      4  C   UNL     1      -2.521  -0.407   0.180  0.00  0.00    +0.058 C 
ATOM      5  C   UNL     1      -2.980  -1.128   1.456  0.00  0.00    +0.108 C 
ATOM      6  C   UNL     1      -2.354  -2.479   1.589  0.00  0.00    +0.215 C 
ATOM      7  O   UNL     1      -2.913  -3.257   2.332  0.00  0.00    -0.276 OA
ATOM      8  N   UNL     1      -1.253  -2.928   0.985  0.00  0.00    -0.295 N 
ATOM      9  C   UNL     1      -0.598  -2.198  -0.094  0.00  0.00    +0.194 C 
ATOM     10  N   UNL     1       0.858  -2.107   0.058  0.00  0.00    -0.164 NA
ATOM     11  N   UNL     1       1.157  -0.771  -0.014  0.00  0.00    -0.277 N 
ATOM     12  H   UNL     1      -0.874  -3.772   1.274  0.00  0.00    +0.151 HD
ATOM     13  H   UNL     1       2.056  -0.410  -0.066  0.00  0.00    +0.166 HD
ENDROOT
BRANCH  10  14
ATOM     14  C   UNL     1       1.546  -2.854  -1.003  0.00  0.00    +0.270 C 
ATOM     15  N   UNL     1       1.127  -2.359  -2.320  0.00  0.00    -0.350 N 
ATOM     16  C   UNL     1       0.574  -3.353  -2.953  0.00  0.00    +0.061 A 
ATOM     17  C   UNL     1      -0.029  -3.477  -4.287  0.00  0.00    +0.027 A 
ATOM     18  C   UNL     1      -0.536  -4.662  -4.681  0.00  0.00    +0.002 A 
ATOM     19  C   UNL     1      -0.514  -5.806  -3.862  0.00  0.00    +0.002 A 
ATOM     20  C   UNL     1       0.014  -5.801  -2.622  0.00  0.00    +0.027 A 
ATOM     21  C   UNL     1       0.597  -4.563  -2.086  0.00  0.00    +0.061 A 
ATOM     22  N   UNL     1       1.163  -4.270  -0.952  0.00  0.00    -0.350 N 
ATOM     23  H   UNL     1       1.241  -1.457  -2.658  0.00  0.00    +0.163 HD
ATOM     24  H   UNL     1       1.306  -4.877  -0.208  0.00  0.00    +0.163 HD
ENDBRANCH  10  14
BRANCH   4  25
ATOM     25  C   UNL     1      -3.316  -0.890  -1.005  0.00  0.00    -0.040 A 
ATOM     26  C   UNL     1      -3.341  -2.238  -1.315  0.00  0.00    +0.005 A 
ATOM     27  C   UNL     1      -4.066  -2.687  -2.399  0.00  0.00    +0.015 A 
ATOM     28  C   UNL     1      -4.777  -1.777  -3.185  0.00  0.00    +0.063 A 
ATOM     29  C   UNL     1      -4.748  -0.417  -2.866  0.00  0.00    +0.015 A 
ATOM     30  C   UNL     1      -4.022   0.017  -1.776  0.00  0.00    +0.005 A 
BRANCH  28  31
ATOM     31  C   UNL     1      -5.554  -2.250  -4.346  0.00  0.00    +0.387 C 
ATOM     32  O   UNL     1      -5.578  -3.441  -4.623  0.00  0.00    -0.241 OA
ATOM     33  O   UNL     1      -6.176  -1.450  -5.032  0.00  0.00    -0.241 OA
ENDBRANCH  28  31
ENDBRANCH   4  25
TORSDOF 3
