REMARK  Name = ZINC59444643
REMARK  8 active torsions:
REMARK  status: ('A' for Active; 'I' for Inactive)
REMARK    1  A    between atoms: C_4  and  C_7
REMARK    2  A    between atoms: C_7  and  C_8
REMARK    3  A    between atoms: C_8  and  N_9
REMARK    4  A    between atoms: N_9  and  C_10
REMARK    5  A    between atoms: N_9  and  S_22
REMARK    6  A    between atoms: C_10  and  C_11
REMARK    7  A    between atoms: N_13  and  N_14
REMARK    8  A    between atoms: S_22  and  C_25
REMARK                            x       y       z     vdW  Elec       q    Type
REMARK                         _______ _______ _______ _____ _____    ______ ____
ROOT
ATOM      1  N   UNL     1       5.267  -1.310   1.312  0.00  0.00    -0.167 NA
ENDROOT
BRANCH   1   2
ATOM      2  S   UNL     1       5.011  -2.931   1.535  0.00  0.00    +0.061 S 
ATOM      3  O   UNL     1       6.116  -3.418   2.283  0.00  0.00    -0.153 OA
ATOM      4  O   UNL     1       3.668  -3.073   1.979  0.00  0.00    -0.153 OA
BRANCH   2   5
ATOM      5  C   UNL     1       5.100  -3.695  -0.051  0.00  0.00    +0.106 A 
ATOM      6  C   UNL     1       3.959  -3.823  -0.821  0.00  0.00    +0.029 A 
ATOM      7  C   UNL     1       4.029  -4.422  -2.065  0.00  0.00    +0.017 A 
ATOM      8  C   UNL     1       5.240  -4.892  -2.539  0.00  0.00    +0.018 A 
ATOM      9  C   UNL     1       6.381  -4.763  -1.768  0.00  0.00    +0.017 A 
ATOM     10  C   UNL     1       6.312  -4.160  -0.527  0.00  0.00    +0.029 A 
ATOM     11 BR   UNL     1       5.336  -5.712  -4.241  0.00  0.00    -0.050 Br
ENDBRANCH   2   5
ENDBRANCH   1   2
BRANCH   1  12
ATOM     12  C   UNL     1       4.127  -0.398   1.194  0.00  0.00    +0.114 C 
BRANCH  12  13
ATOM     13  C   UNL     1       3.802  -0.178  -0.285  0.00  0.00    +0.052 C 
BRANCH  13  17
ATOM     14  C   UNL     1       0.477   2.482  -0.633  0.00  0.00    +0.000 A 
ATOM     15  C   UNL     1       1.765   2.985  -0.601  0.00  0.00    +0.000 A 
ATOM     16  C   UNL     1       2.840   2.124  -0.488  0.00  0.00    +0.003 A 
ATOM     17  C   UNL     1       2.629   0.761  -0.407  0.00  0.00    -0.046 A 
ATOM     18  C   UNL     1       1.342   0.258  -0.438  0.00  0.00    +0.003 A 
ATOM     19  C   UNL     1       0.266   1.119  -0.552  0.00  0.00    +0.000 A 
ENDBRANCH  13  17
ENDBRANCH  12  13
ENDBRANCH   1  12
BRANCH   1  20
ATOM     20  C   UNL     1       6.633  -0.789   1.235  0.00  0.00    +0.206 C 
BRANCH  20  21
ATOM     21  C   UNL     1       7.064  -0.304   2.595  0.00  0.00    +0.248 C 
ATOM     22  O   UNL     1       6.305  -0.387   3.537  0.00  0.00    -0.273 OA
ATOM     23  N   UNL     1       8.294   0.221   2.765  0.00  0.00    -0.206 N 
ATOM     24  H   UNL     1       8.902   0.287   2.012  0.00  0.00    +0.177 HD
BRANCH  23  25
ATOM     25  N   UNL     1       8.695   0.671   4.030  0.00  0.00    -0.189 NA
ATOM     26  C   UNL     1       9.821   1.262   4.172  0.00  0.00    +0.037 C 
ATOM     27  C   UNL     1      10.668   1.610   2.951  0.00  0.00    +0.052 C 
ATOM     28  C   UNL     1      11.320   2.957   3.110  0.00  0.00    +0.006 C 
ATOM     29  C   UNL     1      12.683   2.801   3.797  0.00  0.00    +0.000 C 
ATOM     30  C   UNL     1      12.570   2.668   5.252  0.00  0.00    +0.000 C 
ATOM     31  C   UNL     1      11.814   1.400   5.673  0.00  0.00    +0.006 C 
ATOM     32  C   UNL     1      10.328   1.632   5.562  0.00  0.00    +0.052 C 
ENDBRANCH  23  25
ENDBRANCH  20  21
ENDBRANCH   1  20
TORSDOF 8
