REMARK  Name = ZINC09076119
REMARK  9 active torsions:
REMARK  status: ('A' for Active; 'I' for Inactive)
REMARK    1  A    between atoms: C_1  and  C_2
REMARK    2  A    between atoms: C_2  and  C_29
REMARK    3  A    between atoms: N_3  and  N_4
REMARK    4  A    between atoms: C_5  and  C_7
REMARK    5  A    between atoms: C_7  and  S_8
REMARK    6  A    between atoms: S_8  and  C_9
REMARK    7  A    between atoms: N_22  and  C_23
REMARK    8  A    between atoms: C_32  and  O_35
REMARK    9  A    between atoms: O_35  and  C_36
REMARK                            x       y       z     vdW  Elec       q    Type
REMARK                         _______ _______ _______ _____ _____    ______ ____
ROOT
ATOM      1  C   UNL     1      -5.642   0.699  -3.720  0.00  0.00    +0.178 A 
ATOM      2  N   UNL     1      -5.651  -0.590  -3.445  0.00  0.00    -0.215 NA
ATOM      3  C   UNL     1      -6.154  -1.466  -4.306  0.00  0.00    +0.117 A 
ATOM      4  C   UNL     1      -6.685  -1.075  -5.547  0.00  0.00    +0.076 A 
ATOM      5  C   UNL     1      -7.197  -2.155  -6.393  0.00  0.00    -0.023 A 
ATOM      6  C   UNL     1      -7.109  -3.408  -5.904  0.00  0.00    -0.004 A 
ATOM      7  S   UNL     1      -6.351  -3.230  -4.312  0.00  0.00    -0.073 S 
ATOM      8  C   UNL     1      -7.557  -4.675  -6.568  0.00  0.00    +0.043 C 
ATOM      9  C   UNL     1      -8.476  -4.307  -7.742  0.00  0.00    +0.005 C 
ATOM     10  C   UNL     1      -7.806  -3.201  -8.562  0.00  0.00    +0.005 C 
ATOM     11  C   UNL     1      -7.804  -1.894  -7.768  0.00  0.00    +0.037 C 
ATOM     12  C   UNL     1      -6.657   0.329  -5.822  0.00  0.00    +0.268 A 
ATOM     13  O   UNL     1      -7.098   0.761  -6.874  0.00  0.00    -0.267 OA
ATOM     14  N   UNL     1      -6.139   1.166  -4.905  0.00  0.00    -0.255 N 
ENDROOT
BRANCH  14  15
ATOM     15  C   UNL     1      -6.109   2.542  -5.168  0.00  0.00    +0.052 A 
ATOM     16  C   UNL     1      -7.152   3.354  -4.745  0.00  0.00    +0.026 A 
ATOM     17  C   UNL     1      -7.117   4.711  -5.002  0.00  0.00    +0.002 A 
ATOM     18  C   UNL     1      -6.049   5.258  -5.689  0.00  0.00    +0.000 A 
ATOM     19  C   UNL     1      -5.011   4.451  -6.117  0.00  0.00    +0.002 A 
ATOM     20  C   UNL     1      -5.038   3.094  -5.858  0.00  0.00    +0.026 A 
ENDBRANCH  14  15
BRANCH   1  21
ATOM     21  S   UNL     1      -4.973   1.833  -2.550  0.00  0.00    -0.078 S 
BRANCH  21  22
ATOM     22  C   UNL     1      -4.492   0.684  -1.237  0.00  0.00    +0.174 C 
BRANCH  22  24
ATOM     23  N   UNL     1      -3.441   0.800   0.999  0.00  0.00    -0.206 N 
ATOM     24  C   UNL     1      -3.877   1.453  -0.097  0.00  0.00    +0.242 C 
ATOM     25  O   UNL     1      -3.774   2.660  -0.164  0.00  0.00    -0.273 OA
ATOM     26  H   UNL     1      -3.523  -0.165   1.053  0.00  0.00    +0.177 HD
BRANCH  23  29
ATOM     27  C   UNL     1      -1.860   1.643   4.268  0.00  0.00    +0.068 C 
ATOM     28  C   UNL     1      -2.347   0.879   3.063  0.00  0.00    +0.063 C 
ATOM     29  N   UNL     1      -2.864   1.515   2.057  0.00  0.00    -0.185 NA
BRANCH  28  30
ATOM     30  C   UNL     1      -2.235  -0.591   3.029  0.00  0.00    -0.002 A 
ATOM     31  C   UNL     1      -2.521  -1.342   4.171  0.00  0.00    +0.013 A 
ATOM     32  C   UNL     1      -2.420  -2.716   4.133  0.00  0.00    +0.046 A 
ATOM     33  C   UNL     1      -2.025  -3.353   2.963  0.00  0.00    +0.120 A 
ATOM     34  C   UNL     1      -1.734  -2.609   1.826  0.00  0.00    +0.046 A 
ATOM     35  C   UNL     1      -1.838  -1.235   1.854  0.00  0.00    +0.013 A 
BRANCH  33  36
ATOM     36  O   UNL     1      -1.921  -4.707   2.931  0.00  0.00    -0.495 OA
ATOM     37  C   UNL     1      -2.235  -5.410   4.135  0.00  0.00    +0.277 C 
ENDBRANCH  33  36
ENDBRANCH  28  30
ENDBRANCH  23  29
ENDBRANCH  22  24
ENDBRANCH  21  22
ENDBRANCH   1  21
TORSDOF 7
