REMARK  Name = ZINC08984194
REMARK  15 active torsions:
REMARK  status: ('A' for Active; 'I' for Inactive)
REMARK    1  A    between atoms: C_1  and  C_2
REMARK    2  A    between atoms: C_2  and  C_3
REMARK    3  A    between atoms: C_3  and  C_4
REMARK    4  A    between atoms: C_10  and  C_11
REMARK    5  A    between atoms: C_14  and  O_20
REMARK    6  A    between atoms: C_15  and  O_17
REMARK    7  A    between atoms: O_17  and  C_18
REMARK    8  A    between atoms: C_18  and  C_19
REMARK    9  A    between atoms: O_20  and  C_21
REMARK   10  A    between atoms: C_21  and  C_22
REMARK   11  A    between atoms: C_22  and  O_23
REMARK   12  A    between atoms: O_23  and  C_24
REMARK   13  A    between atoms: C_26  and  C_32
REMARK   14  A    between atoms: C_28  and  C_30
REMARK   15  A    between atoms: C_30  and  C_31
REMARK                            x       y       z     vdW  Elec       q    Type
REMARK                         _______ _______ _______ _____ _____    ______ ____
ROOT
ATOM      1  C   UNL     1       6.444   6.796   7.999  0.00  0.00    -0.021 A 
ATOM      2  C   UNL     1       7.112   5.796   7.277  0.00  0.00    +0.012 A 
ATOM      3  C   UNL     1       6.390   4.847   6.589  0.00  0.00    +0.050 A 
ATOM      4  C   UNL     1       5.001   4.877   6.607  0.00  0.00    +0.162 A 
ATOM      5  C   UNL     1       4.329   5.871   7.318  0.00  0.00    +0.162 A 
ATOM      6  C   UNL     1       5.042   6.824   8.015  0.00  0.00    +0.057 A 
ENDROOT
BRANCH   1  13
ATOM      7  C   UNL     1      12.139   4.598   9.316  0.00  0.00    +0.100 C 
ATOM      8  N   UNL     1      10.842   4.679   9.243  0.00  0.00    -0.169 NA
ATOM      9  N   UNL     1      10.180   5.851   9.539  0.00  0.00    -0.152 N 
ATOM     10  C   UNL     1       8.779   6.029   9.537  0.00  0.00    +0.152 C 
ATOM     11  N   UNL     1       7.931   5.042   9.652  0.00  0.00    -0.283 NA
ATOM     12  C   UNL     1       8.362   7.453   9.394  0.00  0.00    +0.081 C 
ATOM     13  C   UNL     1       7.208   7.807   8.732  0.00  0.00    +0.024 C 
ATOM     14  C   UNL     1       9.262   8.468   9.996  0.00  0.00    +0.273 C 
ATOM     15  O   UNL     1       8.836   9.556  10.349  0.00  0.00    -0.268 OA
ATOM     16  N   UNL     1      10.561   8.154  10.148  0.00  0.00    -0.152 NA
ATOM     17  C   UNL     1      10.959   6.934   9.883  0.00  0.00    +0.181 C 
ATOM     18  S   UNL     1      12.594   6.250   9.825  0.00  0.00    -0.038 S 
ATOM     19  H   UNL     1       8.252   4.146   9.841  0.00  0.00    +0.188 HD
BRANCH   7  20
ATOM     20  C   UNL     1      13.030   3.413   9.043  0.00  0.00    +0.064 C 
BRANCH  20  22
ATOM     21  C   UNL     1      13.077   1.012   8.357  0.00  0.00    +0.004 C 
ATOM     22  C   UNL     1      12.172   2.214   8.634  0.00  0.00    +0.003 C 
ENDBRANCH  20  22
ENDBRANCH   7  20
ENDBRANCH   1  13
BRANCH   5  23
ATOM     23  O   UNL     1       2.969   5.898   7.327  0.00  0.00    -0.489 OA
BRANCH  23  24
ATOM     24  C   UNL     1       2.346   6.944   8.076  0.00  0.00    +0.226 C 
ATOM     25  C   UNL     1       0.826   6.811   7.970  0.00  0.00    +0.048 C 
ENDBRANCH  23  24
ENDBRANCH   5  23
BRANCH   4  26
ATOM     26  O   UNL     1       4.296   3.938   5.925  0.00  0.00    -0.485 OA
BRANCH  26  27
ATOM     27  C   UNL     1       5.047   2.952   5.213  0.00  0.00    +0.270 C 
BRANCH  27  28
ATOM     28  C   UNL     1       4.088   1.988   4.513  0.00  0.00    +0.270 C 
BRANCH  28  29
ATOM     29  O   UNL     1       3.348   2.693   3.514  0.00  0.00    -0.489 OA
BRANCH  29  30
ATOM     30  C   UNL     1       2.445   1.977   2.794  0.00  0.00    +0.121 A 
ATOM     31  C   UNL     1       2.275   0.622   3.043  0.00  0.00    +0.049 A 
ATOM     32  C   UNL     1       1.357  -0.104   2.310  0.00  0.00    -0.047 A 
ATOM     33  C   UNL     1       0.604   0.519   1.332  0.00  0.00    +0.007 A 
ATOM     34  C   UNL     1       0.775   1.867   1.078  0.00  0.00    -0.044 A 
ATOM     35  C   UNL     1       1.692   2.598   1.809  0.00  0.00    +0.049 A 
ATOM     36  C   UNL     1       1.171  -1.575   2.580  0.00  0.00    +0.044 C 
BRANCH  34  37
ATOM     37  C   UNL     1      -0.043   2.542   0.007  0.00  0.00    +0.032 C 
ATOM     38  C   UNL     1       0.700   2.463  -1.328  0.00  0.00    +0.009 C 
ENDBRANCH  34  37
ENDBRANCH  29  30
ENDBRANCH  28  29
ENDBRANCH  27  28
ENDBRANCH  26  27
ENDBRANCH   4  26
TORSDOF 11
