REMARK  Name = ZINC05164040
REMARK  4 active torsions:
REMARK  status: ('A' for Active; 'I' for Inactive)
REMARK    1  A    between atoms: C_1  and  C_2
REMARK    2  A    between atoms: C_5  and  C_8
REMARK    3  A    between atoms: C_15  and  N_29
REMARK    4  A    between atoms: C_16  and  C_27
REMARK                            x       y       z     vdW  Elec       q    Type
REMARK                         _______ _______ _______ _____ _____    ______ ____
ROOT
ATOM      1  C   UNL     1       0.061  -4.256  -0.021  0.00  0.00    +0.101 A 
ATOM      2  C   UNL     1       0.798  -5.073   0.840  0.00  0.00    +0.066 A 
ATOM      3  C   UNL     1       0.543  -6.374   0.510  0.00  0.00    +0.224 A 
ATOM      4  N   UNL     1      -0.324  -6.372  -0.523  0.00  0.00    -0.246 N 
ATOM      5  H   UNL     1      -0.684  -7.156  -0.967  0.00  0.00    +0.192 HD
ATOM      6  N   UNL     1      -0.619  -5.037  -0.839  0.00  0.00    -0.171 NA
ATOM      7  O   UNL     1       1.110  -7.418   1.165  0.00  0.00    -0.423 OA
ATOM      8  C   UNL     1       1.736  -7.168   2.332  0.00  0.00    +0.201 C 
ATOM      9  C   UNL     1       2.054  -5.924   2.761  0.00  0.00    +0.110 C 
ATOM     10  C   UNL     1       1.731  -4.696   1.956  0.00  0.00    +0.145 C 
ATOM     11  C   UNL     1       2.972  -4.047   1.431  0.00  0.00    -0.002 A 
ATOM     12  C   UNL     1       3.958  -4.508   0.586  0.00  0.00    +0.007 A 
ATOM     13  C   UNL     1       4.997  -3.632   0.291  0.00  0.00    +0.000 A 
ATOM     14  C   UNL     1       5.037  -2.359   0.823  0.00  0.00    +0.002 A 
ATOM     15  C   UNL     1       4.049  -1.889   1.675  0.00  0.00    +0.023 A 
ATOM     16  C   UNL     1       3.001  -2.758   1.979  0.00  0.00    +0.038 A 
ATOM     17  N   UNL     1       1.898  -2.556   2.790  0.00  0.00    -0.284 N 
ATOM     18  C   UNL     1       1.098  -3.642   2.837  0.00  0.00    +0.238 C 
ATOM     19  O   UNL     1       0.066  -3.751   3.466  0.00  0.00    -0.274 OA
ATOM     20  H   UNL     1       1.721  -1.730   3.268  0.00  0.00    +0.155 HD
ENDROOT
BRANCH   1  25
ATOM     21  C   UNL     1      -0.017   1.503   0.011  0.00  0.00    +0.044 C 
ATOM     22  C   UNL     1       0.003  -0.004   0.003  0.00  0.00    -0.050 A 
ATOM     23  C   UNL     1      -1.187  -0.709   0.015  0.00  0.00    +0.004 A 
ATOM     24  C   UNL     1      -1.174  -2.090   0.008  0.00  0.00    +0.010 A 
ATOM     25  C   UNL     1       0.041  -2.772  -0.013  0.00  0.00    +0.003 A 
ATOM     26  C   UNL     1       1.236  -2.057  -0.026  0.00  0.00    +0.010 A 
ATOM     27  C   UNL     1       1.211  -0.677  -0.023  0.00  0.00    +0.004 A 
ENDBRANCH   1  25
BRANCH   8  28
ATOM     28  N   UNL     1       2.069  -8.234   3.131  0.00  0.00    -0.328 N 
ATOM     29  H   UNL     1       1.853  -9.136   2.849  0.00  0.00    +0.145 HD
ATOM     30  H   UNL     1       2.520  -8.084   3.976  0.00  0.00    +0.145 HD
ENDBRANCH   8  28
BRANCH   9  31
ATOM     31  C   UNL     1       2.718  -5.773   4.021  0.00  0.00    +0.102 C 
ATOM     32  N   UNL     1       3.245  -5.653   5.020  0.00  0.00    -0.191 NA
ENDBRANCH   9  31
TORSDOF 3
