REMARK  Name = ZINC31057723
REMARK  9 active torsions:
REMARK  status: ('A' for Active; 'I' for Inactive)
REMARK    1  A    between atoms: C_1  and  C_2
REMARK    2  A    between atoms: N_5  and  C_8
REMARK    3  A    between atoms: C_11  and  C_14
REMARK    4  A    between atoms: C_14  and  C_16
REMARK    5  A    between atoms: C_14  and  N_17
REMARK    6  A    between atoms: C_18  and  C_20
REMARK    7  A    between atoms: N_25  and  C_27
REMARK    8  A    between atoms: C_27  and  C_28
REMARK    9  A    between atoms: C_30  and  C_33
REMARK                            x       y       z     vdW  Elec       q    Type
REMARK                         _______ _______ _______ _____ _____    ______ ____
ROOT
ATOM      1  N   UNL     1      -0.698   1.558   1.213  0.00  0.00    -0.309 N 
ATOM      2  C   UNL     1      -1.741   0.865   1.711  0.00  0.00    +0.215 C 
ATOM      3  O   UNL     1      -2.112  -0.151   1.161  0.00  0.00    -0.276 OA
ATOM      4  H   UNL     1      -0.362   2.479   1.712  0.00  0.00    +0.149 HD
ENDROOT
BRANCH   2   5
ATOM      5  C   UNL     1      -2.447   1.351   2.951  0.00  0.00    +0.058 C 
ATOM      6  C   UNL     1      -3.019   2.748   2.699  0.00  0.00    +0.009 C 
ATOM      7  C   UNL     1      -3.785   3.209   3.942  0.00  0.00    -0.018 C 
ATOM      8  C   UNL     1      -4.888   2.197   4.261  0.00  0.00    -0.078 C 
ATOM      9  N   UNL     1      -4.289   0.876   4.495  0.00  0.00    +0.386 N 
ATOM     10  C   UNL     1      -3.588   0.392   3.299  0.00  0.00    -0.065 C 
ATOM     11  H   UNL     1      -3.546   0.983   5.298  0.00  0.00    -0.081 HD
BRANCH   9  12
ATOM     12  C   UNL     1      -5.302  -0.090   4.939  0.00  0.00    +0.022 C 
BRANCH  12  13
ATOM     13  C   UNL     1      -6.285  -0.335   3.823  0.00  0.00    +0.211 A 
ATOM     14  N   UNL     1      -6.191  -1.249   2.891  0.00  0.00    -0.192 NA
ATOM     15  C   UNL     1      -7.293  -1.097   2.119  0.00  0.00    +0.209 A 
ATOM     16  N   UNL     1      -7.981  -0.101   2.622  0.00  0.00    -0.056 NA
ATOM     17  O   UNL     1      -7.415   0.344   3.598  0.00  0.00    -0.340 OA
BRANCH  15  18
ATOM     18  C   UNL     1      -7.651  -1.899   0.931  0.00  0.00    +0.060 A 
ATOM     19  C   UNL     1      -8.746  -1.792   0.116  0.00  0.00    +0.019 A 
ATOM     20  C   UNL     1      -8.866  -2.658  -0.947  0.00  0.00    +0.008 A 
ATOM     21  C   UNL     1      -7.904  -3.596  -1.149  0.00  0.00    +0.046 A 
ATOM     22  S   UNL     1      -6.771  -3.264   0.190  0.00  0.00    -0.093 S 
ENDBRANCH  15  18
ENDBRANCH  12  13
ENDBRANCH   9  12
ENDBRANCH   2   5
BRANCH   1  23
ATOM     23  C   UNL     1      -0.013   1.086   0.008  0.00  0.00    +0.100 C 
ATOM     24  C   UNL     1      -0.753   1.593  -1.232  0.00  0.00    +0.033 C 
BRANCH  23  28
ATOM     25  C   UNL     1       3.997   2.565  -0.022  0.00  0.00    +0.030 A 
ATOM     26  C   UNL     1       3.731   1.267  -0.438  0.00  0.00    +0.023 A 
ATOM     27  C   UNL     1       2.434   0.792  -0.427  0.00  0.00    +0.007 A 
ATOM     28  C   UNL     1       1.401   1.607  -0.003  0.00  0.00    -0.027 A 
ATOM     29  C   UNL     1       1.662   2.902   0.406  0.00  0.00    +0.007 A 
ATOM     30  C   UNL     1       2.957   3.382   0.403  0.00  0.00    +0.023 A 
BRANCH  25  35
ATOM     31  C   UNL     1       8.966   5.157  -0.695  0.00  0.00    +0.007 C 
ATOM     32  C   UNL     1       7.491   4.769  -0.815  0.00  0.00    -0.011 C 
ATOM     33  C   UNL     1       6.819   4.884   0.557  0.00  0.00    +0.022 C 
ATOM     34  C   UNL     1       5.360   4.437   0.443  0.00  0.00    +0.105 C 
ATOM     35  N   UNL     1       5.307   3.049  -0.033  0.00  0.00    -0.330 N 
ATOM     36  C   UNL     1       5.904   2.922  -1.368  0.00  0.00    +0.105 C 
ATOM     37  C   UNL     1       7.380   3.324  -1.309  0.00  0.00    +0.022 C 
ENDBRANCH  25  35
ENDBRANCH  23  28
ENDBRANCH   1  23
TORSDOF 7
