REMARK  Name = ZINC13500519
REMARK  13 active torsions:
REMARK  status: ('A' for Active; 'I' for Inactive)
REMARK    1  A    between atoms: C_1  and  C_2
REMARK    2  A    between atoms: C_7  and  C_8
REMARK    3  A    between atoms: C_8  and  C_9
REMARK    4  A    between atoms: C_9  and  N_10
REMARK    5  A    between atoms: N_10  and  C_11
REMARK    6  A    between atoms: N_10  and  C_25
REMARK    7  A    between atoms: C_11  and  C_12
REMARK    8  A    between atoms: C_18  and  C_24
REMARK    9  A    between atoms: C_25  and  C_27
REMARK   10  A    between atoms: C_25  and  C_37
REMARK   11  A    between atoms: N_31  and  C_32
REMARK   12  A    between atoms: C_37  and  C_38
REMARK   13  A    between atoms: C_37  and  C_39
REMARK                            x       y       z     vdW  Elec       q    Type
REMARK                         _______ _______ _______ _____ _____    ______ ____
ROOT
ATOM      1  N   UNL     1       1.667  -3.531   5.774  0.00  0.00    -0.288 NA
ENDROOT
BRANCH   1   2
ATOM      2  C   UNL     1       2.153  -4.835   5.301  0.00  0.00    +0.090 C 
BRANCH   2   3
ATOM      3  C   UNL     1       3.530  -5.116   5.906  0.00  0.00    +0.051 C 
BRANCH   3  10
ATOM      4  C   UNL     1       4.937  -5.150   3.383  0.00  0.00    +0.044 C 
ATOM      5  C   UNL     1       4.737  -6.431   4.151  0.00  0.00    -0.047 A 
ATOM      6  C   UNL     1       5.227  -7.622   3.649  0.00  0.00    +0.003 A 
ATOM      7  C   UNL     1       5.043  -8.796   4.354  0.00  0.00    +0.000 A 
ATOM      8  C   UNL     1       4.370  -8.780   5.561  0.00  0.00    +0.000 A 
ATOM      9  C   UNL     1       3.884  -7.588   6.065  0.00  0.00    +0.004 A 
ATOM     10  C   UNL     1       4.063  -6.414   5.358  0.00  0.00    -0.043 A 
ENDBRANCH   3  10
ENDBRANCH   2   3
ENDBRANCH   1   2
BRANCH   1  11
ATOM     11  C   UNL     1       0.559  -3.048   4.939  0.00  0.00    +0.125 C 
BRANCH  11  12
ATOM     12  C   UNL     1       1.090  -2.635   3.590  0.00  0.00    +0.031 A 
ATOM     13  C   UNL     1       1.060  -3.511   2.555  0.00  0.00    +0.020 A 
ATOM     14  C   UNL     1       1.583  -3.079   1.258  0.00  0.00    -0.001 A 
ATOM     15  C   UNL     1       1.580  -3.938   0.154  0.00  0.00    +0.010 A 
ATOM     16  C   UNL     1       2.075  -3.504  -1.043  0.00  0.00    +0.001 A 
ATOM     17  C   UNL     1       2.576  -2.216  -1.175  0.00  0.00    +0.005 A 
ATOM     18  C   UNL     1       2.595  -1.355  -0.100  0.00  0.00    -0.026 A 
ATOM     19  C   UNL     1       2.096  -1.774   1.129  0.00  0.00    +0.052 A 
ATOM     20  N   UNL     1       2.097  -0.932   2.221  0.00  0.00    -0.322 N 
ATOM     21  H   UNL     1       2.497   0.088   2.127  0.00  0.00    +0.169 HD
ATOM     22  C   UNL     1       1.615  -1.338   3.408  0.00  0.00    +0.254 A 
ATOM     23  O   UNL     1       1.631  -0.566   4.351  0.00  0.00    -0.268 OA
ATOM     24  C   UNL     1       3.147   0.038  -0.256  0.00  0.00    +0.046 C 
ENDBRANCH  11  12
ENDBRANCH   1  11
BRANCH   1  25
ATOM     25  C   UNL     1       1.271  -3.598   7.187  0.00  0.00    +0.129 C 
BRANCH  25  26
ATOM     26  C   UNL     1      -0.036  -4.339   7.308  0.00  0.00    +0.169 A 
ATOM     27  N   UNL     1      -1.141  -4.089   6.648  0.00  0.00    -0.112 NA
ATOM     28  N   UNL     1      -2.032  -4.938   7.029  0.00  0.00    -0.023 NA
ATOM     29  N   UNL     1      -1.524  -5.723   7.915  0.00  0.00    -0.044 NA
ATOM     30  N   UNL     1      -0.293  -5.389   8.110  0.00  0.00    -0.225 N 
BRANCH  30  31
ATOM     31  C   UNL     1       0.646  -6.029   9.033  0.00  0.00    +0.111 C 
ATOM     32  C   UNL     1       0.790  -7.526   8.687  0.00  0.00    +0.027 C 
ATOM     33  C   UNL     1       0.917  -8.223  10.065  0.00  0.00    +0.002 C 
ATOM     34  C   UNL     1      -0.066  -7.417  10.949  0.00  0.00    +0.002 C 
ATOM     35  C   UNL     1       0.102  -5.960  10.471  0.00  0.00    +0.027 C 
ENDBRANCH  30  31
ENDBRANCH  25  26
BRANCH  25  36
ATOM     36  C   UNL     1       1.106  -2.180   7.738  0.00  0.00    +0.008 C 
ATOM     37  C   UNL     1       0.770  -2.248   9.229  0.00  0.00    +0.009 C 
ATOM     38  C   UNL     1       2.410  -1.403   7.544  0.00  0.00    +0.009 C 
ENDBRANCH  25  36
ENDBRANCH   1  25
TORSDOF 9
