REMARK  Name = ZINC08469815
REMARK  10 active torsions:
REMARK  status: ('A' for Active; 'I' for Inactive)
REMARK    1  A    between atoms: C_1  and  O_2
REMARK    2  A    between atoms: O_2  and  C_3
REMARK    3  A    between atoms: C_5  and  C_12
REMARK    4  A    between atoms: C_8  and  O_9
REMARK    5  A    between atoms: O_9  and  C_10
REMARK    6  A    between atoms: C_12  and  N_41
REMARK    7  A    between atoms: C_13  and  C_14
REMARK    8  A    between atoms: C_13  and  N_41
REMARK    9  A    between atoms: C_14  and  N_15
REMARK   10  A    between atoms: C_16  and  C_18
REMARK                            x       y       z     vdW  Elec       q    Type
REMARK                         _______ _______ _______ _____ _____    ______ ____
ROOT
ATOM      1  N   UNL     1      -0.820   6.336  -1.492  0.00  0.00    +0.383 N 
ATOM      2  H   UNL     1      -1.631   6.775  -1.041  0.00  0.00    -0.085 HD
ATOM      3  H   UNL     1      -1.110   5.457  -1.937  0.00  0.00    -0.085 HD
ENDROOT
BRANCH   1   4
ATOM      4  C   UNL     1       0.208   6.050  -0.474  0.00  0.00    -0.047 C 
BRANCH   4   7
ATOM      5  C   UNL     1      -0.787   2.893   1.346  0.00  0.00    +0.163 A 
ATOM      6  C   UNL     1      -0.259   3.751   0.395  0.00  0.00    +0.051 A 
ATOM      7  C   UNL     1      -0.367   5.119   0.561  0.00  0.00    -0.060 A 
ATOM      8  C   UNL     1      -1.002   5.635   1.676  0.00  0.00    +0.021 A 
ATOM      9  C   UNL     1      -1.532   4.784   2.629  0.00  0.00    +0.063 A 
ATOM     10  C   UNL     1      -1.431   3.411   2.465  0.00  0.00    +0.175 A 
ATOM     11 BR   UNL     1      -2.399   5.494   4.152  0.00  0.00    -0.046 Br
BRANCH   5  13
ATOM     12  C   UNL     1      -0.013   1.086   0.008  0.00  0.00    +0.277 C 
ATOM     13  O   UNL     1      -0.682   1.547   1.184  0.00  0.00    -0.491 OA
ENDBRANCH   5  13
BRANCH  10  14
ATOM     14  O   UNL     1      -1.956   2.573   3.399  0.00  0.00    -0.490 OA
ATOM     15  C   UNL     1      -1.101   2.184   4.476  0.00  0.00    +0.277 C 
ENDBRANCH  10  14
ENDBRANCH   4   7
ENDBRANCH   1   4
BRANCH   1  16
ATOM     16  C   UNL     1      -0.283   7.247  -2.521  0.00  0.00    -0.063 C 
BRANCH  16  17
ATOM     17  C   UNL     1      -1.370   7.525  -3.561  0.00  0.00    +0.085 C 
BRANCH  17  18
ATOM     18  N   UNL     1      -0.845   8.430  -4.587  0.00  0.00    -0.312 N 
ATOM     19  C   UNL     1      -1.631   8.816  -5.611  0.00  0.00    +0.269 C 
ATOM     20  O   UNL     1      -2.775   8.414  -5.684  0.00  0.00    -0.268 OA
ATOM     21  H   UNL     1       0.069   8.750  -4.529  0.00  0.00    +0.149 HD
BRANCH  19  22
ATOM     22  C   UNL     1      -1.099   9.730  -6.648  0.00  0.00    +0.209 A 
ATOM     23  C   UNL     1      -1.784  10.273  -7.844  0.00  0.00    +0.192 A 
ATOM     24  N   UNL     1      -0.851  11.015  -8.394  0.00  0.00    -0.033 NA
ATOM     25  O   UNL     1       0.155  10.958  -7.727  0.00  0.00    -0.240 OA
ATOM     26  N   UNL     1       0.098  10.269  -6.736  0.00  0.00    -0.042 NA
ATOM     27  N   UNL     1      -3.085  10.053  -8.275  0.00  0.00    -0.339 N 
ATOM     28  H   UNL     1      -3.673   9.474  -7.764  0.00  0.00    +0.144 HD
ATOM     29  H   UNL     1      -3.405  10.477  -9.085  0.00  0.00    +0.144 HD
ENDBRANCH  19  22
ENDBRANCH  17  18
ENDBRANCH  16  17
ENDBRANCH   1  16
TORSDOF 8
