REMARK  Name = ZINC21986506
REMARK  5 active torsions:
REMARK  status: ('A' for Active; 'I' for Inactive)
REMARK    1  A    between atoms: N_9  and  C_10
REMARK    2  A    between atoms: C_13  and  C_21
REMARK    3  A    between atoms: C_15  and  O_20
REMARK    4  A    between atoms: C_17  and  O_19
REMARK    5  A    between atoms: C_21  and  O_22
REMARK                            x       y       z     vdW  Elec       q    Type
REMARK                         _______ _______ _______ _____ _____    ______ ____
ROOT
ATOM      1  C   UNL     1      -0.798  -0.559   2.530  0.00  0.00    +0.202 A 
ATOM      2  N   UNL     1      -0.436  -0.985   3.705  0.00  0.00    -0.231 NA
ATOM      3  C   UNL     1       0.081   0.045   4.419  0.00  0.00    +0.147 A 
ATOM      4  C   UNL     1       0.614   0.181   5.712  0.00  0.00    +0.150 A 
ATOM      5  N   UNL     1       1.043   1.378   6.098  0.00  0.00    -0.185 NA
ATOM      6  C   UNL     1       0.973   2.424   5.291  0.00  0.00    +0.313 A 
ATOM      7  N   UNL     1       0.480   2.342   4.071  0.00  0.00    -0.182 NA
ATOM      8  C   UNL     1       0.028   1.184   3.599  0.00  0.00    +0.168 A 
ATOM      9  N   UNL     1      -0.528   0.772   2.414  0.00  0.00    -0.309 N 
ATOM     10  F   UNL     1       1.423   3.618   5.732  0.00  0.00    -0.161 F 
ATOM     11  N   UNL     1       0.692  -0.907   6.564  0.00  0.00    -0.341 N 
ATOM     12  H   UNL     1       1.112  -0.787   7.573  0.00  0.00    +0.144 HD
ATOM     13  H   UNL     1       0.333  -1.892   6.231  0.00  0.00    +0.144 HD
ENDROOT
BRANCH   9  14
ATOM     14  C   UNL     1      -0.789   1.611   1.242  0.00  0.00    +0.122 C 
ATOM     15  C   UNL     1      -0.013   1.086   0.008  0.00  0.00    +0.036 C 
ATOM     16  C   UNL     1      -0.809   1.622  -1.200  0.00  0.00    +0.048 C 
ATOM     17  C   UNL     1      -2.243   1.875  -0.703  0.00  0.00    +0.150 C 
ATOM     18  C   UNL     1      -2.268   1.485   0.789  0.00  0.00    +0.166 C 
BRANCH  18  19
ATOM     19  O   UNL     1      -3.095   2.386   1.528  0.00  0.00    -0.387 OA
ATOM     20  H   UNL     1      -4.177   2.426   1.332  0.00  0.00    +0.210 HD
ENDBRANCH  18  19
BRANCH  17  21
ATOM     21  O   UNL     1      -3.165   1.067  -1.437  0.00  0.00    -0.389 OA
ATOM     22  H   UNL     1      -4.241   1.119  -1.213  0.00  0.00    +0.210 HD
ENDBRANCH  17  21
BRANCH  16  23
ATOM     23  C   UNL     1      -0.188   2.927  -1.700  0.00  0.00    +0.162 C 
BRANCH  23  24
ATOM     24  O   UNL     1      -0.861   3.352  -2.886  0.00  0.00    -0.395 OA
ATOM     25  H   UNL     1      -0.551   4.277  -3.394  0.00  0.00    +0.209 HD
ENDBRANCH  23  24
ENDBRANCH  16  23
ENDBRANCH   9  14
TORSDOF 5
