REMARK  Name = ZINC35636155
REMARK  11 active torsions:
REMARK  status: ('A' for Active; 'I' for Inactive)
REMARK    1  A    between atoms: C_1  and  C_2
REMARK    2  A    between atoms: C_2  and  N_3
REMARK    3  A    between atoms: C_6  and  C_11
REMARK    4  A    between atoms: C_14  and  C_17
REMARK    5  A    between atoms: N_20  and  C_22
REMARK    6  A    between atoms: C_22  and  C_24
REMARK    7  A    between atoms: C_22  and  C_28
REMARK    8  A    between atoms: C_24  and  C_25
REMARK    9  A    between atoms: C_25  and  C_26
REMARK   10  A    between atoms: C_25  and  C_27
REMARK   11  A    between atoms: N_30  and  C_31
REMARK                            x       y       z     vdW  Elec       q    Type
REMARK                         _______ _______ _______ _____ _____    ______ ____
ROOT
ATOM      1  N   UNL     1       0.704  -1.284  -0.875  0.00  0.00    -0.257 N 
ATOM      2  C   UNL     1       0.080  -1.487  -2.072  0.00  0.00    +0.042 C 
ATOM      3  C   UNL     1       0.565  -2.366  -2.973  0.00  0.00    +0.058 C 
ATOM      4  C   UNL     1       1.828  -3.121  -2.611  0.00  0.00    +0.142 C 
ATOM      5  N   UNL     1       2.425  -2.831  -1.296  0.00  0.00    -0.288 N 
ATOM      6  C   UNL     1       1.824  -1.919  -0.505  0.00  0.00    +0.307 C 
ATOM      7  O   UNL     1       2.312  -1.670   0.580  0.00  0.00    -0.252 OA
ATOM      8  C   UNL     1      -0.254  -2.394  -4.120  0.00  0.00    +0.247 C 
ATOM      9  O   UNL     1      -0.051  -3.099  -5.092  0.00  0.00    -0.270 OA
ATOM     10  N   UNL     1      -1.287  -1.541  -4.001  0.00  0.00    -0.281 N 
ATOM     11  C   UNL     1      -1.165  -0.890  -2.688  0.00  0.00    +0.160 C 
ATOM     12  H   UNL     1       3.233  -3.282  -1.008  0.00  0.00    +0.151 HD
ENDROOT
BRANCH   4  13
ATOM     13  C   UNL     1       1.520  -4.595  -2.664  0.00  0.00    -0.023 A 
ATOM     14  C   UNL     1       0.866  -5.204  -1.609  0.00  0.00    +0.006 A 
ATOM     15  C   UNL     1       0.583  -6.556  -1.659  0.00  0.00    +0.004 A 
ATOM     16  C   UNL     1       0.953  -7.300  -2.764  0.00  0.00    -0.050 A 
ATOM     17  C   UNL     1       1.607  -6.691  -3.819  0.00  0.00    +0.004 A 
ATOM     18  C   UNL     1       1.886  -5.338  -3.771  0.00  0.00    +0.006 A 
ATOM     19  C   UNL     1       0.646  -8.774  -2.817  0.00  0.00    +0.044 C 
ENDBRANCH   4  13
BRANCH   1  21
ATOM     20  C   UNL     1       0.709   1.072  -0.219  0.00  0.00    +0.025 C 
ATOM     21  C   UNL     1       0.121  -0.313   0.055  0.00  0.00    +0.111 C 
ENDBRANCH   1  21
BRANCH  10  22
ATOM     22  C   UNL     1      -2.338  -1.305  -4.994  0.00  0.00    +0.163 C 
BRANCH  22  23
ATOM     23  C   UNL     1      -1.740  -0.644  -6.210  0.00  0.00    +0.238 C 
ATOM     24  O   UNL     1      -0.554  -0.396  -6.244  0.00  0.00    -0.273 OA
ATOM     25  N   UNL     1      -2.525  -0.330  -7.260  0.00  0.00    -0.284 N 
ATOM     26  H   UNL     1      -3.483  -0.470  -7.208  0.00  0.00    +0.155 HD
BRANCH  25  27
ATOM     27  C   UNL     1      -1.956   0.198  -8.425  0.00  0.00    +0.034 A 
ATOM     28  C   UNL     1      -2.445  -0.178  -9.669  0.00  0.00    +0.026 A 
ATOM     29  C   UNL     1      -1.883   0.344 -10.818  0.00  0.00    +0.040 A 
ATOM     30  C   UNL     1      -0.832   1.242 -10.729  0.00  0.00    +0.124 A 
ATOM     31  C   UNL     1      -0.343   1.618  -9.489  0.00  0.00    +0.040 A 
ATOM     32  C   UNL     1      -0.906   1.103  -8.338  0.00  0.00    +0.026 A 
ATOM     33  F   UNL     1      -0.282   1.751 -11.853  0.00  0.00    -0.205 F 
ENDBRANCH  25  27
ENDBRANCH  22  23
BRANCH  22  34
ATOM     34  C   UNL     1      -2.969  -2.639  -5.396  0.00  0.00    +0.035 C 
BRANCH  34  35
ATOM     35  C   UNL     1      -3.729  -3.224  -4.205  0.00  0.00    -0.015 C 
ATOM     36  C   UNL     1      -4.536  -4.441  -4.662  0.00  0.00    +0.007 C 
ATOM     37  C   UNL     1      -2.734  -3.649  -3.123  0.00  0.00    +0.007 C 
ENDBRANCH  34  35
ENDBRANCH  22  34
ENDBRANCH  10  22
TORSDOF 7
