REMARK  Name = ZINC14247647
REMARK  10 active torsions:
REMARK  status: ('A' for Active; 'I' for Inactive)
REMARK    1  A    between atoms: C_1  and  C_2
REMARK    2  A    between atoms: C_2  and  C_3
REMARK    3  A    between atoms: C_6  and  C_9
REMARK    4  A    between atoms: C_9  and  C_11
REMARK    5  A    between atoms: C_9  and  N_65
REMARK    6  A    between atoms: C_11  and  N_12
REMARK    7  A    between atoms: C_13  and  C_15
REMARK    8  A    between atoms: C_27  and  C_30
REMARK    9  A    between atoms: C_34  and  N_65
REMARK   10  A    between atoms: C_35  and  N_65
REMARK                            x       y       z     vdW  Elec       q    Type
REMARK                         _______ _______ _______ _____ _____    ______ ____
ROOT
ATOM      1  C   UNL     1       2.252   6.298   1.641  0.00  0.00    +0.078 C 
ATOM      2  C   UNL     1       3.078   5.662   0.519  0.00  0.00    +0.031 C 
ATOM      3  C   UNL     1       3.431   4.224   0.905  0.00  0.00    +0.107 C 
ATOM      4  N   UNL     1       2.198   3.457   1.124  0.00  0.00    -0.314 N 
ATOM      5  C   UNL     1       1.411   4.021   2.228  0.00  0.00    +0.107 C 
ATOM      6  C   UNL     1       0.998   5.453   1.883  0.00  0.00    +0.031 C 
ATOM      7  C   UNL     1       2.479   2.114   1.347  0.00  0.00    +0.142 A 
ATOM      8  C   UNL     1       1.423   1.211   1.579  0.00  0.00    +0.049 A 
ATOM      9  C   UNL     1       1.686  -0.104   1.798  0.00  0.00    +0.053 A 
ATOM     10  C   UNL     1       3.022  -0.547   1.790  0.00  0.00    +0.178 A 
ATOM     11  N   UNL     1       3.598  -1.726   1.964  0.00  0.00    -0.128 NA
ATOM     12  N   UNL     1       4.874  -1.595   1.856  0.00  0.00    -0.123 NA
ATOM     13  C   UNL     1       5.181  -0.345   1.611  0.00  0.00    +0.258 A 
ATOM     14  N   UNL     1       4.029   0.357   1.561  0.00  0.00    -0.187 N 
ATOM     15  N   UNL     1       3.725   1.702   1.339  0.00  0.00    -0.148 NA
ENDROOT
BRANCH   1  17
ATOM     16  N   UNL     1       1.114   8.449   2.081  0.00  0.00    -0.316 N 
ATOM     17  C   UNL     1       1.851   7.694   1.242  0.00  0.00    +0.216 C 
ATOM     18  O   UNL     1       2.191   8.139   0.166  0.00  0.00    -0.276 OA
ATOM     19  H   UNL     1       0.842   8.094   2.941  0.00  0.00    +0.149 HD
BRANCH  16  20
ATOM     20  C   UNL     1       0.723   9.807   1.692  0.00  0.00    +0.093 C 
BRANCH  20  21
ATOM     21  C   UNL     1      -0.238  10.379   2.736  0.00  0.00    -0.021 C 
BRANCH  21  25
ATOM     22  C   UNL     1      -1.217  14.409   1.711  0.00  0.00    -0.048 A 
ATOM     23  C   UNL     1      -0.329  14.153   2.739  0.00  0.00    +0.004 A 
ATOM     24  C   UNL     1      -0.012  12.850   3.071  0.00  0.00    +0.002 A 
ATOM     25  C   UNL     1      -0.583  11.801   2.375  0.00  0.00    -0.059 A 
ATOM     26  C   UNL     1      -1.467  12.056   1.343  0.00  0.00    +0.002 A 
ATOM     27  C   UNL     1      -1.788  13.360   1.015  0.00  0.00    +0.004 A 
BRANCH  22  29
ATOM     28  C   UNL     1      -0.584  16.338   0.288  0.00  0.00    +0.009 C 
ATOM     29  C   UNL     1      -1.562  15.830   1.349  0.00  0.00    +0.032 C 
ENDBRANCH  22  29
ENDBRANCH  21  25
BRANCH  21  32
ATOM     30  C   UNL     1      -1.706   8.929   1.470  0.00  0.00    -0.096 C 
ATOM     31  C   UNL     1      -1.407   8.573   3.847  0.00  0.00    -0.096 C 
ATOM     32  N   UNL     1      -1.486   9.588   2.775  0.00  0.00    +0.382 N 
ATOM     33  H   UNL     1      -2.273  10.217   2.968  0.00  0.00    -0.082 HD
ENDBRANCH  21  32
ENDBRANCH  20  21
ENDBRANCH  16  20
ENDBRANCH   1  17
BRANCH  13  34
ATOM     34  C   UNL     1       6.569   0.208   1.421  0.00  0.00    +0.454 C 
ATOM     35  F   UNL     1       7.465  -0.844   1.204  0.00  0.00    -0.163 F 
ATOM     36  F   UNL     1       6.582   1.067   0.316  0.00  0.00    -0.163 F 
ATOM     37  F   UNL     1       6.950   0.916   2.566  0.00  0.00    -0.163 F 
ENDBRANCH  13  34
TORSDOF 7
