REMARK  Name = ZINC17656026
REMARK  9 active torsions:
REMARK  status: ('A' for Active; 'I' for Inactive)
REMARK    1  A    between atoms: C_1  and  C_2
REMARK    2  A    between atoms: C_5  and  C_8
REMARK    3  A    between atoms: C_8  and  C_10
REMARK    4  A    between atoms: C_8  and  N_15
REMARK    5  A    between atoms: C_16  and  C_18
REMARK    6  A    between atoms: C_18  and  N_19
REMARK    7  A    between atoms: C_22  and  C_26
REMARK    8  A    between atoms: C_22  and  C_27
REMARK    9  A    between atoms: C_30  and  N_33
REMARK                            x       y       z     vdW  Elec       q    Type
REMARK                         _______ _______ _______ _____ _____    ______ ____
ROOT
ATOM      1  C   UNL     1       0.266   3.428   3.174  0.00  0.00    +0.213 C 
ENDROOT
BRANCH   1   2
ATOM      2  N   UNL     1       0.391   2.740   1.887  0.00  0.00    -0.215 N 
ATOM      3  C   UNL     1      -0.594   2.021   1.313  0.00  0.00    +0.251 C 
ATOM      4  O   UNL     1      -1.710   1.830   1.748  0.00  0.00    -0.272 OA
ATOM      5  C   UNL     1      -0.018   1.503   0.010  0.00  0.00    +0.135 C 
ATOM      6  N   UNL     1       1.353   2.040   0.000  0.00  0.00    -0.281 N 
ATOM      7  C   UNL     1       1.498   2.747   1.135  0.00  0.00    +0.310 C 
ATOM      8  O   UNL     1       2.520   3.328   1.443  0.00  0.00    -0.252 OA
ATOM      9  C   UNL     1      -0.814   2.035  -1.183  0.00  0.00    +0.047 C 
ATOM     10  H   UNL     1       2.022   1.909  -0.691  0.00  0.00    +0.152 HD
BRANCH   5  11
ATOM     11  C   UNL     1       0.002  -0.004   0.002  0.00  0.00    -0.015 A 
ATOM     12  C   UNL     1      -1.001  -0.712   0.637  0.00  0.00    +0.008 A 
ATOM     13  C   UNL     1      -0.984  -2.095   0.626  0.00  0.00    +0.033 A 
ATOM     14  C   UNL     1       0.040  -2.768  -0.013  0.00  0.00    +0.126 A 
ATOM     15  C   UNL     1       1.045  -2.060  -0.644  0.00  0.00    +0.033 A 
ATOM     16  C   UNL     1       1.027  -0.678  -0.636  0.00  0.00    +0.008 A 
BRANCH  14  17
ATOM     17  N   UNL     1       0.060  -4.248  -0.021  0.00  0.00    +0.056 N 
ATOM     18  O   UNL     1       0.962  -4.842  -0.584  0.00  0.00    -0.126 OA
ATOM     19  O   UNL     1      -0.826  -4.873   0.535  0.00  0.00    -0.126 OA
ENDBRANCH  14  17
ENDBRANCH   5  11
ENDBRANCH   1   2
BRANCH   1  21
ATOM     20  N   UNL     1      -0.432   5.655   3.995  0.00  0.00    -0.303 N 
ATOM     21  C   UNL     1      -0.239   4.830   2.946  0.00  0.00    +0.232 C 
ATOM     22  O   UNL     1      -0.470   5.216   1.820  0.00  0.00    -0.274 OA
ATOM     23  H   UNL     1      -0.247   5.346   4.895  0.00  0.00    +0.150 HD
BRANCH  20  24
ATOM     24  C   UNL     1      -0.922   7.017   3.774  0.00  0.00    +0.140 C 
BRANCH  24  29
ATOM     25  C   UNL     1      -3.601   8.896   8.537  0.00  0.00    +0.044 C 
ATOM     26  C   UNL     1      -2.903   8.406   7.295  0.00  0.00    -0.050 A 
ATOM     27  C   UNL     1      -3.423   8.699   6.048  0.00  0.00    +0.004 A 
ATOM     28  C   UNL     1      -2.782   8.249   4.909  0.00  0.00    +0.006 A 
ATOM     29  C   UNL     1      -1.621   7.508   5.016  0.00  0.00    -0.022 A 
ATOM     30  C   UNL     1      -1.103   7.210   6.263  0.00  0.00    +0.006 A 
ATOM     31  C   UNL     1      -1.741   7.664   7.402  0.00  0.00    +0.004 A 
ENDBRANCH  24  29
BRANCH  24  32
ATOM     32  C   UNL     1       0.239   7.925   3.460  0.00  0.00    +0.014 A 
ATOM     33  C   UNL     1       0.319   8.925   2.549  0.00  0.00    +0.013 A 
ATOM     34  C   UNL     1       1.499   9.636   2.435  0.00  0.00    +0.008 A 
ATOM     35  C   UNL     1       2.545   9.304   3.230  0.00  0.00    +0.045 A 
ATOM     36  S   UNL     1       1.870   7.955   4.185  0.00  0.00    -0.099 S 
ENDBRANCH  24  32
ENDBRANCH  20  24
ENDBRANCH   1  21
TORSDOF 7
