REMARK  Name = ZINC38223287
REMARK  4 active torsions:
REMARK  status: ('A' for Active; 'I' for Inactive)
REMARK    1  A    between atoms: C_4  and  C_7
REMARK    2  A    between atoms: C_8  and  C_24
REMARK    3  A    between atoms: C_10  and  C_13
REMARK    4  A    between atoms: N_16  and  C_18
REMARK                            x       y       z     vdW  Elec       q    Type
REMARK                         _______ _______ _______ _____ _____    ______ ____
ROOT
ATOM      1  C   UNL     1       3.714  -0.653  -0.082  0.00  0.00    +0.072 A 
ATOM      2  C   UNL     1       3.995  -1.822  -0.767  0.00  0.00    +0.072 A 
ATOM      3  N   UNL     1       5.271  -2.175  -0.445  0.00  0.00    -0.338 N 
ATOM      4  C   UNL     1       5.758  -1.264   0.403  0.00  0.00    +0.134 A 
ATOM      5  N   UNL     1       4.830  -0.331   0.629  0.00  0.00    -0.338 N 
ATOM      6  H   UNL     1       4.932   0.444   1.204  0.00  0.00    +0.167 HD
ATOM      7  H   UNL     1       5.744  -2.955  -0.774  0.00  0.00    +0.167 HD
ENDROOT
BRANCH   4   8
ATOM      8  C   UNL     1       7.104  -1.283   0.988  0.00  0.00    +0.101 C 
ATOM      9  C   UNL     1       8.046  -2.212   0.755  0.00  0.00    +0.117 C 
ATOM     10  N   UNL     1       9.184  -1.901   1.478  0.00  0.00    -0.253 N 
ATOM     11  N   UNL     1       8.935  -0.721   2.194  0.00  0.00    -0.171 N 
ATOM     12  N   UNL     1       7.625  -0.326   1.882  0.00  0.00    -0.243 N 
ATOM     13  H   UNL     1      10.010  -2.410   1.488  0.00  0.00    +0.171 HD
ATOM     14  H   UNL     1       7.164   0.457   2.220  0.00  0.00    +0.172 HD
BRANCH  11  15
ATOM     15  C   UNL     1       9.822  -0.063   3.050  0.00  0.00    +0.069 A 
ATOM     16  C   UNL     1       9.429   1.101   3.699  0.00  0.00    +0.026 A 
ATOM     17  C   UNL     1      10.309   1.749   4.544  0.00  0.00    +0.002 A 
ATOM     18  C   UNL     1      11.579   1.240   4.744  0.00  0.00    +0.000 A 
ATOM     19  C   UNL     1      11.973   0.083   4.100  0.00  0.00    +0.002 A 
ATOM     20  C   UNL     1      11.097  -0.574   3.258  0.00  0.00    +0.026 A 
ENDBRANCH  11  15
ENDBRANCH   4   8
BRANCH   1  24
ATOM     21  C   UNL     1       0.069   1.525  -0.193  0.00  0.00    +0.000 A 
ATOM     22  C   UNL     1       1.273   2.190  -0.341  0.00  0.00    +0.001 A 
ATOM     23  C   UNL     1       2.461   1.488  -0.305  0.00  0.00    +0.010 A 
ATOM     24  C   UNL     1       2.445   0.105  -0.120  0.00  0.00    +0.000 A 
ATOM     25  C   UNL     1       1.227  -0.560   0.029  0.00  0.00    +0.010 A 
ATOM     26  C   UNL     1       0.046   0.154  -0.009  0.00  0.00    +0.001 A 
ENDBRANCH   1  24
BRANCH   2  27
ATOM     27  C   UNL     1       3.084  -2.551  -1.675  0.00  0.00    +0.000 A 
ATOM     28  C   UNL     1       2.376  -1.859  -2.660  0.00  0.00    +0.010 A 
ATOM     29  C   UNL     1       1.528  -2.545  -3.504  0.00  0.00    +0.001 A 
ATOM     30  C   UNL     1       1.377  -3.914  -3.377  0.00  0.00    +0.000 A 
ATOM     31  C   UNL     1       2.075  -4.605  -2.403  0.00  0.00    +0.001 A 
ATOM     32  C   UNL     1       2.932  -3.933  -1.556  0.00  0.00    +0.010 A 
ENDBRANCH   2  27
TORSDOF 4
