REMARK  Name = ZINC40587107
REMARK  8 active torsions:
REMARK  status: ('A' for Active; 'I' for Inactive)
REMARK    1  A    between atoms: C_1  and  C_2
REMARK    2  A    between atoms: C_2  and  C_3
REMARK    3  A    between atoms: C_8  and  N_9
REMARK    4  A    between atoms: C_11  and  N_27
REMARK    5  A    between atoms: C_12  and  N_16
REMARK    6  A    between atoms: N_16  and  N_17
REMARK    7  A    between atoms: C_18  and  C_20
REMARK    8  A    between atoms: C_25  and  C_26
REMARK                            x       y       z     vdW  Elec       q    Type
REMARK                         _______ _______ _______ _____ _____    ______ ____
ROOT
ATOM      1  N   UNL     1      -1.574  -0.092  -2.394  0.00  0.00    -0.297 N 
ATOM      2  C   UNL     1      -2.243  -0.295  -3.592  0.00  0.00    +0.159 A 
ATOM      3  C   UNL     1      -1.567  -0.196  -4.805  0.00  0.00    +0.207 A 
ATOM      4  C   UNL     1      -2.283  -0.409  -5.978  0.00  0.00    +0.171 A 
ATOM      5  N   UNL     1      -3.580  -0.700  -5.900  0.00  0.00    -0.217 NA
ATOM      6  C   UNL     1      -4.185  -0.785  -4.733  0.00  0.00    +0.225 A 
ATOM      7  N   UNL     1      -3.541  -0.595  -3.599  0.00  0.00    -0.218 NA
ATOM      8  H   UNL     1      -0.611   0.023  -2.390  0.00  0.00    +0.154 HD
ENDROOT
BRANCH   1  14
ATOM      9  C   UNL     1      -1.659  -0.381   0.001  0.00  0.00    -0.026 A 
ATOM     10  C   UNL     1      -2.366  -0.335   1.187  0.00  0.00    +0.005 A 
ATOM     11  C   UNL     1      -3.699   0.030   1.185  0.00  0.00    +0.000 A 
ATOM     12  C   UNL     1      -4.330   0.351  -0.003  0.00  0.00    +0.002 A 
ATOM     13  C   UNL     1      -3.630   0.308  -1.192  0.00  0.00    +0.023 A 
ATOM     14  C   UNL     1      -2.288  -0.053  -1.193  0.00  0.00    +0.036 A 
BRANCH   9  16
ATOM     15  C   UNL     1       0.667   0.475   0.059  0.00  0.00    +0.009 C 
ATOM     16  C   UNL     1      -0.206  -0.780   0.004  0.00  0.00    +0.033 C 
ENDBRANCH   9  16
ENDBRANCH   1  14
BRANCH   3  17
ATOM     17  N   UNL     1      -0.123   0.130  -4.844  0.00  0.00    +0.063 N 
ATOM     18  O   UNL     1       0.698  -0.757  -4.815  0.00  0.00    -0.126 OA
ATOM     19  O   UNL     1       0.235   1.283  -4.905  0.00  0.00    -0.126 OA
ENDBRANCH   3  17
BRANCH   4  20
ATOM     20  N   UNL     1      -1.655  -0.321  -7.211  0.00  0.00    -0.246 N 
ATOM     21  H   UNL     1      -0.710  -0.108  -7.260  0.00  0.00    +0.172 HD
BRANCH  20  22
ATOM     22  N   UNL     1      -2.386  -0.538  -8.387  0.00  0.00    -0.231 N 
ATOM     23  C   UNL     1      -1.776  -0.452  -9.585  0.00  0.00    +0.260 C 
ATOM     24  O   UNL     1      -0.591  -0.186  -9.646  0.00  0.00    -0.269 OA
ATOM     25  H   UNL     1      -3.331  -0.750  -8.338  0.00  0.00    +0.173 HD
BRANCH  23  26
ATOM     26  C   UNL     1      -2.547  -0.681 -10.826  0.00  0.00    +0.041 A 
ATOM     27  C   UNL     1      -3.889  -1.059 -10.757  0.00  0.00    +0.013 A 
ATOM     28  C   UNL     1      -4.603  -1.271 -11.918  0.00  0.00    +0.001 A 
ATOM     29  C   UNL     1      -3.991  -1.110 -13.149  0.00  0.00    +0.000 A 
ATOM     30  C   UNL     1      -2.662  -0.736 -13.224  0.00  0.00    +0.004 A 
ATOM     31  C   UNL     1      -1.938  -0.514 -12.070  0.00  0.00    -0.038 A 
ATOM     32  C   UNL     1      -0.491  -0.100 -12.154  0.00  0.00    +0.044 C 
ENDBRANCH  23  26
ENDBRANCH  20  22
ENDBRANCH   4  20
TORSDOF 6
