REMARK  Name = ZINC39672239
REMARK  8 active torsions:
REMARK  status: ('A' for Active; 'I' for Inactive)
REMARK    1  A    between atoms: C_1  and  C_2
REMARK    2  A    between atoms: C_2  and  C_3
REMARK    3  A    between atoms: C_3  and  C_5
REMARK    4  A    between atoms: C_3  and  C_11
REMARK    5  A    between atoms: C_15  and  C_24
REMARK    6  A    between atoms: N_26  and  C_27
REMARK    7  A    between atoms: C_27  and  C_28
REMARK    8  A    between atoms: N_37  and  C_38
REMARK                            x       y       z     vdW  Elec       q    Type
REMARK                         _______ _______ _______ _____ _____    ______ ____
ROOT
ATOM      1  C   UNL     1      -2.103  -0.025  -1.003  0.00  0.00    +0.223 C 
ATOM      2  O   UNL     1      -2.727  -0.839  -1.649  0.00  0.00    -0.275 OA
ATOM      3  N   UNL     1      -2.142   1.279  -1.343  0.00  0.00    -0.300 N 
ATOM      4  C   UNL     1      -1.525   2.423  -0.630  0.00  0.00    +0.121 C 
ATOM      5  C   UNL     1      -0.988   3.338  -1.752  0.00  0.00    +0.100 C 
ATOM      6  C   UNL     1      -1.837   2.987  -2.985  0.00  0.00    -0.004 C 
ATOM      7  C   UNL     1      -2.807   1.892  -2.518  0.00  0.00    +0.115 C 
ATOM      8  C   UNL     1      -0.949   2.454  -4.105  0.00  0.00    -0.010 C 
ATOM      9  C   UNL     1      -1.808   2.166  -5.339  0.00  0.00    -0.082 C 
ATOM     10  N   UNL     1      -2.482   3.398  -5.767  0.00  0.00    +0.379 N 
ATOM     11  C   UNL     1      -3.405   3.854  -4.720  0.00  0.00    -0.082 C 
ATOM     12  C   UNL     1      -2.613   4.213  -3.460  0.00  0.00    -0.010 C 
ATOM     13  H   UNL     1      -1.792   4.114  -5.940  0.00  0.00    -0.086 HD
ATOM     14  H   UNL     1      -2.999   3.220  -6.615  0.00  0.00    -0.086 HD
ENDROOT
BRANCH   5  15
ATOM     15  C   UNL     1      -1.172   4.787  -1.381  0.00  0.00    +0.218 C 
ATOM     16  O   UNL     1      -2.069   5.112  -0.632  0.00  0.00    -0.275 OA
ATOM     17  N   UNL     1      -0.340   5.722  -1.881  0.00  0.00    -0.311 N 
ATOM     18  H   UNL     1       0.378   5.462  -2.479  0.00  0.00    +0.149 HD
BRANCH  17  19
ATOM     19  C   UNL     1      -0.518   7.130  -1.519  0.00  0.00    +0.139 C 
BRANCH  19  20
ATOM     20  C   UNL     1       0.534   7.963  -2.206  0.00  0.00    -0.030 A 
ATOM     21  C   UNL     1       1.748   8.191  -1.584  0.00  0.00    +0.007 A 
ATOM     22  C   UNL     1       2.710   8.954  -2.213  0.00  0.00    +0.024 A 
ATOM     23  C   UNL     1       2.460   9.493  -3.470  0.00  0.00    +0.033 A 
ATOM     24  C   UNL     1       1.244   9.261  -4.094  0.00  0.00    -0.026 A 
ATOM     25  C   UNL     1       0.285   8.491  -3.458  0.00  0.00    +0.010 A 
ATOM     26  C   UNL     1       0.942   9.819  -5.460  0.00  0.00    +0.038 C 
ATOM     27  C   UNL     1       1.859  11.002  -5.770  0.00  0.00    +0.024 C 
ATOM     28  C   UNL     1       3.313  10.582  -5.517  0.00  0.00    +0.105 C 
ATOM     29  N   UNL     1       3.447  10.268  -4.088  0.00  0.00    -0.333 N 
ATOM     30  C   UNL     1       4.596  10.758  -3.323  0.00  0.00    +0.129 C 
ENDBRANCH  19  20
ENDBRANCH  17  19
ENDBRANCH   5  15
BRANCH   1  31
ATOM     31  C   UNL     1      -1.283  -0.470   0.180  0.00  0.00    +0.105 C 
BRANCH  31  32
ATOM     32  C   UNL     1      -2.154  -0.508   1.410  0.00  0.00    -0.036 A 
ATOM     33  C   UNL     1      -3.262  -1.334   1.447  0.00  0.00    +0.004 A 
ATOM     34  C   UNL     1      -4.061  -1.369   2.574  0.00  0.00    +0.000 A 
ATOM     35  C   UNL     1      -3.752  -0.577   3.665  0.00  0.00    +0.000 A 
ATOM     36  C   UNL     1      -2.643   0.248   3.628  0.00  0.00    +0.000 A 
ATOM     37  C   UNL     1      -1.842   0.279   2.502  0.00  0.00    +0.004 A 
ENDBRANCH  31  32
BRANCH  31  39
ATOM     38  C   UNL     1       0.277  -1.801  -1.248  0.00  0.00    +0.005 C 
ATOM     39  C   UNL     1      -0.718  -1.867  -0.087  0.00  0.00    +0.014 C 
ENDBRANCH  31  39
ENDBRANCH   1  31
TORSDOF 6
