REMARK  Name = ZINC49860268
REMARK  7 active torsions:
REMARK  status: ('A' for Active; 'I' for Inactive)
REMARK    1  A    between atoms: C_4  and  N_18
REMARK    2  A    between atoms: C_6  and  C_7
REMARK    3  A    between atoms: C_7  and  C_9
REMARK    4  A    between atoms: C_7  and  O_17
REMARK    5  A    between atoms: C_9  and  C_10
REMARK    6  A    between atoms: C_10  and  C_11
REMARK    7  A    between atoms: N_13  and  C_14
REMARK                            x       y       z     vdW  Elec       q    Type
REMARK                         _______ _______ _______ _____ _____    ______ ____
ROOT
ATOM      1  C   UNL     1      -1.293  -0.774   0.011  0.00  0.00    +0.145 C 
ENDROOT
BRANCH   1   7
ATOM      2  C   UNL     1      -0.017   1.378   0.010  0.00  0.00    +0.008 A 
ATOM      3  C   UNL     1       1.170   2.089   0.002  0.00  0.00    +0.022 A 
ATOM      4  C   UNL     1       2.378   1.419  -0.013  0.00  0.00    +0.062 A 
ATOM      5  C   UNL     1       2.400   0.029  -0.021  0.00  0.00    +0.043 A 
ATOM      6  C   UNL     1       1.207  -0.680  -0.013  0.00  0.00    +0.030 A 
ATOM      7  C   UNL     1       0.002  -0.004   0.002  0.00  0.00    -0.017 A 
ATOM      8 CL   UNL     1       3.867   2.312  -0.023  0.00  0.00    -0.082 Cl
BRANCH   5   9
ATOM      9  N   UNL     1       3.620  -0.652  -0.036  0.00  0.00    -0.357 N 
ATOM     10  H   UNL     1       4.453  -0.155  -0.042  0.00  0.00    +0.142 HD
ATOM     11  H   UNL     1       3.634  -1.622  -0.042  0.00  0.00    +0.142 HD
ENDBRANCH   5   9
ENDBRANCH   1   7
BRANCH   1  12
ATOM     12  O   UNL     1      -2.239  -0.126  -0.843  0.00  0.00    -0.387 OA
ATOM     13  H   UNL     1      -2.445   0.782  -0.583  0.00  0.00    +0.210 HD
ENDBRANCH   1  12
BRANCH   1  14
ATOM     14  C   UNL     1      -1.846  -0.827   1.437  0.00  0.00    +0.045 C 
BRANCH  14  15
ATOM     15  C   UNL     1      -3.093  -1.713   1.468  0.00  0.00    +0.098 C 
BRANCH  15  16
ATOM     16  C   UNL     1      -3.637  -1.765   2.872  0.00  0.00    +0.213 C 
ATOM     17  O   UNL     1      -3.082  -1.154   3.761  0.00  0.00    -0.276 OA
ATOM     18  N   UNL     1      -4.740  -2.490   3.141  0.00  0.00    -0.312 N 
ATOM     19  H   UNL     1      -5.184  -2.979   2.430  0.00  0.00    +0.149 HD
BRANCH  18  20
ATOM     20  C   UNL     1      -5.269  -2.541   4.506  0.00  0.00    +0.073 C 
ATOM     21  C   UNL     1      -5.713  -3.904   5.042  0.00  0.00    +0.024 C 
ATOM     22  C   UNL     1      -6.759  -2.848   4.676  0.00  0.00    +0.024 C 
ENDBRANCH  18  20
ENDBRANCH  15  16
ENDBRANCH  14  15
ENDBRANCH   1  14
TORSDOF 7
