REMARK  Name = ZINC62710531
REMARK  4 active torsions:
REMARK  status: ('A' for Active; 'I' for Inactive)
REMARK    1  A    between atoms: C_4  and  C_7
REMARK    2  A    between atoms: C_7  and  C_8
REMARK    3  A    between atoms: C_8  and  N_9
REMARK    4  A    between atoms: C_19  and  N_20
REMARK                            x       y       z     vdW  Elec       q    Type
REMARK                         _______ _______ _______ _____ _____    ______ ____
ROOT
ATOM      1  N   UNL     1       5.464  -1.686   1.382  0.00  0.00    +0.380 N 
ATOM      2  C   UNL     1       5.256  -2.973   0.724  0.00  0.00    -0.077 C 
ATOM      3  C   UNL     1       6.453  -3.904   0.842  0.00  0.00    -0.042 C 
ATOM      4  C   UNL     1       7.657  -3.363   0.080  0.00  0.00    -0.000 C 
ATOM      5  C   UNL     1       8.224  -2.092   0.690  0.00  0.00    +0.000 C 
ATOM      6  C   UNL     1       8.365  -2.143   2.201  0.00  0.00    -0.000 C 
ATOM      7  C   UNL     1       7.140  -2.726   2.896  0.00  0.00    -0.042 C 
ATOM      8  C   UNL     1       5.934  -1.810   2.758  0.00  0.00    -0.077 C 
ATOM      9  C   UNL     1       6.833  -4.105   2.309  0.00  0.00    -0.072 C 
ATOM     10  H   UNL     1       6.102  -1.119   0.845  0.00  0.00    -0.082 HD
ENDROOT
BRANCH   9  11
ATOM     11  N   UNL     1       5.741  -4.748   3.043  0.00  0.00    +0.380 N 
ATOM     12  H   UNL     1       5.543  -5.648   2.632  0.00  0.00    -0.090 HD
ATOM     13  H   UNL     1       6.010  -4.872   4.008  0.00  0.00    -0.090 HD
ATOM     14  H   UNL     1       4.916  -4.168   2.996  0.00  0.00    -0.090 HD
ENDBRANCH   9  11
BRANCH   1  15
ATOM     15  C   UNL     1       4.171  -0.963   1.399  0.00  0.00    -0.074 C 
BRANCH  15  16
ATOM     16  C   UNL     1       3.711  -0.707  -0.038  0.00  0.00    +0.016 C 
BRANCH  16  20
ATOM     17  C   UNL     1      -0.017   1.378   0.010  0.00  0.00    +0.000 A 
ATOM     18  C   UNL     1       1.171   2.086   0.002  0.00  0.00    +0.000 A 
ATOM     19  C   UNL     1       2.377   1.411  -0.013  0.00  0.00    +0.003 A 
ATOM     20  C   UNL     1       2.396   0.029  -0.020  0.00  0.00    -0.049 A 
ATOM     21  C   UNL     1       1.208  -0.679  -0.012  0.00  0.00    +0.003 A 
ATOM     22  C   UNL     1       0.002  -0.004   0.002  0.00  0.00    +0.000 A 
ENDBRANCH  16  20
ENDBRANCH  15  16
ENDBRANCH   1  15
TORSDOF 4
