REMARK  Name = ZINC39609738
REMARK  7 active torsions:
REMARK  status: ('A' for Active; 'I' for Inactive)
REMARK    1  A    between atoms: C_1  and  S_2
REMARK    2  A    between atoms: S_2  and  C_3
REMARK    3  A    between atoms: C_3  and  C_4
REMARK    4  A    between atoms: C_4  and  C_5
REMARK    5  A    between atoms: C_9  and  C_18
REMARK    6  A    between atoms: N_20  and  C_21
REMARK    7  A    between atoms: C_21  and  C_22
REMARK                            x       y       z     vdW  Elec       q    Type
REMARK                         _______ _______ _______ _____ _____    ______ ____
ROOT
ATOM      1  C   UNL     1       1.799  -2.293  -3.067  0.00  0.00    +0.216 C 
ATOM      2  O   UNL     1       2.165  -1.434  -3.841  0.00  0.00    -0.276 OA
ATOM      3  N   UNL     1       1.952  -3.595  -3.384  0.00  0.00    -0.300 N 
ATOM      4  C   UNL     1       1.565  -4.777  -2.579  0.00  0.00    +0.121 C 
ATOM      5  C   UNL     1       1.009  -5.786  -3.608  0.00  0.00    +0.100 C 
ATOM      6  C   UNL     1       1.657  -5.381  -4.943  0.00  0.00    -0.004 C 
ATOM      7  C   UNL     1       2.538  -4.166  -4.620  0.00  0.00    +0.115 C 
ATOM      8  C   UNL     1       0.583  -4.991  -5.955  0.00  0.00    -0.010 C 
ATOM      9  C   UNL     1       1.248  -4.648  -7.291  0.00  0.00    -0.082 C 
ATOM     10  N   UNL     1       2.006  -5.808  -7.774  0.00  0.00    +0.379 N 
ATOM     11  C   UNL     1       3.096  -6.119  -6.841  0.00  0.00    -0.082 C 
ATOM     12  C   UNL     1       2.509  -6.524  -5.486  0.00  0.00    -0.010 C 
ATOM     13  H   UNL     1       1.391  -6.604  -7.848  0.00  0.00    -0.086 HD
ATOM     14  H   UNL     1       2.393  -5.600  -8.683  0.00  0.00    -0.086 HD
ENDROOT
BRANCH   5  15
ATOM     15  C   UNL     1       1.407  -7.190  -3.234  0.00  0.00    +0.218 C 
ATOM     16  O   UNL     1       2.449  -7.389  -2.647  0.00  0.00    -0.275 OA
ATOM     17  N   UNL     1       0.604  -8.225  -3.552  0.00  0.00    -0.311 N 
ATOM     18  H   UNL     1      -0.230  -8.066  -4.022  0.00  0.00    +0.149 HD
BRANCH  17  19
ATOM     19  C   UNL     1       0.991  -9.591  -3.189  0.00  0.00    +0.139 C 
BRANCH  19  20
ATOM     20  C   UNL     1      -0.070 -10.554  -3.655  0.00  0.00    -0.029 A 
ATOM     21  C   UNL     1      -1.127 -10.873  -2.822  0.00  0.00    +0.007 A 
ATOM     22  C   UNL     1      -2.101 -11.757  -3.248  0.00  0.00    +0.022 A 
ATOM     23  C   UNL     1      -2.018 -12.323  -4.508  0.00  0.00    +0.059 A 
ATOM     24  C   UNL     1      -0.960 -12.003  -5.341  0.00  0.00    +0.060 A 
ATOM     25  C   UNL     1       0.011 -11.114  -4.915  0.00  0.00    +0.026 A 
ATOM     26 CL   UNL     1      -0.855 -12.712  -6.922  0.00  0.00    -0.082 Cl
ATOM     27 CL   UNL     1      -3.241 -13.433  -5.043  0.00  0.00    -0.082 Cl
ENDBRANCH  19  20
ENDBRANCH  17  19
ENDBRANCH   5  15
BRANCH   1  28
ATOM     28  C   UNL     1       1.175  -1.907  -1.751  0.00  0.00    +0.106 C 
BRANCH  28  29
ATOM     29  C   UNL     1       1.121  -0.382  -1.641  0.00  0.00    +0.078 C 
BRANCH  29  31
ATOM     30  C   UNL     1       0.379   1.898  -0.083  0.00  0.00    +0.084 C 
ATOM     31  S   UNL     1       0.369   0.084  -0.057  0.00  0.00    -0.164 S 
ENDBRANCH  29  31
ENDBRANCH  28  29
ENDBRANCH   1  28
TORSDOF 6
