REMARK  Name = ZINC64215646
REMARK  8 active torsions:
REMARK  status: ('A' for Active; 'I' for Inactive)
REMARK    1  A    between atoms: C_1  and  C_2
REMARK    2  A    between atoms: C_2  and  C_4
REMARK    3  A    between atoms: C_2  and  N_26
REMARK    4  A    between atoms: N_6  and  C_7
REMARK    5  A    between atoms: C_7  and  C_8
REMARK    6  A    between atoms: C_8  and  C_10
REMARK    7  A    between atoms: C_8  and  C_17
REMARK    8  A    between atoms: N_29  and  C_30
REMARK                            x       y       z     vdW  Elec       q    Type
REMARK                         _______ _______ _______ _____ _____    ______ ____
ROOT
ATOM      1  C   UNL     1       1.001  -0.657   3.638  0.00  0.00    +0.116 C 
ENDROOT
BRANCH   1   4
ATOM      2  C   UNL     1       0.739  -0.492   1.221  0.00  0.00    +0.233 C 
ATOM      3  O   UNL     1       1.737  -1.169   1.096  0.00  0.00    -0.274 OA
ATOM      4  N   UNL     1       0.286  -0.179   2.452  0.00  0.00    -0.313 N 
ATOM      5  H   UNL     1      -0.512   0.362   2.552  0.00  0.00    +0.149 HD
BRANCH   2   7
ATOM      6  C   UNL     1      -0.028   1.529   0.006  0.00  0.00    +0.038 C 
ATOM      7  C   UNL     1       0.003  -0.000   0.001  0.00  0.00    +0.157 C 
BRANCH   7   8
ATOM      8  N   UNL     1       0.689  -0.471  -1.205  0.00  0.00    -0.288 N 
ATOM      9  C   UNL     1       0.006  -0.610  -2.358  0.00  0.00    +0.304 C 
ATOM     10  O   UNL     1      -1.180  -0.345  -2.398  0.00  0.00    -0.252 OA
ATOM     11  N   UNL     1       0.637  -1.043  -3.467  0.00  0.00    -0.269 N 
ATOM     12  H   UNL     1       1.635  -0.683  -1.173  0.00  0.00    +0.151 HD
ATOM     13  H   UNL     1       1.596  -1.190  -3.454  0.00  0.00    +0.156 HD
BRANCH  11  14
ATOM     14  C   UNL     1      -0.091  -1.280  -4.639  0.00  0.00    +0.035 A 
ATOM     15  C   UNL     1       0.267  -2.324  -5.482  0.00  0.00    +0.023 A 
ATOM     16  C   UNL     1      -0.453  -2.555  -6.637  0.00  0.00    +0.002 A 
ATOM     17  C   UNL     1      -1.530  -1.748  -6.955  0.00  0.00    +0.000 A 
ATOM     18  C   UNL     1      -1.889  -0.707  -6.119  0.00  0.00    +0.002 A 
ATOM     19  C   UNL     1      -1.176  -0.474  -4.959  0.00  0.00    +0.023 A 
ENDBRANCH  11  14
ENDBRANCH   7   8
ENDBRANCH   2   7
ENDBRANCH   1   4
BRANCH   1  20
ATOM     20  C   UNL     1       0.284  -0.166   4.898  0.00  0.00    +0.066 C 
BRANCH  20  21
ATOM     21  C   UNL     1       0.946  -0.757   6.115  0.00  0.00    -0.033 C 
ATOM     22  C   UNL     1       0.374  -1.556   7.045  0.00  0.00    -0.000 A 
ATOM     23  C   UNL     1      -0.984  -2.093   7.194  0.00  0.00    +0.010 A 
ATOM     24  C   UNL     1      -1.263  -2.884   8.255  0.00  0.00    +0.001 A 
ATOM     25  C   UNL     1      -0.291  -3.203   9.213  0.00  0.00    +0.002 A 
ATOM     26  C   UNL     1       0.978  -2.749   9.143  0.00  0.00    +0.026 A 
ATOM     27  C   UNL     1       1.383  -1.909   8.069  0.00  0.00    +0.043 A 
ATOM     28  N   UNL     1       2.534  -1.350   7.785  0.00  0.00    -0.380 N 
ATOM     29  C   UNL     1       2.387  -0.583   6.542  0.00  0.00    +0.145 C 
ATOM     30  H   UNL     1       3.348  -1.432   8.306  0.00  0.00    +0.160 HD
ENDBRANCH  20  21
BRANCH  20  31
ATOM     31  C   UNL     1       0.361   1.338   4.965  0.00  0.00    -0.020 A 
ATOM     32  C   UNL     1       1.591   1.966   5.008  0.00  0.00    +0.006 A 
ATOM     33  C   UNL     1       1.662   3.345   5.070  0.00  0.00    +0.000 A 
ATOM     34  C   UNL     1       0.502   4.097   5.088  0.00  0.00    +0.001 A 
ATOM     35  C   UNL     1      -0.729   3.470   5.044  0.00  0.00    +0.020 A 
ATOM     36  C   UNL     1      -0.800   2.090   4.977  0.00  0.00    +0.045 A 
ATOM     37 CL   UNL     1      -2.346   1.302   4.916  0.00  0.00    -0.083 Cl
ENDBRANCH  20  31
ENDBRANCH   1  20
TORSDOF 7
