REMARK  Name = ZINC04691174
REMARK  10 active torsions:
REMARK  status: ('A' for Active; 'I' for Inactive)
REMARK    1  A    between atoms: C_1  and  C_2
REMARK    2  A    between atoms: C_2  and  N_3
REMARK    3  A    between atoms: N_3  and  N_4
REMARK    4  A    between atoms: C_5  and  C_7
REMARK    5  A    between atoms: C_10  and  C_13
REMARK    6  A    between atoms: C_13  and  C_14
REMARK    7  A    between atoms: C_13  and  C_15
REMARK    8  A    between atoms: C_13  and  C_16
REMARK    9  A    between atoms: C_17  and  C_18
REMARK   10  A    between atoms: N_20  and  C_21
REMARK                            x       y       z     vdW  Elec       q    Type
REMARK                         _______ _______ _______ _____ _____    ______ ____
ROOT
ATOM      1  C   UNL     1      -0.211   2.732   0.299  0.00  0.00    +0.062 C 
ATOM      2  C   UNL     1      -0.801   2.357  -1.036  0.00  0.00    +0.024 C 
ATOM      3  C   UNL     1      -2.088   1.959  -1.116  0.00  0.00    +0.087 C 
ENDROOT
BRANCH   3   4
ATOM      4  C   UNL     1      -2.834   1.737   0.065  0.00  0.00    +0.243 C 
ATOM      5  O   UNL     1      -2.288   1.800   1.151  0.00  0.00    -0.270 OA
ATOM      6  N   UNL     1      -4.150   1.456  -0.013  0.00  0.00    -0.282 N 
ATOM      7  H   UNL     1      -4.605   1.497  -0.869  0.00  0.00    +0.155 HD
BRANCH   6   8
ATOM      8  C   UNL     1      -4.861   1.105   1.142  0.00  0.00    +0.037 A 
ATOM      9  C   UNL     1      -6.151   1.581   1.335  0.00  0.00    +0.027 A 
ATOM     10  C   UNL     1      -6.851   1.236   2.474  0.00  0.00    +0.051 A 
ATOM     11  C   UNL     1      -6.269   0.414   3.428  0.00  0.00    +0.162 A 
ATOM     12  C   UNL     1      -4.979  -0.065   3.237  0.00  0.00    +0.164 A 
ATOM     13  C   UNL     1      -4.277   0.278   2.091  0.00  0.00    +0.072 A 
ATOM     14  O   UNL     1      -4.394  -0.879   4.158  0.00  0.00    -0.485 OA
ATOM     15  C   UNL     1      -4.984  -0.904   5.462  0.00  0.00    +0.270 C 
ATOM     16  C   UNL     1      -6.505  -1.036   5.299  0.00  0.00    +0.270 C 
ATOM     17  O   UNL     1      -6.974   0.089   4.548  0.00  0.00    -0.485 OA
ENDBRANCH   6   8
ENDBRANCH   3   4
BRANCH   2  18
ATOM     18  N   UNL     1      -0.034   2.419  -2.165  0.00  0.00    -0.268 N 
ATOM     19  H   UNL     1       0.891   2.705  -2.107  0.00  0.00    +0.170 HD
BRANCH  18  20
ATOM     20  N   UNL     1      -0.583   2.070  -3.405  0.00  0.00    -0.233 N 
ATOM     21  C   UNL     1       0.174   2.132  -4.519  0.00  0.00    +0.260 C 
ATOM     22  O   UNL     1       1.333   2.490  -4.447  0.00  0.00    -0.269 OA
ATOM     23  H   UNL     1      -1.508   1.784  -3.463  0.00  0.00    +0.173 HD
BRANCH  21  24
ATOM     24  C   UNL     1      -0.405   1.763  -5.828  0.00  0.00    +0.038 A 
ATOM     25  C   UNL     1      -1.738   1.357  -5.915  0.00  0.00    +0.013 A 
ATOM     26  C   UNL     1      -2.273   1.015  -7.140  0.00  0.00    +0.005 A 
ATOM     27  C   UNL     1      -1.491   1.074  -8.281  0.00  0.00    -0.042 A 
ATOM     28  C   UNL     1      -0.170   1.476  -8.201  0.00  0.00    +0.005 A 
ATOM     29  C   UNL     1       0.376   1.826  -6.983  0.00  0.00    +0.013 A 
BRANCH  27  30
ATOM     30  C   UNL     1      -2.082   0.698  -9.615  0.00  0.00    -0.013 C 
ATOM     31  C   UNL     1      -3.264   1.619  -9.927  0.00  0.00    +0.015 C 
ATOM     32  C   UNL     1      -1.018   0.848 -10.704  0.00  0.00    +0.015 C 
ATOM     33  C   UNL     1      -2.564  -0.753  -9.569  0.00  0.00    +0.015 C 
ENDBRANCH  27  30
ENDBRANCH  21  24
ENDBRANCH  18  20
ENDBRANCH   2  18
TORSDOF 6
