REMARK  Name = ZINC56401095
REMARK  9 active torsions:
REMARK  status: ('A' for Active; 'I' for Inactive)
REMARK    1  A    between atoms: C_1  and  C_2
REMARK    2  A    between atoms: C_2  and  C_3
REMARK    3  A    between atoms: C_2  and  N_4
REMARK    4  A    between atoms: N_7  and  C_8
REMARK    5  A    between atoms: C_11  and  N_14
REMARK    6  A    between atoms: C_15  and  C_17
REMARK    7  A    between atoms: C_17  and  N_18
REMARK    8  A    between atoms: N_21  and  C_22
REMARK    9  A    between atoms: C_22  and  C_23
REMARK                            x       y       z     vdW  Elec       q    Type
REMARK                         _______ _______ _______ _____ _____    ______ ____
ROOT
ATOM      1  N   UNL     1      -2.281  -1.941   8.072  0.00  0.00    -0.284 N 
ATOM      2  C   UNL     1      -3.542  -2.410   7.984  0.00  0.00    +0.234 C 
ATOM      3  O   UNL     1      -4.058  -2.560   6.896  0.00  0.00    -0.274 OA
ATOM      4  H   UNL     1      -1.892  -1.758   8.942  0.00  0.00    +0.155 HD
ENDROOT
BRANCH   1   8
ATOM      5  C   UNL     1      -0.056  -1.274   4.609  0.00  0.00    +0.035 A 
ATOM      6  C   UNL     1      -1.425  -1.043   4.610  0.00  0.00    +0.025 A 
ATOM      7  C   UNL     1      -2.162  -1.264   5.756  0.00  0.00    +0.025 A 
ATOM      8  C   UNL     1      -1.534  -1.717   6.909  0.00  0.00    +0.034 A 
ATOM      9  C   UNL     1      -0.165  -1.949   6.908  0.00  0.00    +0.025 A 
ATOM     10  C   UNL     1       0.571  -1.733   5.760  0.00  0.00    +0.025 A 
BRANCH   5  14
ATOM     11  N   UNL     1       2.396  -1.694   1.986  0.00  0.00    -0.297 N 
ATOM     12  C   UNL     1       1.734  -1.851   3.150  0.00  0.00    +0.304 C 
ATOM     13  O   UNL     1       2.078  -2.716   3.932  0.00  0.00    -0.253 OA
ATOM     14  N   UNL     1       0.692  -1.050   3.446  0.00  0.00    -0.269 N 
ATOM     15  H   UNL     1       2.121  -1.005   1.361  0.00  0.00    +0.151 HD
ATOM     16  H   UNL     1       0.460  -0.318   2.854  0.00  0.00    +0.156 HD
BRANCH  11  18
ATOM     17  C   UNL     1       3.013  -3.858   1.028  0.00  0.00    +0.027 C 
ATOM     18  C   UNL     1       3.529  -2.566   1.664  0.00  0.00    +0.068 C 
ATOM     19  C   UNL     1       4.459  -1.850   0.683  0.00  0.00    +0.027 C 
ENDBRANCH  11  18
ENDBRANCH   5  14
ENDBRANCH   1   8
BRANCH   2  20
ATOM     20  C   UNL     1      -4.309  -2.749   9.236  0.00  0.00    +0.202 C 
BRANCH  20  21
ATOM     21  N   UNL     1      -5.643  -3.236   8.874  0.00  0.00    -0.291 N 
ATOM     22  C   UNL     1      -6.511  -3.601   9.838  0.00  0.00    +0.300 C 
ATOM     23  O   UNL     1      -6.188  -3.527  11.008  0.00  0.00    -0.253 OA
ATOM     24  N   UNL     1      -7.738  -4.048   9.505  0.00  0.00    -0.292 N 
ATOM     25  H   UNL     1      -5.901  -3.295   7.941  0.00  0.00    +0.151 HD
ATOM     26  H   UNL     1      -7.997  -4.107   8.572  0.00  0.00    +0.151 HD
BRANCH  24  27
ATOM     27  C   UNL     1      -8.682  -4.445  10.553  0.00  0.00    +0.180 C 
BRANCH  27  28
ATOM     28  C   UNL     1      -9.971  -4.903   9.921  0.00  0.00    +0.122 A 
ATOM     29  C   UNL     1     -10.263  -6.164   9.554  0.00  0.00    +0.046 A 
ATOM     30  C   UNL     1     -11.567  -6.141   9.008  0.00  0.00    +0.041 A 
ATOM     31  C   UNL     1     -11.994  -4.867   9.074  0.00  0.00    +0.195 A 
ATOM     32  O   UNL     1     -11.026  -4.123   9.633  0.00  0.00    -0.466 OA
ENDBRANCH  27  28
ENDBRANCH  24  27
ENDBRANCH  20  21
ENDBRANCH   2  20
TORSDOF 7
