REMARK  Name = ZINC39152440
REMARK  5 active torsions:
REMARK  status: ('A' for Active; 'I' for Inactive)
REMARK    1  A    between atoms: C_1  and  C_2
REMARK    2  A    between atoms: C_7  and  S_12
REMARK    3  A    between atoms: S_12  and  C_13
REMARK    4  A    between atoms: C_13  and  C_14
REMARK    5  A    between atoms: N_16  and  C_17
REMARK                            x       y       z     vdW  Elec       q    Type
REMARK                         _______ _______ _______ _____ _____    ______ ____
ROOT
ATOM      1  C   UNL     1      -6.247   4.357  -7.179  0.00  0.00    +0.225 C 
ATOM      2  O   UNL     1      -7.355   4.395  -6.687  0.00  0.00    -0.275 OA
ATOM      3  N   UNL     1      -6.066   4.721  -8.464  0.00  0.00    -0.288 N 
ATOM      4  H   UNL     1      -5.180   4.691  -8.857  0.00  0.00    +0.151 HD
ENDROOT
BRANCH   3   5
ATOM      5  C   UNL     1      -7.209   5.164  -9.267  0.00  0.00    +0.224 C 
ATOM      6  N   UNL     1      -6.765   5.769 -10.530  0.00  0.00    -0.316 N 
ATOM      7  C   UNL     1      -7.162   5.151 -11.715  0.00  0.00    +0.043 A 
ATOM      8  C   UNL     1      -6.835   5.583 -13.013  0.00  0.00    +0.025 A 
ATOM      9  C   UNL     1      -7.278   4.903 -14.123  0.00  0.00    +0.017 A 
ATOM     10  C   UNL     1      -8.060   3.768 -14.001  0.00  0.00    +0.019 A 
ATOM     11  C   UNL     1      -8.396   3.319 -12.735  0.00  0.00    +0.032 A 
ATOM     12  C   UNL     1      -7.953   4.001 -11.625  0.00  0.00    +0.033 A 
ATOM     13  S   UNL     1      -8.180   3.729  -9.881  0.00  0.00    -0.082 S 
ATOM     14 BR   UNL     1      -8.659   2.845 -15.539  0.00  0.00    -0.050 Br
ATOM     15  H   UNL     1      -6.216   6.568 -10.539  0.00  0.00    +0.149 HD
ENDBRANCH   3   5
BRANCH   1  16
ATOM     16  C   UNL     1      -5.071   3.902  -6.352  0.00  0.00    +0.173 C 
BRANCH  16  17
ATOM     17  S   UNL     1      -5.634   3.484  -4.679  0.00  0.00    -0.079 S 
BRANCH  17  24
ATOM     18  C   UNL     1      -0.013   1.086   0.008  0.00  0.00    +0.044 C 
ATOM     19  C   UNL     1      -0.742   1.585  -1.213  0.00  0.00    -0.048 A 
ATOM     20  C   UNL     1      -0.039   1.825  -2.384  0.00  0.00    +0.005 A 
ATOM     21  C   UNL     1      -0.690   2.281  -3.509  0.00  0.00    +0.030 A 
ATOM     22  C   UNL     1      -2.069   2.504  -3.470  0.00  0.00    +0.090 A 
ATOM     23  N   UNL     1      -2.970   2.940  -4.388  0.00  0.00    -0.222 NA
ATOM     24  C   UNL     1      -4.165   2.978  -3.850  0.00  0.00    +0.168 A 
ATOM     25  H   UNL     1      -4.842   2.502  -1.927  0.00  0.00    +0.168 HD
ATOM     26  N   UNL     1      -4.099   2.566  -2.548  0.00  0.00    -0.333 N 
ATOM     27  C   UNL     1      -2.776   2.259  -2.281  0.00  0.00    +0.067 A 
ATOM     28  C   UNL     1      -2.104   1.795  -1.160  0.00  0.00    +0.031 A 
ENDBRANCH  17  24
ENDBRANCH  16  17
ENDBRANCH   1  16
TORSDOF 4
