REMARK  Name = ZINC28843492
REMARK  12 active torsions:
REMARK  status: ('A' for Active; 'I' for Inactive)
REMARK    1  A    between atoms: C_1  and  C_2
REMARK    2  A    between atoms: C_2  and  C_3
REMARK    3  A    between atoms: C_3  and  N_4
REMARK    4  A    between atoms: C_8  and  S_27
REMARK    5  A    between atoms: C_12  and  C_13
REMARK    6  A    between atoms: C_13  and  C_14
REMARK    7  A    between atoms: C_14  and  C_15
REMARK    8  A    between atoms: S_27  and  N_30
REMARK    9  A    between atoms: N_30  and  C_31
REMARK   10  A    between atoms: N_30  and  C_33
REMARK   11  A    between atoms: C_31  and  C_32
REMARK   12  A    between atoms: C_33  and  C_34
REMARK                            x       y       z     vdW  Elec       q    Type
REMARK                         _______ _______ _______ _____ _____    ______ ____
ROOT
ATOM      1  N   UNL     1      -5.378  11.380   1.228  0.00  0.00    -0.328 N 
ATOM      2  C   UNL     1      -5.680  12.664   0.820  0.00  0.00    +0.069 A 
ATOM      3  C   UNL     1      -5.956  13.851   1.485  0.00  0.00    +0.030 A 
ATOM      4  C   UNL     1      -6.232  14.991   0.762  0.00  0.00    +0.030 A 
ATOM      5  C   UNL     1      -6.237  14.959  -0.626  0.00  0.00    +0.108 A 
ATOM      6  C   UNL     1      -5.968  13.801  -1.298  0.00  0.00    +0.058 A 
ATOM      7  C   UNL     1      -5.685  12.633  -0.585  0.00  0.00    +0.091 A 
ATOM      8  N   UNL     1      -5.386  11.360  -0.953  0.00  0.00    -0.232 NA
ATOM      9  C   UNL     1      -5.203  10.629   0.107  0.00  0.00    +0.111 A 
ENDROOT
BRANCH   5  10
ATOM     10  S   UNL     1      -6.595  16.429  -1.530  0.00  0.00    +0.061 S 
ATOM     11  O   UNL     1      -7.074  16.016  -2.802  0.00  0.00    -0.153 OA
ATOM     12  O   UNL     1      -7.351  17.264  -0.665  0.00  0.00    -0.153 OA
BRANCH  10  13
ATOM     13  N   UNL     1      -5.155  17.203  -1.795  0.00  0.00    -0.177 NA
BRANCH  13  14
ATOM     14  C   UNL     1      -4.377  16.909  -3.001  0.00  0.00    +0.106 C 
ATOM     15  C   UNL     1      -4.710  17.936  -4.085  0.00  0.00    +0.022 C 
ENDBRANCH  13  14
BRANCH  13  16
ATOM     16  C   UNL     1      -4.659  18.181  -0.823  0.00  0.00    +0.106 C 
ATOM     17  C   UNL     1      -3.693  17.494   0.144  0.00  0.00    +0.022 C 
ENDBRANCH  13  16
ENDBRANCH  10  13
ENDBRANCH   5  10
BRANCH   1  18
ATOM     18  C   UNL     1      -5.263  10.914   2.612  0.00  0.00    +0.123 C 
BRANCH  18  20
ATOM     19  C   UNL     1      -3.699  10.598   4.535  0.00  0.00    +0.005 C 
ATOM     20  C   UNL     1      -3.819  11.085   3.090  0.00  0.00    +0.018 C 
ENDBRANCH  18  20
ENDBRANCH   1  18
BRANCH   9  21
ATOM     21  C   UNL     1      -4.856   9.163   0.096  0.00  0.00    +0.083 C 
BRANCH  21  22
ATOM     22  C   UNL     1      -3.334   9.000   0.081  0.00  0.00    +0.104 C 
BRANCH  22  23
ATOM     23  C   UNL     1      -2.987   7.534   0.069  0.00  0.00    +0.219 C 
ATOM     24  O   UNL     1      -3.869   6.701   0.073  0.00  0.00    -0.275 OA
ATOM     25  N   UNL     1      -1.695   7.147   0.055  0.00  0.00    -0.265 N 
ATOM     26  C   UNL     1      -1.376   5.799   0.044  0.00  0.00    +0.165 A 
ATOM     27  N   UNL     1      -0.191   5.234   0.030  0.00  0.00    -0.225 NA
ATOM     28  C   UNL     1      -0.026   3.894   0.022  0.00  0.00    +0.080 A 
ATOM     29  C   UNL     1       1.185   3.163   0.007  0.00  0.00    +0.029 A 
ATOM     30  C   UNL     1       1.175   1.793   0.001  0.00  0.00    +0.002 A 
ATOM     31  C   UNL     1      -0.013   1.076   0.008  0.00  0.00    +0.001 A 
ATOM     32  C   UNL     1      -1.215   1.758   0.017  0.00  0.00    +0.017 A 
ATOM     33  C   UNL     1      -1.216   3.131   0.029  0.00  0.00    +0.041 A 
ATOM     34  S   UNL     1      -2.471   4.387   0.048  0.00  0.00    -0.052 S 
ATOM     35  H   UNL     1      -0.895   7.902   0.051  0.00  0.00    +0.157 HD
ENDBRANCH  22  23
ENDBRANCH  21  22
ENDBRANCH   9  21
TORSDOF 9
