REMARK  Name = ZINC16129976
REMARK  5 active torsions:
REMARK  status: ('A' for Active; 'I' for Inactive)
REMARK    1  A    between atoms: C_1  and  C_2
REMARK    2  A    between atoms: C_8  and  C_10
REMARK    3  A    between atoms: C_10  and  C_12
REMARK    4  A    between atoms: C_10  and  S_18
REMARK    5  A    between atoms: S_18  and  C_19
REMARK                            x       y       z     vdW  Elec       q    Type
REMARK                         _______ _______ _______ _____ _____    ______ ____
ROOT
ATOM      1  C   UNL     1       1.754  -4.071  -0.039  0.00  0.00    +0.170 C 
ENDROOT
BRANCH   1   9
ATOM      2  C   UNL     1      -1.237   2.232   0.020  0.00  0.00    +0.089 C 
ATOM      3  C   UNL     1      -0.016   1.348   0.009  0.00  0.00    +0.136 A 
ATOM      4  C   UNL     1       0.002  -0.004   0.002  0.00  0.00    +0.091 A 
ATOM      5  C   UNL     1       1.385  -0.328  -0.013  0.00  0.00    +0.168 A 
ATOM      6  N   UNL     1       2.026   0.811  -0.013  0.00  0.00    -0.063 NA
ATOM      7  O   UNL     1       1.263   1.749  -0.001  0.00  0.00    -0.358 OA
ATOM      8  N   UNL     1       1.946  -1.605  -0.026  0.00  0.00    -0.267 N 
ATOM      9  C   UNL     1       1.148  -2.691  -0.025  0.00  0.00    +0.236 C 
ATOM     10  O   UNL     1      -0.057  -2.559  -0.013  0.00  0.00    -0.274 OA
ATOM     11  H   UNL     1       2.910  -1.711  -0.035  0.00  0.00    +0.156 HD
ENDBRANCH   1   9
BRANCH   1  12
ATOM     12  C   UNL     1       2.169  -4.423  -1.444  0.00  0.00    -0.025 A 
ATOM     13  C   UNL     1       1.225  -4.468  -2.453  0.00  0.00    +0.005 A 
ATOM     14  C   UNL     1       1.606  -4.787  -3.743  0.00  0.00    +0.000 A 
ATOM     15  C   UNL     1       2.930  -5.071  -4.022  0.00  0.00    +0.000 A 
ATOM     16  C   UNL     1       3.873  -5.030  -3.013  0.00  0.00    +0.000 A 
ATOM     17  C   UNL     1       3.493  -4.707  -1.724  0.00  0.00    +0.005 A 
ENDBRANCH   1  12
BRANCH   1  18
ATOM     18  S   UNL     1       0.532  -5.275   0.550  0.00  0.00    -0.068 S 
BRANCH  18  19
ATOM     19  C   UNL     1       1.425  -6.792   0.616  0.00  0.00    +0.197 A 
ATOM     20  N   UNL     1       2.687  -6.967   0.295  0.00  0.00    -0.122 NA
ATOM     21  N   UNL     1       3.023  -8.198   0.463  0.00  0.00    -0.127 NA
ATOM     22  C   UNL     1       1.984  -8.888   0.895  0.00  0.00    +0.180 A 
ATOM     23  N   UNL     1       0.932  -8.003   1.004  0.00  0.00    -0.275 N 
ATOM     24  C   UNL     1      -0.293  -8.433   1.434  0.00  0.00    +0.115 A 
ATOM     25  C   UNL     1      -0.489  -9.728   1.757  0.00  0.00    +0.059 A 
ATOM     26  C   UNL     1       0.566 -10.655   1.656  0.00  0.00    +0.045 A 
ATOM     27  C   UNL     1       1.790 -10.244   1.230  0.00  0.00    +0.087 A 
ATOM     28 CL   UNL     1       3.100 -11.376   1.100  0.00  0.00    -0.080 Cl
ATOM     29 CL   UNL     1      -2.052 -10.254   2.300  0.00  0.00    -0.082 Cl
ENDBRANCH  18  19
ENDBRANCH   1  18
TORSDOF 4
