REMARK  Name = ZINC22023511
REMARK  11 active torsions:
REMARK  status: ('A' for Active; 'I' for Inactive)
REMARK    1  A    between atoms: C_1  and  C_2
REMARK    2  A    between atoms: C_4  and  C_27
REMARK    3  A    between atoms: C_6  and  C_26
REMARK    4  A    between atoms: C_7  and  S_8
REMARK    5  A    between atoms: S_8  and  N_11
REMARK    6  A    between atoms: C_15  and  S_22
REMARK    7  A    between atoms: C_19  and  C_21
REMARK    8  A    between atoms: S_22  and  N_25
REMARK    9  A    between atoms: C_27  and  C_28
REMARK   10  A    between atoms: C_27  and  C_29
REMARK   11  A    between atoms: C_27  and  C_30
REMARK                            x       y       z     vdW  Elec       q    Type
REMARK                         _______ _______ _______ _____ _____    ______ ____
ROOT
ATOM      1  N   UNL     1      -2.188  -4.061   2.021  0.00  0.00    -0.200 N 
ATOM      2  C   UNL     1      -2.140  -4.058   3.416  0.00  0.00    +0.055 A 
ATOM      3  C   UNL     1      -1.029  -4.049   4.263  0.00  0.00    +0.027 A 
ATOM      4  C   UNL     1      -1.199  -4.049   5.631  0.00  0.00    +0.030 A 
ATOM      5  C   UNL     1      -2.470  -4.057   6.175  0.00  0.00    +0.105 A 
ATOM      6  C   UNL     1      -3.574  -4.056   5.343  0.00  0.00    +0.034 A 
ATOM      7  C   UNL     1      -3.410  -4.062   3.971  0.00  0.00    -0.021 A 
ATOM      8  C   UNL     1      -4.425  -4.078   2.850  0.00  0.00    +0.061 C 
ATOM      9  C   UNL     1      -3.580  -4.077   1.565  0.00  0.00    +0.099 C 
ATOM     10  C   UNL     1      -3.881  -2.828   0.734  0.00  0.00    +0.030 C 
ENDROOT
BRANCH   1  11
ATOM     11  S   UNL     1      -0.864  -4.054   1.026  0.00  0.00    +0.075 S 
ATOM     12  O   UNL     1      -1.222  -4.795  -0.132  0.00  0.00    -0.150 OA
ATOM     13  O   UNL     1       0.253  -4.396   1.834  0.00  0.00    -0.150 OA
BRANCH  11  20
ATOM     14  C   UNL     1       0.007  -1.808   2.855  0.00  0.00    +0.046 C 
ATOM     15  C   UNL     1      -0.215  -1.431   1.413  0.00  0.00    -0.023 A 
ATOM     16  C   UNL     1      -0.021  -0.126   1.002  0.00  0.00    +0.009 A 
ATOM     17  C   UNL     1      -0.224   0.220  -0.321  0.00  0.00    -0.041 A 
ATOM     18  C   UNL     1      -0.629  -0.739  -1.232  0.00  0.00    +0.009 A 
ATOM     19  C   UNL     1      -0.820  -2.045  -0.821  0.00  0.00    -0.023 A 
ATOM     20  C   UNL     1      -0.615  -2.390   0.501  0.00  0.00    +0.115 A 
ATOM     21  C   UNL     1      -1.256  -3.091  -1.815  0.00  0.00    +0.046 C 
BRANCH  17  22
ATOM     22  C   UNL     1      -0.012   1.643  -0.770  0.00  0.00    -0.013 C 
ATOM     23  C   UNL     1       1.438   2.052  -0.500  0.00  0.00    +0.015 C 
ATOM     24  C   UNL     1      -0.303   1.754  -2.268  0.00  0.00    +0.015 C 
ATOM     25  C   UNL     1      -0.955   2.567   0.003  0.00  0.00    +0.015 C 
ENDBRANCH  17  22
ENDBRANCH  11  20
ENDBRANCH   1  11
BRANCH   5  26
ATOM     26  S   UNL     1      -2.683  -4.055   7.924  0.00  0.00    +0.056 S 
ATOM     27  O   UNL     1      -3.964  -4.615   8.178  0.00  0.00    -0.153 OA
ATOM     28  O   UNL     1      -1.492  -4.597   8.478  0.00  0.00    -0.153 OA
BRANCH  26  29
ATOM     29  N   UNL     1      -2.753  -2.473   8.408  0.00  0.00    -0.204 NA
ATOM     30  H   UNL     1      -2.885  -2.429   9.499  0.00  0.00    +0.144 HD
ATOM     31  H   UNL     1      -3.601  -1.976   7.915  0.00  0.00    +0.144 HD
ENDBRANCH  26  29
ENDBRANCH   5  26
TORSDOF 5
