REMARK  Name = ZINC01504437
REMARK  4 active torsions:
REMARK  status: ('A' for Active; 'I' for Inactive)
REMARK    1  A    between atoms: C_1  and  C_2
REMARK    2  A    between atoms: C_5  and  N_8
REMARK    3  A    between atoms: N_11  and  C_12
REMARK    4  A    between atoms: C_13  and  C_20
REMARK                            x       y       z     vdW  Elec       q    Type
REMARK                         _______ _______ _______ _____ _____    ______ ____
ROOT
ATOM      1  N   UNL     1       1.162   3.485   0.009  0.00  0.00    -0.269 N 
ATOM      2  C   UNL     1       2.318   4.172   0.104  0.00  0.00    +0.308 C 
ATOM      3  O   UNL     1       3.379   3.579   0.091  0.00  0.00    -0.252 OA
ATOM      4  N   UNL     1       2.297   5.515   0.212  0.00  0.00    -0.263 N 
ATOM      5  H   UNL     1       0.319   3.961  -0.058  0.00  0.00    +0.156 HD
ATOM      6  H   UNL     1       1.450   5.988   0.222  0.00  0.00    +0.157 HD
ENDROOT
BRANCH   4   7
ATOM      7  C   UNL     1       3.486   6.221   0.309  0.00  0.00    +0.086 A 
ATOM      8  C   UNL     1       3.668   7.589   0.421  0.00  0.00    +0.068 A 
ATOM      9  C   UNL     1       5.042   8.084   0.511  0.00  0.00    -0.023 A 
ATOM     10  C   UNL     1       5.995   7.136   0.466  0.00  0.00    -0.004 A 
ATOM     11  S   UNL     1       5.105   5.607   0.313  0.00  0.00    -0.077 S 
ATOM     12  C   UNL     1       7.378   7.721   0.562  0.00  0.00    +0.043 C 
ATOM     13  C   UNL     1       7.159   9.149   1.110  0.00  0.00    +0.010 C 
ATOM     14  C   UNL     1       5.721   9.448   0.642  0.00  0.00    +0.037 C 
BRANCH   8  15
ATOM     15  C   UNL     1       2.526   8.507   0.451  0.00  0.00    +0.244 C 
ATOM     16  O   UNL     1       2.015   8.808   1.514  0.00  0.00    -0.270 OA
ATOM     17  N   UNL     1       2.041   9.018  -0.698  0.00  0.00    -0.325 N 
ATOM     18  H   UNL     1       2.448   8.778  -1.545  0.00  0.00    +0.145 HD
ATOM     19  H   UNL     1       1.286   9.626  -0.677  0.00  0.00    +0.145 HD
ENDBRANCH   8  15
ENDBRANCH   4   7
BRANCH   1  24
ATOM     20  C   UNL     1       1.222  -2.188   0.008  0.00  0.00    +0.044 C 
ATOM     21  C   UNL     1       1.206  -0.681   0.009  0.00  0.00    -0.050 A 
ATOM     22  C   UNL     1       2.145   0.019   0.744  0.00  0.00    +0.005 A 
ATOM     23  C   UNL     1       2.133   1.400   0.746  0.00  0.00    +0.023 A 
ATOM     24  C   UNL     1       1.177   2.086   0.009  0.00  0.00    +0.035 A 
ATOM     25  C   UNL     1       0.235   1.380  -0.729  0.00  0.00    +0.023 A 
ATOM     26  C   UNL     1       0.252  -0.001  -0.727  0.00  0.00    +0.005 A 
ENDBRANCH   1  24
TORSDOF 3
