REMARK  Name = ZINC11983132
REMARK  12 active torsions:
REMARK  status: ('A' for Active; 'I' for Inactive)
REMARK    1  A    between atoms: C_1  and  C_2
REMARK    2  A    between atoms: C_3  and  C_9
REMARK    3  A    between atoms: N_5  and  C_7
REMARK    4  A    between atoms: C_9  and  N_67
REMARK    5  A    between atoms: C_12  and  C_15
REMARK    6  A    between atoms: C_15  and  C_29
REMARK    7  A    between atoms: N_18  and  C_22
REMARK    8  A    between atoms: C_22  and  C_23
REMARK    9  A    between atoms: C_23  and  C_24
REMARK   10  A    between atoms: C_29  and  C_30
REMARK   11  A    between atoms: C_30  and  C_31
REMARK   12  A    between atoms: C_30  and  C_32
REMARK                            x       y       z     vdW  Elec       q    Type
REMARK                         _______ _______ _______ _____ _____    ______ ____
ROOT
ATOM      1  C   UNL     1      -6.272  -1.121   1.448  0.00  0.00    +0.115 C 
ATOM      2  C   UNL     1      -4.761  -1.042   1.361  0.00  0.00    +0.247 C 
ATOM      3  O   UNL     1      -3.989  -1.960   1.185  0.00  0.00    -0.273 OA
ATOM      4  N   UNL     1      -4.454   0.260   1.521  0.00  0.00    -0.224 N 
ATOM      5  C   UNL     1      -5.550   1.007   1.700  0.00  0.00    +0.309 C 
ATOM      6  O   UNL     1      -5.527   2.210   1.870  0.00  0.00    -0.252 OA
ATOM      7  N   UNL     1      -6.680   0.277   1.668  0.00  0.00    -0.285 N 
ATOM      8  H   UNL     1      -7.586   0.607   1.772  0.00  0.00    +0.151 HD
ENDROOT
BRANCH   1  11
ATOM      9  C   UNL     1      -6.623  -2.257   5.110  0.00  0.00    -0.078 C 
ATOM     10  C   UNL     1      -6.143  -1.411   3.929  0.00  0.00    -0.013 C 
ATOM     11  C   UNL     1      -6.698  -1.998   2.628  0.00  0.00    +0.018 C 
ATOM     12  C   UNL     1      -8.227  -2.040   2.708  0.00  0.00    -0.013 C 
ATOM     13  C   UNL     1      -8.646  -2.867   3.925  0.00  0.00    -0.078 C 
ATOM     14  N   UNL     1      -8.101  -2.236   5.146  0.00  0.00    +0.383 N 
ATOM     15  H   UNL     1      -8.419  -1.261   5.188  0.00  0.00    -0.081 HD
BRANCH  14  16
ATOM     16  C   UNL     1      -8.586  -2.952   6.344  0.00  0.00    -0.038 C 
BRANCH  16  19
ATOM     17  C   UNL     1     -10.857  -4.789   5.115  0.00  0.00    +0.068 C 
ATOM     18  C   UNL     1     -11.074  -3.540   5.931  0.00  0.00    +0.063 A 
ATOM     19  C   UNL     1     -10.071  -2.730   6.473  0.00  0.00    -0.005 A 
ATOM     20  C   UNL     1     -10.671  -1.714   7.139  0.00  0.00    +0.128 A 
ATOM     21  N   UNL     1     -12.005  -1.873   7.014  0.00  0.00    -0.256 N 
ATOM     22  N   UNL     1     -12.234  -3.027   6.255  0.00  0.00    -0.175 NA
ATOM     23  C   UNL     1     -13.034  -0.996   7.579  0.00  0.00    +0.174 C 
ATOM     24 CL   UNL     1      -9.867  -0.436   7.995  0.00  0.00    -0.062 Cl
ENDBRANCH  16  19
ENDBRANCH  14  16
ENDBRANCH   1  11
BRANCH   4  25
ATOM     25  C   UNL     1      -3.089   0.792   1.507  0.00  0.00    +0.123 C 
BRANCH  25  26
ATOM     26  C   UNL     1      -2.706   1.174   0.076  0.00  0.00    +0.062 C 
BRANCH  26  27
ATOM     27  C   UNL     1      -1.302   1.721   0.061  0.00  0.00    -0.009 A 
ATOM     28  C   UNL     1      -0.130   1.061  -0.105  0.00  0.00    +0.011 A 
ATOM     29  C   UNL     1       1.052   1.778  -0.089  0.00  0.00    +0.008 A 
ATOM     30  C   UNL     1       1.004   3.119   0.099  0.00  0.00    +0.045 A 
ATOM     31  S   UNL     1      -0.750   3.407   0.260  0.00  0.00    -0.102 S 
ENDBRANCH  26  27
ENDBRANCH  25  26
ENDBRANCH   4  25
BRANCH   1  32
ATOM     32  C   UNL     1      -6.859  -1.658   0.141  0.00  0.00    +0.038 C 
BRANCH  32  33
ATOM     33  C   UNL     1      -6.394  -0.782  -1.024  0.00  0.00    -0.015 C 
ATOM     34  C   UNL     1      -6.803  -1.434  -2.346  0.00  0.00    +0.007 C 
ATOM     35  C   UNL     1      -7.043   0.599  -0.914  0.00  0.00    +0.007 C 
ENDBRANCH  32  33
ENDBRANCH   1  32
TORSDOF 8
