REMARK  Name = ZINC02293248
REMARK  14 active torsions:
REMARK  status: ('A' for Active; 'I' for Inactive)
REMARK    1  A    between atoms: C_1  and  C_2
REMARK    2  A    between atoms: C_2  and  C_3
REMARK    3  A    between atoms: C_2  and  O_4
REMARK    4  A    between atoms: O_4  and  P_5
REMARK    5  A    between atoms: P_5  and  C_7
REMARK    6  A    between atoms: P_5  and  O_24
REMARK    7  A    between atoms: C_7  and  C_9
REMARK    8  A    between atoms: C_7  and  N_16
REMARK    9  A    between atoms: C_13  and  N_15
REMARK   10  A    between atoms: N_16  and  C_17
REMARK   11  A    between atoms: C_21  and  N_23
REMARK   12  A    between atoms: O_24  and  C_25
REMARK   13  A    between atoms: C_25  and  C_26
REMARK   14  A    between atoms: C_25  and  C_27
REMARK                            x       y       z     vdW  Elec       q    Type
REMARK                         _______ _______ _______ _____ _____    ______ ____
ROOT
ATOM      1  C   UNL     1       1.233   5.937   0.124  0.00  0.00    +0.216 C 
ENDROOT
BRANCH   1   2
ATOM      2  C   UNL     1       0.955   6.973  -0.934  0.00  0.00    -0.014 A 
ATOM      3  C   UNL     1      -0.349   7.340  -1.215  0.00  0.00    +0.006 A 
ATOM      4  C   UNL     1      -0.608   8.291  -2.185  0.00  0.00    +0.002 A 
ATOM      5  C   UNL     1       0.434   8.877  -2.876  0.00  0.00    +0.023 A 
ATOM      6  C   UNL     1       1.744   8.511  -2.596  0.00  0.00    +0.025 A 
ATOM      7  C   UNL     1       2.002   7.559  -1.617  0.00  0.00    +0.028 A 
BRANCH   6   8
ATOM      8  N   UNL     1       2.800   9.101  -3.294  0.00  0.00    -0.358 N 
ATOM      9  H   UNL     1       2.619   9.768  -3.974  0.00  0.00    +0.142 HD
ATOM     10  H   UNL     1       3.715   8.845  -3.097  0.00  0.00    +0.142 HD
ENDBRANCH   6   8
ENDBRANCH   1   2
BRANCH   1  11
ATOM     11  P   UNL     1       1.291   6.739   1.760  0.00  0.00    +0.358 P 
ATOM     12  O   UNL     1       0.035   7.490   1.986  0.00  0.00    -0.256 OA
BRANCH  11  13
ATOM     13  O   UNL     1       1.457   5.616   2.902  0.00  0.00    -0.304 OA
BRANCH  13  15
ATOM     14  C   UNL     1       0.125   5.292   4.893  0.00  0.00    +0.038 C 
ATOM     15  C   UNL     1       1.392   5.912   4.299  0.00  0.00    +0.122 C 
ATOM     16  C   UNL     1       2.621   5.332   5.001  0.00  0.00    +0.038 C 
ENDBRANCH  13  15
ENDBRANCH  11  13
BRANCH  11  17
ATOM     17  O   UNL     1       2.540   7.752   1.817  0.00  0.00    -0.304 OA
BRANCH  17  18
ATOM     18  C   UNL     1       2.784   8.626   2.922  0.00  0.00    +0.122 C 
ATOM     19  C   UNL     1       4.200   8.394   3.453  0.00  0.00    +0.038 C 
ATOM     20  C   UNL     1       2.642  10.079   2.463  0.00  0.00    +0.038 C 
ENDBRANCH  17  18
ENDBRANCH  11  17
ENDBRANCH   1  11
BRANCH   1  21
ATOM     21  N   UNL     1       0.170   4.928   0.112  0.00  0.00    -0.327 N 
ATOM     22  H   UNL     1      -0.757   5.202   0.040  0.00  0.00    +0.147 HD
BRANCH  21  23
ATOM     23  C   UNL     1       0.493   3.572   0.202  0.00  0.00    +0.030 A 
ATOM     24  C   UNL     1       1.819   3.180   0.338  0.00  0.00    +0.023 A 
ATOM     25  C   UNL     1       2.139   1.840   0.428  0.00  0.00    +0.004 A 
ATOM     26  C   UNL     1       1.143   0.884   0.385  0.00  0.00    +0.023 A 
ATOM     27  C   UNL     1      -0.185   1.269   0.244  0.00  0.00    +0.026 A 
ATOM     28  C   UNL     1      -0.510   2.615   0.158  0.00  0.00    +0.045 A 
BRANCH  27  29
ATOM     29  N   UNL     1      -1.192   0.302   0.194  0.00  0.00    -0.358 N 
ATOM     30  H   UNL     1      -0.964  -0.639   0.257  0.00  0.00    +0.142 HD
ATOM     31  H   UNL     1      -2.119   0.571   0.095  0.00  0.00    +0.142 HD
ENDBRANCH  27  29
ENDBRANCH  21  23
ENDBRANCH   1  21
TORSDOF 10
