REMARK  Name = ZINC40982551
REMARK  9 active torsions:
REMARK  status: ('A' for Active; 'I' for Inactive)
REMARK    1  A    between atoms: C_1  and  C_2
REMARK    2  A    between atoms: C_2  and  C_3
REMARK    3  A    between atoms: C_3  and  S_4
REMARK    4  A    between atoms: S_4  and  C_5
REMARK    5  A    between atoms: C_10  and  C_26
REMARK    6  A    between atoms: C_12  and  C_16
REMARK    7  A    between atoms: C_13  and  C_15
REMARK    8  A    between atoms: N_18  and  C_19
REMARK    9  A    between atoms: C_22  and  C_25
REMARK                            x       y       z     vdW  Elec       q    Type
REMARK                         _______ _______ _______ _____ _____    ______ ____
ROOT
ATOM      1  C   UNL     1      -3.106  -2.769   0.134  0.00  0.00    +0.210 A 
ATOM      2  N   UNL     1      -4.147  -1.925   0.078  0.00  0.00    -0.187 NA
ATOM      3  C   UNL     1      -5.261  -2.607   0.063  0.00  0.00    +0.219 A 
ATOM      4  N   UNL     1      -4.948  -3.925   0.104  0.00  0.00    -0.220 N 
ATOM      5  N   UNL     1      -3.557  -4.005   0.147  0.00  0.00    -0.141 NA
ATOM      6  C   UNL     1      -5.945  -4.993   0.092  0.00  0.00    +0.178 C 
ATOM      7  C   UNL     1      -7.311  -4.406   0.328  0.00  0.00    +0.060 C 
ATOM      8  C   UNL     1      -7.560  -3.089   0.279  0.00  0.00    +0.018 C 
ATOM      9  N   UNL     1      -6.576  -2.167   0.017  0.00  0.00    -0.287 N 
ATOM     10  C   UNL     1      -8.967  -2.605   0.517  0.00  0.00    +0.061 C 
ATOM     11  H   UNL     1      -6.793  -1.245  -0.191  0.00  0.00    +0.155 HD
ENDROOT
BRANCH   6  12
ATOM     12  C   UNL     1      -5.921  -5.688  -1.245  0.00  0.00    -0.011 A 
ATOM     13  C   UNL     1      -6.276  -5.013  -2.373  0.00  0.00    +0.007 A 
ATOM     14  C   UNL     1      -6.260  -5.639  -3.618  0.00  0.00    +0.001 A 
ATOM     15  C   UNL     1      -5.889  -6.943  -3.742  0.00  0.00    +0.008 A 
ATOM     16  C   UNL     1      -5.516  -7.671  -2.600  0.00  0.00    -0.018 A 
ATOM     17  C   UNL     1      -5.526  -7.033  -1.335  0.00  0.00    -0.012 A 
ATOM     18  C   UNL     1      -5.147  -7.760  -0.193  0.00  0.00    +0.009 A 
ATOM     19  C   UNL     1      -4.771  -9.062  -0.319  0.00  0.00    +0.001 A 
ATOM     20  C   UNL     1      -4.754  -9.688  -1.564  0.00  0.00    +0.001 A 
ATOM     21  C   UNL     1      -5.127  -9.019  -2.689  0.00  0.00    +0.008 A 
ENDBRANCH   6  12
BRANCH   7  22
ATOM     22  C   UNL     1      -8.382  -5.285   0.615  0.00  0.00    +0.248 C 
ATOM     23  O   UNL     1      -8.570  -5.662   1.757  0.00  0.00    -0.270 OA
ATOM     24  N   UNL     1      -9.194  -5.703  -0.376  0.00  0.00    -0.282 N 
ATOM     25  H   UNL     1      -9.098  -5.337  -1.269  0.00  0.00    +0.155 HD
BRANCH  24  26
ATOM     26  C   UNL     1     -10.175  -6.666  -0.116  0.00  0.00    +0.034 A 
ATOM     27  C   UNL     1     -11.318  -6.724  -0.903  0.00  0.00    +0.023 A 
ATOM     28  C   UNL     1     -12.285  -7.676  -0.644  0.00  0.00    +0.005 A 
ATOM     29  C   UNL     1     -12.116  -8.570   0.398  0.00  0.00    -0.050 A 
ATOM     30  C   UNL     1     -10.979  -8.514   1.183  0.00  0.00    +0.005 A 
ATOM     31  C   UNL     1     -10.005  -7.569   0.926  0.00  0.00    +0.023 A 
ATOM     32  C   UNL     1     -13.173  -9.607   0.678  0.00  0.00    +0.044 C 
ENDBRANCH  24  26
ENDBRANCH   7  22
BRANCH   1  33
ATOM     33  S   UNL     1      -1.409  -2.299   0.174  0.00  0.00    -0.084 S 
BRANCH  33  34
ATOM     34  C   UNL     1      -1.455  -0.486   0.133  0.00  0.00    +0.077 C 
BRANCH  34  36
ATOM     35  C   UNL     1      -0.065   1.590   0.129  0.00  0.00    +0.004 C 
ATOM     36  C   UNL     1      -0.026   0.061   0.163  0.00  0.00    +0.008 C 
ENDBRANCH  34  36
ENDBRANCH  33  34
ENDBRANCH   1  33
TORSDOF 6
