REMARK  Name = ZINC37452574
REMARK  4 active torsions:
REMARK  status: ('A' for Active; 'I' for Inactive)
REMARK    1  A    between atoms: CB_1  and  CA_2
REMARK    2  A    between atoms: CA_2  and  C_4
REMARK    3  A    between atoms: CA_2  and  N_21
REMARK    4  A    between atoms: CA_16  and  C_18
REMARK                            x       y       z     vdW  Elec       q    Type
REMARK                         _______ _______ _______ _____ _____    ______ ____
ROOT
ATOM      1  C   UNL     1       0.597  -0.491  -1.294  0.00  0.00    +0.237 C 
ATOM      2  O   UNL     1      -0.084  -1.121  -2.075  0.00  0.00    -0.274 OA
ATOM      3  N   UNL     1       1.888  -0.232  -1.583  0.00  0.00    -0.283 N 
ATOM      4  C   UNL     1       2.572  -0.538  -2.828  0.00  0.00    +0.080 C 
ATOM      5  C   UNL     1       1.757  -0.519  -4.104  0.00  0.00    +0.023 C 
ATOM      6  C   UNL     1       2.698  -0.909  -5.256  0.00  0.00    +0.002 C 
ATOM      7  C   UNL     1       3.898   0.030  -5.336  0.00  0.00    +0.000 C 
ATOM      8  C   UNL     1       4.649   0.100  -3.997  0.00  0.00    +0.005 C 
ATOM      9  C   UNL     1       3.643   0.580  -2.956  0.00  0.00    +0.012 C 
ATOM     10  C   UNL     1       4.178   0.611  -1.516  0.00  0.00    +0.039 C 
ATOM     11  CA  UNL     1       2.874   0.425  -0.693  0.00  0.00    +0.190 C 
ENDROOT
BRANCH  11  12
ATOM     12  C   UNL     1       3.147  -0.449   0.505  0.00  0.00    +0.376 C 
ATOM     13  O   UNL     1       3.063  -1.661   0.407  0.00  0.00    -0.244 OA
ATOM     14  OXT UNL     1       3.451   0.057   1.572  0.00  0.00    -0.244 OA
ENDBRANCH  11  12
BRANCH   1  16
ATOM     15  CB  UNL     1      -0.512   1.430  -0.186  0.00  0.00    +0.038 C 
ATOM     16  CA  UNL     1       0.001   0.001  -0.001  0.00  0.00    +0.157 C 
BRANCH  16  17
ATOM     17  N   UNL     1      -1.111  -0.871   0.387  0.00  0.00    -0.289 N 
ATOM     18  C   UNL     1      -1.471  -0.969   1.682  0.00  0.00    +0.298 C 
ATOM     19  O   UNL     1      -0.872  -0.334   2.529  0.00  0.00    -0.253 OA
ATOM     20  N   UNL     1      -2.494  -1.771   2.039  0.00  0.00    -0.313 N 
ATOM     21  H   UNL     1      -1.589  -1.377  -0.288  0.00  0.00    +0.151 HD
ATOM     22  H   UNL     1      -2.972  -2.277   1.363  0.00  0.00    +0.146 HD
ATOM     23  H   UNL     1      -2.753  -1.841   2.971  0.00  0.00    +0.146 HD
ENDBRANCH  16  17
ENDBRANCH   1  16
TORSDOF 3
