REMARK  Name = ZINC35470946
REMARK  8 active torsions:
REMARK  status: ('A' for Active; 'I' for Inactive)
REMARK    1  A    between atoms: C_1  and  C_2
REMARK    2  A    between atoms: C_5  and  C_8
REMARK    3  A    between atoms: C_11  and  C_16
REMARK    4  A    between atoms: C_16  and  C_17
REMARK    5  A    between atoms: C_17  and  N_18
REMARK    6  A    between atoms: N_18  and  C_19
REMARK    7  A    between atoms: C_19  and  C_20
REMARK    8  A    between atoms: N_27  and  C_28
REMARK                            x       y       z     vdW  Elec       q    Type
REMARK                         _______ _______ _______ _____ _____    ______ ____
ROOT
ATOM      1  N   UNL     1       1.560  -7.879   4.645  0.00  0.00    -0.278 N 
ATOM      2  C   UNL     1       1.431  -6.801   5.443  0.00  0.00    +0.307 C 
ATOM      3  O   UNL     1       1.316  -5.693   4.954  0.00  0.00    -0.252 OA
ATOM      4  N   UNL     1       1.430  -6.949   6.782  0.00  0.00    -0.269 N 
ATOM      5  H   UNL     1       1.440  -7.838   7.172  0.00  0.00    +0.156 HD
ENDROOT
BRANCH   4   6
ATOM      6  C   UNL     1       1.415  -5.825   7.610  0.00  0.00    +0.042 A 
ATOM      7  C   UNL     1       1.901  -4.619   7.153  0.00  0.00    +0.024 A 
ATOM      8  C   UNL     1       1.891  -3.492   7.970  0.00  0.00    +0.002 A 
ATOM      9  C   UNL     1       1.402  -3.548   9.239  0.00  0.00    +0.008 A 
ATOM     10  C   UNL     1       0.896  -4.759   9.743  0.00  0.00    -0.016 A 
ATOM     11  C   UNL     1       0.896  -5.911   8.919  0.00  0.00    +0.003 A 
ATOM     12  C   UNL     1       0.385  -7.118   9.422  0.00  0.00    +0.010 A 
ATOM     13  C   UNL     1      -0.108  -7.165  10.690  0.00  0.00    +0.001 A 
ATOM     14  C   UNL     1      -0.114  -6.030  11.499  0.00  0.00    +0.001 A 
ATOM     15  C   UNL     1       0.384  -4.846  11.050  0.00  0.00    +0.008 A 
ENDBRANCH   4   6
BRANCH   1  16
ATOM     16  C   UNL     1       1.561  -7.718   3.189  0.00  0.00    +0.116 C 
BRANCH  16  17
ATOM     17  C   UNL     1       0.128  -7.819   2.664  0.00  0.00    +0.073 C 
BRANCH  17  21
ATOM     18  C   UNL     1       0.056  -4.268  -0.026  0.00  0.00    +0.090 A 
ATOM     19  C   UNL     1       0.071  -5.070   1.067  0.00  0.00    +0.121 A 
ATOM     20  N   UNL     1       0.102  -6.386   0.622  0.00  0.00    -0.297 N 
ATOM     21  C   UNL     1       0.129  -7.652   1.166  0.00  0.00    +0.034 A 
ATOM     22  C   UNL     1       0.156  -8.731   0.384  0.00  0.00    +0.070 A 
ATOM     23  S   UNL     1       0.145  -8.005  -1.247  0.00  0.00    -0.057 S 
ATOM     24  C   UNL     1       0.104  -6.299  -0.746  0.00  0.00    +0.178 A 
ATOM     25  N   UNL     1       0.072  -5.054  -1.122  0.00  0.00    -0.221 NA
BRANCH  18  30
ATOM     26  C   UNL     1      -0.074   1.489   0.006  0.00  0.00    +0.044 C 
ATOM     27  C   UNL     1      -0.040  -0.017  -0.002  0.00  0.00    -0.050 A 
ATOM     28  C   UNL     1      -0.026  -0.700  -1.206  0.00  0.00    +0.004 A 
ATOM     29  C   UNL     1       0.005  -2.079  -1.219  0.00  0.00    +0.010 A 
ATOM     30  C   UNL     1       0.023  -2.785  -0.018  0.00  0.00    +0.002 A 
ATOM     31  C   UNL     1       0.009  -2.092   1.192  0.00  0.00    +0.010 A 
ATOM     32  C   UNL     1      -0.017  -0.712   1.193  0.00  0.00    +0.004 A 
ENDBRANCH  18  30
ENDBRANCH  17  21
ENDBRANCH  16  17
ENDBRANCH   1  16
BRANCH   1  33
ATOM     33  C   UNL     1       1.699  -9.213   5.234  0.00  0.00    +0.183 C 
BRANCH  33  34
ATOM     34  C   UNL     1       3.159  -9.516   5.454  0.00  0.00    +0.122 A 
ATOM     35  C   UNL     1       3.859  -9.244   6.570  0.00  0.00    +0.046 A 
ATOM     36  C   UNL     1       5.180  -9.693   6.345  0.00  0.00    +0.041 A 
ATOM     37  C   UNL     1       5.209 -10.212   5.104  0.00  0.00    +0.195 A 
ATOM     38  O   UNL     1       3.980 -10.108   4.572  0.00  0.00    -0.466 OA
ENDBRANCH  33  34
ENDBRANCH   1  33
TORSDOF 7
