REMARK  Name = ZINC43218059
REMARK  11 active torsions:
REMARK  status: ('A' for Active; 'I' for Inactive)
REMARK    1  A    between atoms: C_1  and  C_2
REMARK    2  A    between atoms: C_2  and  C_3
REMARK    3  A    between atoms: C_3  and  C_4
REMARK    4  A    between atoms: C_4  and  C_5
REMARK    5  A    between atoms: C_5  and  C_7
REMARK    6  A    between atoms: C_5  and  N_28
REMARK    7  A    between atoms: C_9  and  C_12
REMARK    8  A    between atoms: N_14  and  C_15
REMARK    9  A    between atoms: C_15  and  C_16
REMARK   10  A    between atoms: C_16  and  N_17
REMARK   11  A    between atoms: N_17  and  C_18
REMARK                            x       y       z     vdW  Elec       q    Type
REMARK                         _______ _______ _______ _____ _____    ______ ____
ROOT
ATOM      1  C   UNL     1      -3.224  -7.215   1.856  0.00  0.00    +0.266 C 
ATOM      2  O   UNL     1      -3.074  -8.362   1.480  0.00  0.00    -0.268 OA
ATOM      3  N   UNL     1      -3.604  -6.966   3.124  0.00  0.00    -0.309 N 
ATOM      4  H   UNL     1      -3.724  -6.051   3.424  0.00  0.00    +0.149 HD
ENDROOT
BRANCH   1   7
ATOM      5  C   UNL     1      -2.828  -4.096   0.131  0.00  0.00    +0.182 A 
ATOM      6  N   UNL     1      -3.119  -4.771   1.202  0.00  0.00    -0.210 NA
ATOM      7  C   UNL     1      -2.990  -6.097   0.923  0.00  0.00    +0.163 A 
ATOM      8  C   UNL     1      -2.605  -6.197  -0.378  0.00  0.00    +0.230 A 
ATOM      9  O   UNL     1      -2.514  -4.946  -0.857  0.00  0.00    -0.449 OA
BRANCH   5  10
ATOM     10  C   UNL     1      -2.848  -2.593   0.015  0.00  0.00    +0.013 C 
BRANCH  10  11
ATOM     11  N   UNL     1      -3.522  -2.207  -1.232  0.00  0.00    +0.386 N 
ATOM     12  H   UNL     1      -3.535  -1.201  -1.309  0.00  0.00    -0.089 HD
ATOM     13  H   UNL     1      -3.025  -2.598  -2.018  0.00  0.00    -0.089 HD
ATOM     14  H   UNL     1      -4.468  -2.556  -1.224  0.00  0.00    -0.089 HD
ENDBRANCH  10  11
BRANCH  10  15
ATOM     15  C   UNL     1      -1.413  -2.063   0.004  0.00  0.00    -0.007 C 
BRANCH  15  16
ATOM     16  C   UNL     1      -1.433  -0.534   0.013  0.00  0.00    -0.001 C 
BRANCH  16  18
ATOM     17  C   UNL     1      -0.019   1.526   0.010  0.00  0.00    +0.004 C 
ATOM     18  C   UNL     1       0.002  -0.004   0.002  0.00  0.00    -0.003 C 
ENDBRANCH  16  18
ENDBRANCH  15  16
ENDBRANCH  10  15
ENDBRANCH   5  10
ENDBRANCH   1   7
BRANCH   3  19
ATOM     19  C   UNL     1      -3.837  -8.076   4.051  0.00  0.00    +0.123 C 
BRANCH  19  20
ATOM     20  C   UNL     1      -4.256  -7.524   5.415  0.00  0.00    +0.120 C 
BRANCH  20  21
ATOM     21  N   UNL     1      -4.488  -8.634   6.341  0.00  0.00    -0.342 N 
ATOM     22  H   UNL     1      -4.368  -9.549   6.042  0.00  0.00    +0.146 HD
BRANCH  21  23
ATOM     23  C   UNL     1      -4.881  -8.377   7.653  0.00  0.00    +0.035 A 
ATOM     24  C   UNL     1      -5.059  -7.079   8.084  0.00  0.00    +0.023 A 
ATOM     25  C   UNL     1      -5.452  -6.811   9.391  0.00  0.00    +0.002 A 
ATOM     26  C   UNL     1      -5.671  -7.819  10.280  0.00  0.00    +0.008 A 
ATOM     27  C   UNL     1      -5.501  -9.156   9.881  0.00  0.00    -0.016 A 
ATOM     28  C   UNL     1      -5.107  -9.442   8.551  0.00  0.00    +0.003 A 
ATOM     29  C   UNL     1      -4.942 -10.778   8.153  0.00  0.00    +0.010 A 
ATOM     30  C   UNL     1      -5.168 -11.780   9.046  0.00  0.00    +0.001 A 
ATOM     31  C   UNL     1      -5.562 -11.500  10.353  0.00  0.00    +0.001 A 
ATOM     32  C   UNL     1      -5.720 -10.217  10.777  0.00  0.00    +0.008 A 
ENDBRANCH  21  23
ENDBRANCH  20  21
ENDBRANCH  19  20
ENDBRANCH   3  19
TORSDOF 10
