REMARK  Name = ZINC13064466
REMARK  9 active torsions:
REMARK  status: ('A' for Active; 'I' for Inactive)
REMARK    1  A    between atoms: C_1  and  C_2
REMARK    2  A    between atoms: C_2  and  C_3
REMARK    3  A    between atoms: C_3  and  C_5
REMARK    4  A    between atoms: C_3  and  N_69
REMARK    5  A    between atoms: N_9  and  C_10
REMARK    6  A    between atoms: C_10  and  C_11
REMARK    7  A    between atoms: C_16  and  C_17
REMARK    8  A    between atoms: C_16  and  N_69
REMARK    9  A    between atoms: C_33  and  N_69
REMARK                            x       y       z     vdW  Elec       q    Type
REMARK                         _______ _______ _______ _____ _____    ______ ____
ROOT
ATOM      1  N   UNL     1       0.610   3.580   0.740  0.00  0.00    +0.391 N 
ATOM      2  H   UNL     1      -0.404   3.477   0.621  0.00  0.00    -0.080 HD
ENDROOT
BRANCH   1   3
ATOM      3  C   UNL     1       1.082   2.579   1.721  0.00  0.00    -0.067 C 
ATOM      4  C   UNL     1       1.384   1.264   1.001  0.00  0.00    -0.015 C 
ATOM      5  C   UNL     1       1.846   0.219   2.019  0.00  0.00    -0.002 C 
ATOM      6  C   UNL     1       0.741  -0.008   3.053  0.00  0.00    -0.000 C 
ATOM      7  C   UNL     1       0.439   1.308   3.774  0.00  0.00    -0.002 C 
ATOM      8  C   UNL     1      -0.022   2.353   2.756  0.00  0.00    -0.015 C 
ENDBRANCH   1   3
BRANCH   1   9
ATOM      9  C   UNL     1       1.272   3.360  -0.563  0.00  0.00    +0.003 C 
BRANCH   9  10
ATOM     10  C   UNL     1       0.412   3.958  -1.646  0.00  0.00    +0.139 A 
ATOM     11  N   UNL     1      -0.139   5.147  -1.641  0.00  0.00    -0.115 NA
ATOM     12  N   UNL     1      -0.794   5.287  -2.742  0.00  0.00    -0.023 NA
ATOM     13  N   UNL     1      -0.675   4.217  -3.449  0.00  0.00    -0.044 NA
ATOM     14  N   UNL     1       0.061   3.374  -2.808  0.00  0.00    -0.223 N 
BRANCH  14  15
ATOM     15  C   UNL     1       0.445   2.034  -3.259  0.00  0.00    +0.221 C 
BRANCH  15  16
ATOM     16  C   UNL     1       1.734   2.115  -4.034  0.00  0.00    +0.126 A 
ATOM     17  C   UNL     1       2.972   2.014  -3.516  0.00  0.00    +0.046 A 
ATOM     18  C   UNL     1       3.879   2.143  -4.593  0.00  0.00    +0.041 A 
ATOM     19  C   UNL     1       3.142   2.325  -5.703  0.00  0.00    +0.195 A 
ATOM     20  O   UNL     1       1.844   2.307  -5.359  0.00  0.00    -0.466 OA
ENDBRANCH  15  16
ENDBRANCH  14  15
ENDBRANCH   9  10
BRANCH   9  22
ATOM     21  C   UNL     1       3.563   3.333   0.433  0.00  0.00    +0.002 C 
ATOM     22  C   UNL     1       2.650   4.025  -0.581  0.00  0.00    -0.011 C 
ENDBRANCH   9  22
ENDBRANCH   1   9
BRANCH   1  23
ATOM     23  C   UNL     1       0.900   4.944   1.231  0.00  0.00    -0.036 C 
BRANCH  23  24
ATOM     24  C   UNL     1      -0.077   5.281   2.328  0.00  0.00    +0.001 A 
ATOM     25  C   UNL     1       0.317   5.222   3.626  0.00  0.00    +0.017 A 
ATOM     26  C   UNL     1      -0.652   5.560   4.667  0.00  0.00    +0.002 A 
ATOM     27  C   UNL     1      -0.301   5.521   6.021  0.00  0.00    +0.059 A 
ATOM     28  C   UNL     1      -1.238   5.842   6.981  0.00  0.00    +0.163 A 
ATOM     29  C   UNL     1      -2.534   6.204   6.606  0.00  0.00    +0.164 A 
ATOM     30  C   UNL     1      -2.891   6.244   5.269  0.00  0.00    +0.075 A 
ATOM     31  C   UNL     1      -1.960   5.923   4.290  0.00  0.00    +0.053 A 
ATOM     32  N   UNL     1      -2.298   5.958   2.952  0.00  0.00    -0.322 N 
ATOM     33  H   UNL     1      -3.199   6.207   2.693  0.00  0.00    +0.169 HD
ATOM     34  C   UNL     1      -1.397   5.650   2.003  0.00  0.00    +0.251 A 
ATOM     35  O   UNL     1      -1.732   5.692   0.831  0.00  0.00    -0.268 OA
ATOM     36  O   UNL     1      -3.463   6.526   7.547  0.00  0.00    -0.485 OA
ATOM     37  C   UNL     1      -3.188   6.116   8.890  0.00  0.00    +0.270 C 
ATOM     38  C   UNL     1      -1.734   6.483   9.217  0.00  0.00    +0.270 C 
ATOM     39  O   UNL     1      -0.881   5.797   8.295  0.00  0.00    -0.485 OA
ENDBRANCH  23  24
ENDBRANCH   1  23
TORSDOF 8
