REMARK  Name = ZINC13495217
REMARK  11 active torsions:
REMARK  status: ('A' for Active; 'I' for Inactive)
REMARK    1  A    between atoms: C_1  and  C_2
REMARK    2  A    between atoms: C_2  and  C_3
REMARK    3  A    between atoms: C_3  and  C_5
REMARK    4  A    between atoms: C_3  and  N_16
REMARK    5  A    between atoms: N_9  and  C_10
REMARK    6  A    between atoms: N_16  and  C_17
REMARK    7  A    between atoms: N_16  and  C_26
REMARK    8  A    between atoms: C_17  and  C_18
REMARK    9  A    between atoms: C_21  and  O_24
REMARK   10  A    between atoms: O_24  and  C_25
REMARK   11  A    between atoms: C_26  and  C_27
REMARK                            x       y       z     vdW  Elec       q    Type
REMARK                         _______ _______ _______ _____ _____    ______ ____
ROOT
ATOM      1  N   UNL     1       2.219   0.619   1.081  0.00  0.00    -0.284 NA
ENDROOT
BRANCH   1   2
ATOM      2  C   UNL     1       0.896  -0.016   1.143  0.00  0.00    +0.127 C 
BRANCH   2   3
ATOM      3  C   UNL     1       0.202   0.138  -0.186  0.00  0.00    +0.169 A 
ATOM      4  N   UNL     1       0.382   1.102  -1.055  0.00  0.00    -0.112 NA
ATOM      5  N   UNL     1      -0.392   0.879  -2.061  0.00  0.00    -0.023 NA
ATOM      6  N   UNL     1      -1.060  -0.202  -1.856  0.00  0.00    -0.044 NA
ATOM      7  N   UNL     1      -0.718  -0.691  -0.712  0.00  0.00    -0.225 N 
BRANCH   7   8
ATOM      8  C   UNL     1      -1.237  -1.917  -0.101  0.00  0.00    +0.111 C 
ATOM      9  C   UNL     1      -0.828  -3.123  -0.949  0.00  0.00    +0.027 C 
ATOM     10  C   UNL     1      -1.369  -4.403  -0.310  0.00  0.00    +0.002 C 
ATOM     11  C   UNL     1      -2.896  -4.329  -0.232  0.00  0.00    +0.000 C 
ATOM     12  C   UNL     1      -3.304  -3.123   0.616  0.00  0.00    +0.002 C 
ATOM     13  C   UNL     1      -2.763  -1.842  -0.023  0.00  0.00    +0.027 C 
ENDBRANCH   7   8
ENDBRANCH   2   3
BRANCH   2  15
ATOM     14  C   UNL     1       0.720   0.423   3.597  0.00  0.00    +0.006 C 
ATOM     15  C   UNL     1       0.059   0.653   2.236  0.00  0.00    +0.023 C 
ENDBRANCH   2  15
ENDBRANCH   1   2
BRANCH   1  16
ATOM     16  C   UNL     1       3.175  -0.069   1.959  0.00  0.00    +0.120 C 
BRANCH  16  17
ATOM     17  C   UNL     1       3.594  -1.370   1.325  0.00  0.00    -0.033 A 
ATOM     18  C   UNL     1       2.969  -2.548   1.690  0.00  0.00    +0.008 A 
ATOM     19  C   UNL     1       3.351  -3.742   1.109  0.00  0.00    +0.046 A 
ATOM     20  C   UNL     1       4.362  -3.758   0.160  0.00  0.00    +0.120 A 
ATOM     21  C   UNL     1       4.987  -2.575  -0.205  0.00  0.00    +0.046 A 
ATOM     22  C   UNL     1       4.598  -1.383   0.374  0.00  0.00    +0.008 A 
BRANCH  20  23
ATOM     23  O   UNL     1       4.741  -4.932  -0.412  0.00  0.00    -0.495 OA
ATOM     24  C   UNL     1       5.788  -4.873  -1.382  0.00  0.00    +0.277 C 
ENDBRANCH  20  23
ENDBRANCH  16  17
ENDBRANCH   1  16
BRANCH   1  25
ATOM     25  C   UNL     1       2.133   2.048   1.413  0.00  0.00    +0.126 C 
BRANCH  25  26
ATOM     26  C   UNL     1       1.581   2.805   0.233  0.00  0.00    +0.031 A 
ATOM     27  C   UNL     1       0.306   3.271   0.266  0.00  0.00    +0.020 A 
ATOM     28  C   UNL     1      -0.201   4.002  -0.895  0.00  0.00    +0.003 A 
ATOM     29  C   UNL     1      -1.508   4.505  -0.917  0.00  0.00    +0.059 A 
ATOM     30  C   UNL     1      -1.958   5.188  -2.025  0.00  0.00    +0.167 A 
ATOM     31  C   UNL     1      -1.113   5.383  -3.126  0.00  0.00    +0.168 A 
ATOM     32  C   UNL     1       0.179   4.890  -3.112  0.00  0.00    +0.075 A 
ATOM     33  C   UNL     1       0.647   4.198  -2.002  0.00  0.00    +0.053 A 
ATOM     34  N   UNL     1       1.934   3.699  -1.971  0.00  0.00    -0.322 N 
ATOM     35  H   UNL     1       2.518   3.834  -2.734  0.00  0.00    +0.169 HD
ATOM     36  C   UNL     1       2.391   3.032  -0.897  0.00  0.00    +0.254 A 
ATOM     37  O   UNL     1       3.534   2.608  -0.904  0.00  0.00    -0.268 OA
ATOM     38  O   UNL     1      -1.797   6.082  -4.077  0.00  0.00    -0.453 OA
ATOM     39  C   UNL     1      -3.187   5.957  -3.724  0.00  0.00    +0.466 C 
ATOM     40  O   UNL     1      -3.164   5.768  -2.297  0.00  0.00    -0.453 OA
ENDBRANCH  25  26
ENDBRANCH   1  25
TORSDOF 9
