REMARK  Name = ZINC00369064
REMARK  7 active torsions:
REMARK  status: ('A' for Active; 'I' for Inactive)
REMARK    1  A    between atoms: C_1  and  C_2
REMARK    2  A    between atoms: C_2  and  C_3
REMARK    3  A    between atoms: C_10  and  N_15
REMARK    4  A    between atoms: C_11  and  C_12
REMARK    5  A    between atoms: C_16  and  C_18
REMARK    6  A    between atoms: C_18  and  C_19
REMARK    7  A    between atoms: C_19  and  C_20
REMARK                            x       y       z     vdW  Elec       q    Type
REMARK                         _______ _______ _______ _____ _____    ______ ____
ROOT
ATOM      1  C   UNL     1       3.461   3.931   0.371  0.00  0.00    -0.006 C 
ATOM      2  C   UNL     1       3.612   2.663  -0.475  0.00  0.00    +0.008 C 
ATOM      3  C   UNL     1       2.604   1.608  -0.015  0.00  0.00    +0.037 C 
ATOM      4  C   UNL     1       1.214   2.232   0.003  0.00  0.00    -0.023 A 
ATOM      5  C   UNL     1       1.054   3.574   0.012  0.00  0.00    -0.004 A 
ATOM      6  S   UNL     1      -0.699   3.820   0.029  0.00  0.00    -0.077 S 
ATOM      7  C   UNL     1      -1.214   2.165   0.019  0.00  0.00    +0.084 A 
ATOM      8  C   UNL     1      -0.018   1.462   0.010  0.00  0.00    +0.068 A 
ATOM      9  C   UNL     1       2.133   4.612   0.008  0.00  0.00    +0.046 C 
ENDROOT
BRANCH   8  10
ATOM     10  C   UNL     1       0.002  -0.004   0.002  0.00  0.00    +0.244 C 
ATOM     11  O   UNL     1       0.020  -0.618   1.053  0.00  0.00    -0.270 OA
ATOM     12  N   UNL     1       0.000  -0.672  -1.169  0.00  0.00    -0.325 N 
ATOM     13  H   UNL     1      -0.015  -0.182  -2.006  0.00  0.00    +0.145 HD
ATOM     14  H   UNL     1       0.013  -1.641  -1.174  0.00  0.00    +0.145 HD
ENDBRANCH   8  10
BRANCH   7  15
ATOM     15  N   UNL     1      -2.507   1.665   0.022  0.00  0.00    -0.279 N 
ATOM     16  C   UNL     1      -3.557   2.511   0.032  0.00  0.00    +0.218 C 
ATOM     17  O   UNL     1      -3.370   3.710   0.038  0.00  0.00    -0.275 OA
ATOM     18  H   UNL     1      -2.657   0.707   0.017  0.00  0.00    +0.155 HD
BRANCH  16  19
ATOM     19  C   UNL     1      -4.962   1.968   0.034  0.00  0.00    +0.107 C 
BRANCH  19  20
ATOM     20  C   UNL     1      -5.958   3.130   0.045  0.00  0.00    +0.134 C 
BRANCH  20  21
ATOM     21  C   UNL     1      -7.364   2.587   0.048  0.00  0.00    +0.356 C 
ATOM     22  O   UNL     1      -7.550   1.393   0.042  0.00  0.00    -0.246 OA
ATOM     23  O   UNL     1      -8.409   3.429   0.058  0.00  0.00    -0.246 OA
ENDBRANCH  20  21
ENDBRANCH  19  20
ENDBRANCH  16  19
ENDBRANCH   7  15
BRANCH   1  25
ATOM     24  C   UNL     1       4.528   6.100   1.002  0.00  0.00    +0.004 C 
ATOM     25  C   UNL     1       4.622   4.883   0.079  0.00  0.00    +0.000 C 
ENDBRANCH   1  25
TORSDOF 6
