REMARK  Name = ZINC12608066
REMARK  14 active torsions:
REMARK  status: ('A' for Active; 'I' for Inactive)
REMARK    1  A    between atoms: C_1  and  C_2
REMARK    2  A    between atoms: C_2  and  N_72
REMARK    3  A    between atoms: N_5  and  C_8
REMARK    4  A    between atoms: C_11  and  S_26
REMARK    5  A    between atoms: C_13  and  N_14
REMARK    6  A    between atoms: C_15  and  C_17
REMARK    7  A    between atoms: C_20  and  C_23
REMARK    8  A    between atoms: C_23  and  C_24
REMARK    9  A    between atoms: C_23  and  C_25
REMARK   10  A    between atoms: S_26  and  N_29
REMARK   11  A    between atoms: N_29  and  C_30
REMARK   12  A    between atoms: N_29  and  C_32
REMARK   13  A    between atoms: C_30  and  C_31
REMARK   14  A    between atoms: C_32  and  C_33
REMARK                            x       y       z     vdW  Elec       q    Type
REMARK                         _______ _______ _______ _____ _____    ______ ____
ROOT
ATOM      1  C   UNL     1      -1.311  -0.514  -0.070  0.00  0.00    +0.051 A 
ATOM      2  C   UNL     1      -2.233  -0.217   0.923  0.00  0.00    +0.027 A 
ATOM      3  C   UNL     1      -3.514  -0.732   0.852  0.00  0.00    +0.030 A 
ATOM      4  C   UNL     1      -3.880  -1.543  -0.207  0.00  0.00    +0.107 A 
ATOM      5  C   UNL     1      -2.967  -1.844  -1.200  0.00  0.00    +0.053 A 
ATOM      6  C   UNL     1      -1.682  -1.327  -1.140  0.00  0.00    +0.057 A 
ENDROOT
BRANCH   1   9
ATOM      7  C   UNL     1       1.402   2.003  -0.001  0.00  0.00    -0.060 C 
ATOM      8  C   UNL     1      -0.035   1.475   0.002  0.00  0.00    +0.086 C 
ATOM      9  N   UNL     1      -0.014   0.005   0.000  0.00  0.00    -0.332 N 
ATOM     10  C   UNL     1       0.697  -0.510   1.179  0.00  0.00    +0.086 C 
ATOM     11  C   UNL     1       2.134   0.018   1.176  0.00  0.00    -0.060 C 
ATOM     12  N   UNL     1       2.099   1.496   1.200  0.00  0.00    +0.382 N 
ATOM     13  H   UNL     1       1.589   1.804   2.036  0.00  0.00    -0.082 HD
BRANCH  12  15
ATOM     14  C   UNL     1       3.408   3.541   1.501  0.00  0.00    -0.017 C 
ATOM     15  C   UNL     1       3.475   2.033   1.251  0.00  0.00    -0.082 C 
ENDBRANCH  12  15
ENDBRANCH   1   9
BRANCH   6  16
ATOM     16  N   UNL     1      -0.757  -1.626  -2.149  0.00  0.00    -0.280 N 
ATOM     17  C   UNL     1      -0.774  -2.836  -2.743  0.00  0.00    +0.248 C 
ATOM     18  O   UNL     1      -1.643  -3.639  -2.461  0.00  0.00    -0.270 OA
ATOM     19  H   UNL     1      -0.104  -0.962  -2.420  0.00  0.00    +0.155 HD
BRANCH  17  20
ATOM     20  C   UNL     1       0.262  -3.187  -3.736  0.00  0.00    +0.037 A 
ATOM     21  C   UNL     1       1.257  -2.265  -4.066  0.00  0.00    +0.013 A 
ATOM     22  C   UNL     1       2.225  -2.601  -4.990  0.00  0.00    +0.004 A 
ATOM     23  C   UNL     1       2.204  -3.844  -5.598  0.00  0.00    -0.045 A 
ATOM     24  C   UNL     1       1.217  -4.760  -5.280  0.00  0.00    +0.004 A 
ATOM     25  C   UNL     1       0.247  -4.439  -4.353  0.00  0.00    +0.013 A 
BRANCH  23  26
ATOM     26  C   UNL     1       3.261  -4.202  -6.611  0.00  0.00    +0.013 C 
ATOM     27  C   UNL     1       3.202  -3.216  -7.779  0.00  0.00    +0.012 C 
ATOM     28  C   UNL     1       4.641  -4.132  -5.954  0.00  0.00    +0.012 C 
ENDBRANCH  23  26
ENDBRANCH  17  20
ENDBRANCH   6  16
BRANCH   4  29
ATOM     29  S   UNL     1      -5.515  -2.196  -0.289  0.00  0.00    +0.061 S 
ATOM     30  O   UNL     1      -5.445  -3.367  -1.090  0.00  0.00    -0.153 OA
ATOM     31  O   UNL     1      -6.013  -2.212   1.042  0.00  0.00    -0.153 OA
BRANCH  29  32
ATOM     32  N   UNL     1      -6.436  -1.104  -1.127  0.00  0.00    -0.177 NA
BRANCH  32  33
ATOM     33  C   UNL     1      -6.554  -1.210  -2.583  0.00  0.00    +0.106 C 
ATOM     34  C   UNL     1      -7.818  -1.996  -2.937  0.00  0.00    +0.022 C 
ENDBRANCH  32  33
BRANCH  32  35
ATOM     35  C   UNL     1      -7.134  -0.033  -0.411  0.00  0.00    +0.106 C 
ATOM     36  C   UNL     1      -6.274   1.233  -0.425  0.00  0.00    +0.022 C 
ENDBRANCH  32  35
ENDBRANCH  29  32
ENDBRANCH   4  29
TORSDOF 9
