REMARK  Name = ZINC00737594
REMARK  10 active torsions:
REMARK  status: ('A' for Active; 'I' for Inactive)
REMARK    1  A    between atoms: C_1  and  C_2
REMARK    2  A    between atoms: C_9  and  C_11
REMARK    3  A    between atoms: C_11  and  C_12
REMARK    4  A    between atoms: C_12  and  C_13
REMARK    5  A    between atoms: C_12  and  C_14
REMARK    6  A    between atoms: C_19  and  S_21
REMARK    7  A    between atoms: S_21  and  C_22
REMARK    8  A    between atoms: C_22  and  C_23
REMARK    9  A    between atoms: N_25  and  C_26
REMARK   10  A    between atoms: C_26  and  C_27
REMARK                            x       y       z     vdW  Elec       q    Type
REMARK                         _______ _______ _______ _____ _____    ______ ____
ROOT
ATOM      1  C   UNL     1       0.108   1.662   0.480  0.00  0.00    +0.029 C 
ATOM      2  C   UNL     1       0.117   0.151   0.242  0.00  0.00    +0.090 C 
ATOM      3  C   UNL     1      -1.320  -0.349   0.053  0.00  0.00    +0.128 C 
ATOM      4  N   UNL     1      -2.019  -0.269   1.343  0.00  0.00    -0.312 N 
ATOM      5  C   UNL     1      -1.434  -0.949   2.508  0.00  0.00    +0.125 C 
ATOM      6  C   UNL     1       0.003  -0.449   2.697  0.00  0.00    +0.127 C 
ATOM      7  N   UNL     1       0.706  -0.529   1.404  0.00  0.00    -0.296 N 
ATOM      8  C   UNL     1       1.861  -1.213   1.287  0.00  0.00    +0.216 C 
ATOM      9  O   UNL     1       2.425  -1.271   0.215  0.00  0.00    -0.276 OA
ATOM     10  C   UNL     1      -3.207   0.433   1.460  0.00  0.00    +0.127 A 
ATOM     11  C   UNL     1      -3.872   0.893   0.322  0.00  0.00    +0.083 A 
ATOM     12  C   UNL     1      -5.056   1.590   0.486  0.00  0.00    +0.135 A 
ATOM     13  N   UNL     1      -5.520   1.800   1.710  0.00  0.00    -0.210 NA
ATOM     14  C   UNL     1      -4.866   1.351   2.773  0.00  0.00    +0.192 A 
ATOM     15  N   UNL     1      -3.732   0.675   2.657  0.00  0.00    -0.207 NA
ATOM     16 CL   UNL     1      -5.923   2.183  -0.895  0.00  0.00    -0.062 Cl
ENDROOT
BRANCH   8  17
ATOM     17  C   UNL     1       2.452  -1.904   2.489  0.00  0.00    +0.099 C 
BRANCH  17  18
ATOM     18  C   UNL     1       3.753  -2.602   2.086  0.00  0.00    -0.008 C 
ATOM     19  C   UNL     1       4.788  -1.552   1.674  0.00  0.00    +0.008 C 
ATOM     20  C   UNL     1       4.288  -3.406   3.272  0.00  0.00    +0.008 C 
ENDBRANCH  17  18
ENDBRANCH   8  17
BRANCH  14  21
ATOM     21  S   UNL     1      -5.524   1.656   4.378  0.00  0.00    -0.077 S 
BRANCH  21  22
ATOM     22  C   UNL     1      -7.050   2.584   4.058  0.00  0.00    +0.173 C 
BRANCH  22  23
ATOM     23  C   UNL     1      -7.722   2.913   5.367  0.00  0.00    +0.224 C 
ATOM     24  O   UNL     1      -7.221   2.557   6.412  0.00  0.00    -0.275 OA
ATOM     25  N   UNL     1      -8.879   3.603   5.375  0.00  0.00    -0.311 N 
ATOM     26  H   UNL     1      -9.280   3.888   4.539  0.00  0.00    +0.149 HD
BRANCH  25  27
ATOM     27  C   UNL     1      -9.532   3.923   6.647  0.00  0.00    +0.139 C 
BRANCH  27  28
ATOM     28  C   UNL     1     -10.800   4.694   6.381  0.00  0.00    -0.027 A 
ATOM     29  C   UNL     1     -10.766   6.074   6.310  0.00  0.00    +0.009 A 
ATOM     30  C   UNL     1     -11.926   6.785   6.066  0.00  0.00    +0.050 A 
ATOM     31  C   UNL     1     -13.126   6.115   5.892  0.00  0.00    +0.166 A 
ATOM     32  C   UNL     1     -13.160   4.725   5.964  0.00  0.00    +0.167 A 
ATOM     33  C   UNL     1     -11.993   4.019   6.203  0.00  0.00    +0.054 A 
ATOM     34  O   UNL     1     -14.445   4.309   5.761  0.00  0.00    -0.453 OA
ATOM     35  C   UNL     1     -15.264   5.475   5.971  0.00  0.00    +0.466 C 
ATOM     36  O   UNL     1     -14.389   6.571   5.644  0.00  0.00    -0.453 OA
ENDBRANCH  27  28
ENDBRANCH  25  27
ENDBRANCH  22  23
ENDBRANCH  21  22
ENDBRANCH  14  21
TORSDOF 7
