REMARK  Name = ZINC16649173
REMARK  14 active torsions:
REMARK  status: ('A' for Active; 'I' for Inactive)
REMARK    1  A    between atoms: C_1  and  C_2
REMARK    2  A    between atoms: C_2  and  C_3
REMARK    3  A    between atoms: C_3  and  N_4
REMARK    4  A    between atoms: N_4  and  C_5
REMARK    5  A    between atoms: C_5  and  C_6
REMARK    6  A    between atoms: N_8  and  C_9
REMARK    7  A    between atoms: N_8  and  C_21
REMARK    8  A    between atoms: C_9  and  C_10
REMARK    9  A    between atoms: C_10  and  C_11
REMARK   10  A    between atoms: C_21  and  C_22
REMARK   11  A    between atoms: C_25  and  C_28
REMARK   12  A    between atoms: C_29  and  C_31
REMARK   13  A    between atoms: C_34  and  C_40
REMARK   14  A    between atoms: C_35  and  N_37
REMARK                            x       y       z     vdW  Elec       q    Type
REMARK                         _______ _______ _______ _____ _____    ______ ____
ROOT
ATOM      1  C   UNL     1       0.372  -2.544  -1.610  0.00  0.00    +0.233 C 
ATOM      2  O   UNL     1       0.541  -3.265  -2.570  0.00  0.00    -0.274 OA
ATOM      3  N   UNL     1       1.419  -2.199  -0.834  0.00  0.00    -0.296 N 
ENDROOT
BRANCH   1   4
ATOM      4  C   UNL     1      -1.007  -2.033  -1.284  0.00  0.00    +0.203 C 
BRANCH   4   5
ATOM      5  N   UNL     1      -1.954  -2.500  -2.300  0.00  0.00    -0.289 N 
ATOM      6  C   UNL     1      -2.184  -1.756  -3.399  0.00  0.00    +0.247 C 
ATOM      7  O   UNL     1      -1.555  -0.731  -3.582  0.00  0.00    -0.270 OA
BRANCH   6   8
ATOM      8  C   UNL     1      -3.200  -2.185  -4.384  0.00  0.00    +0.039 A 
ATOM      9  C   UNL     1      -4.299  -2.941  -3.972  0.00  0.00    +0.013 A 
ATOM     10  C   UNL     1      -5.246  -3.334  -4.894  0.00  0.00    +0.006 A 
ATOM     11  C   UNL     1      -5.103  -2.990  -6.227  0.00  0.00    -0.020 A 
ATOM     12  C   UNL     1      -4.013  -2.245  -6.643  0.00  0.00    +0.130 A 
ATOM     13  C   UNL     1      -3.062  -1.841  -5.729  0.00  0.00    +0.046 A 
ATOM     14  C   UNL     1      -6.139  -3.427  -7.230  0.00  0.00    +0.046 C 
BRANCH  12  15
ATOM     15  N   UNL     1      -3.869  -1.881  -8.070  0.00  0.00    +0.057 N 
ATOM     16  O   UNL     1      -2.910  -1.225  -8.437  0.00  0.00    -0.126 OA
ATOM     17  O   UNL     1      -4.708  -2.238  -8.877  0.00  0.00    -0.126 OA
ENDBRANCH  12  15
ENDBRANCH   6   8
BRANCH   5  18
ATOM     18  C   UNL     1      -2.650  -3.776  -2.120  0.00  0.00    +0.108 C 
BRANCH  18  20
ATOM     19  C   UNL     1      -4.360  -4.995  -0.766  0.00  0.00    +0.005 C 
ATOM     20  C   UNL     1      -3.632  -3.662  -0.953  0.00  0.00    +0.016 C 
ENDBRANCH  18  20
ENDBRANCH   5  18
ENDBRANCH   4   5
ENDBRANCH   1   4
BRANCH   3  21
ATOM     21  C   UNL     1       2.772  -2.629  -1.196  0.00  0.00    +0.113 C 
BRANCH  21  22
ATOM     22  C   UNL     1       3.067  -3.983  -0.549  0.00  0.00    +0.056 C 
BRANCH  22  23
ATOM     23  C   UNL     1       4.459  -4.426  -0.922  0.00  0.00    -0.021 A 
ATOM     24  C   UNL     1       4.793  -5.243  -1.933  0.00  0.00    +0.087 A 
ATOM     25  N   UNL     1       6.150  -5.415  -1.965  0.00  0.00    -0.360 N 
ATOM     26  H   UNL     1       6.628  -5.961  -2.609  0.00  0.00    +0.165 HD
ATOM     27  C   UNL     1       6.737  -4.701  -0.944  0.00  0.00    +0.047 A 
ATOM     28  C   UNL     1       5.703  -4.050  -0.246  0.00  0.00    +0.003 A 
ATOM     29  C   UNL     1       6.005  -3.244   0.853  0.00  0.00    +0.010 A 
ATOM     30  C   UNL     1       7.305  -3.091   1.246  0.00  0.00    +0.001 A 
ATOM     31  C   UNL     1       8.328  -3.732   0.561  0.00  0.00    +0.002 A 
ATOM     32  C   UNL     1       8.053  -4.532  -0.526  0.00  0.00    +0.026 A 
ENDBRANCH  22  23
ENDBRANCH  21  22
ENDBRANCH   3  21
BRANCH   3  33
ATOM     33  C   UNL     1       1.205  -1.394   0.371  0.00  0.00    +0.143 C 
BRANCH  33  34
ATOM     34  C   UNL     1       1.375   0.066   0.038  0.00  0.00    -0.030 A 
ATOM     35  C   UNL     1       0.287   0.812  -0.374  0.00  0.00    +0.005 A 
ATOM     36  C   UNL     1       0.444   2.151  -0.679  0.00  0.00    +0.003 A 
ATOM     37  C   UNL     1       1.688   2.744  -0.572  0.00  0.00    -0.050 A 
ATOM     38  C   UNL     1       2.776   1.997  -0.162  0.00  0.00    +0.003 A 
ATOM     39  C   UNL     1       2.620   0.658   0.144  0.00  0.00    +0.005 A 
ATOM     40  C   UNL     1       1.859   4.204  -0.905  0.00  0.00    +0.044 C 
ENDBRANCH  33  34
ENDBRANCH   3  33
TORSDOF 11
