REMARK  Name = ZINC00984395
REMARK  3 active torsions:
REMARK  status: ('A' for Active; 'I' for Inactive)
REMARK    1  A    between atoms: C_1  and  C_2
REMARK    2  A    between atoms: C_3  and  N_9
REMARK    3  A    between atoms: N_6  and  C_7
REMARK                            x       y       z     vdW  Elec       q    Type
REMARK                         _______ _______ _______ _____ _____    ______ ____
ROOT
ATOM      1  C   UNL     1      -1.202  -0.911   0.009  0.00  0.00    +0.067 C 
ATOM      2  C   UNL     1       0.002  -0.004   0.002  0.00  0.00    +0.057 A 
ATOM      3  C   UNL     1       1.301  -0.396  -0.013  0.00  0.00    +0.079 A 
ATOM      4  C   UNL     1       2.099   0.758  -0.014  0.00  0.00    +0.144 A 
ATOM      5  N   UNL     1       1.311   1.803  -0.001  0.00  0.00    -0.163 NA
ATOM      6  N   UNL     1      -0.016   1.356   0.009  0.00  0.00    -0.269 N 
ATOM      7  C   UNL     1      -1.212   2.202   0.020  0.00  0.00    +0.172 C 
ATOM      8  I   UNL     1       4.193   0.801  -0.034  0.00  0.00    -0.018 I 
ENDROOT
BRANCH   3   9
ATOM      9  N   UNL     1       1.766  -1.725  -0.024  0.00  0.00    -0.355 N 
ATOM     10  H   UNL     1       1.133  -2.460  -0.021  0.00  0.00    +0.142 HD
ATOM     11  H   UNL     1       2.719  -1.905  -0.034  0.00  0.00    +0.142 HD
ENDBRANCH   3   9
TORSDOF 1
