REMARK  Name = ZINC35743237
REMARK  12 active torsions:
REMARK  status: ('A' for Active; 'I' for Inactive)
REMARK    1  A    between atoms: C_1  and  C_2
REMARK    2  A    between atoms: C_7  and  O_8
REMARK    3  A    between atoms: O_8  and  C_9
REMARK    4  A    between atoms: C_9  and  C_10
REMARK    5  A    between atoms: C_10  and  C_12
REMARK    6  A    between atoms: C_10  and  O_38
REMARK    7  A    between atoms: C_12  and  N_13
REMARK    8  A    between atoms: N_13  and  C_14
REMARK    9  A    between atoms: N_13  and  C_22
REMARK   10  A    between atoms: C_14  and  C_15
REMARK   11  A    between atoms: C_22  and  C_23
REMARK   12  A    between atoms: C_26  and  C_29
REMARK                            x       y       z     vdW  Elec       q    Type
REMARK                         _______ _______ _______ _____ _____    ______ ____
ROOT
ATOM      1  N   UNL     1      -0.147   0.772   7.245  0.00  0.00    +0.387 N 
ATOM      2  H   UNL     1       0.280   1.667   7.059  0.00  0.00    -0.081 HD
ENDROOT
BRANCH   1   3
ATOM      3  C   UNL     1       0.346  -0.216   6.276  0.00  0.00    -0.043 C 
BRANCH   3   4
ATOM      4  C   UNL     1       0.364   0.406   4.878  0.00  0.00    +0.135 C 
BRANCH   4   5
ATOM      5  O   UNL     1      -0.978   0.585   4.420  0.00  0.00    -0.390 OA
ATOM      6  H   UNL     1      -1.471  -0.240   4.316  0.00  0.00    +0.210 HD
ENDBRANCH   4   5
BRANCH   4   7
ATOM      7  C   UNL     1       1.112  -0.521   3.918  0.00  0.00    +0.258 C 
BRANCH   7   8
ATOM      8  O   UNL     1       1.230   0.111   2.642  0.00  0.00    -0.489 OA
BRANCH   8  15
ATOM      9  C   UNL     1       1.474   1.342   0.111  0.00  0.00    +0.047 C 
ATOM     10  C   UNL     1       2.024  -0.030   0.403  0.00  0.00    -0.009 A 
ATOM     11  C   UNL     1       2.684  -0.736  -0.584  0.00  0.00    +0.007 A 
ATOM     12  C   UNL     1       3.188  -1.994  -0.317  0.00  0.00    +0.000 A 
ATOM     13  C   UNL     1       3.035  -2.551   0.940  0.00  0.00    +0.004 A 
ATOM     14  C   UNL     1       2.376  -1.849   1.931  0.00  0.00    +0.046 A 
ATOM     15  C   UNL     1       1.873  -0.584   1.666  0.00  0.00    +0.124 A 
ENDBRANCH   8  15
ENDBRANCH   7   8
ENDBRANCH   4   7
ENDBRANCH   3   4
ENDBRANCH   1   3
BRANCH   1  16
ATOM     16  C   UNL     1      -1.606   0.891   7.124  0.00  0.00    -0.043 C 
BRANCH  16  17
ATOM     17  C   UNL     1      -2.243  -0.448   7.392  0.00  0.00    -0.064 A 
ATOM     18  C   UNL     1      -2.491  -1.316   6.345  0.00  0.00    +0.004 A 
ATOM     19  C   UNL     1      -3.075  -2.545   6.589  0.00  0.00    +0.038 A 
ATOM     20  C   UNL     1      -3.411  -2.906   7.883  0.00  0.00    +0.123 A 
ATOM     21  C   UNL     1      -3.162  -2.036   8.930  0.00  0.00    +0.038 A 
ATOM     22  C   UNL     1      -2.573  -0.810   8.684  0.00  0.00    +0.004 A 
ATOM     23  F   UNL     1      -3.982  -4.107   8.123  0.00  0.00    -0.205 F 
ENDBRANCH  16  17
ENDBRANCH   1  16
BRANCH   1  24
ATOM     24  C   UNL     1       0.198   0.338   8.606  0.00  0.00    -0.030 C 
BRANCH  24  25
ATOM     25  C   UNL     1      -0.070   1.480   9.588  0.00  0.00    +0.194 C 
ATOM     26  C   UNL     1       0.223   1.039  11.043  0.00  0.00    +0.104 C 
ATOM     27  C   UNL     1      -0.876   1.732  11.825  0.00  0.00    +0.091 C 
ATOM     28  N   UNL     1      -1.782   2.123  10.991  0.00  0.00    -0.089 NA
ATOM     29  O   UNL     1      -1.478   1.786   9.652  0.00  0.00    -0.392 OA
BRANCH  27  30
ATOM     30  C   UNL     1      -0.906   1.926  13.287  0.00  0.00    +0.003 A 
ATOM     31  C   UNL     1       0.146   1.457  14.077  0.00  0.00    +0.013 A 
ATOM     32  C   UNL     1       0.117   1.639  15.443  0.00  0.00    +0.050 A 
ATOM     33  C   UNL     1      -0.956   2.288  16.038  0.00  0.00    +0.166 A 
ATOM     34  C   UNL     1      -2.010   2.759  15.255  0.00  0.00    +0.167 A 
ATOM     35  C   UNL     1      -1.983   2.585  13.885  0.00  0.00    +0.059 A 
ATOM     36  O   UNL     1      -2.928   3.353  16.072  0.00  0.00    -0.453 OA
ATOM     37  C   UNL     1      -2.625   2.881  17.398  0.00  0.00    +0.466 C 
ATOM     38  O   UNL     1      -1.216   2.588  17.344  0.00  0.00    -0.453 OA
ENDBRANCH  27  30
ENDBRANCH  24  25
ENDBRANCH   1  24
TORSDOF 11
