REMARK  Name = ZINC63985880
REMARK  12 active torsions:
REMARK  status: ('A' for Active; 'I' for Inactive)
REMARK    1  A    between atoms: C_1  and  C_2
REMARK    2  A    between atoms: C_6  and  C_8
REMARK    3  A    between atoms: C_8  and  N_9
REMARK    4  A    between atoms: N_9  and  C_10
REMARK    5  A    between atoms: N_16  and  C_29
REMARK    6  A    between atoms: C_17  and  C_25
REMARK    7  A    between atoms: C_19  and  N_21
REMARK    8  A    between atoms: C_22  and  C_24
REMARK    9  A    between atoms: C_25  and  O_27
REMARK   10  A    between atoms: O_27  and  C_28
REMARK   11  A    between atoms: C_29  and  C_30
REMARK   12  A    between atoms: C_30  and  C_31
REMARK                            x       y       z     vdW  Elec       q    Type
REMARK                         _______ _______ _______ _____ _____    ______ ____
ROOT
ATOM      1  C   UNL     1       1.711  -3.765   4.090  0.00  0.00    +0.044 A 
ATOM      2  C   UNL     1       3.026  -3.984   4.500  0.00  0.00    +0.033 A 
ATOM      3  C   UNL     1       3.241  -4.672   5.679  0.00  0.00    +0.015 A 
ATOM      4  C   UNL     1       2.164  -5.126   6.426  0.00  0.00    +0.105 A 
ATOM      5  N   UNL     1       0.923  -4.895   5.998  0.00  0.00    -0.348 N 
ATOM      6  C   UNL     1       0.677  -4.239   4.883  0.00  0.00    +0.107 A 
ATOM      7  N   UNL     1       2.584  -5.793   7.575  0.00  0.00    -0.301 N 
ATOM      8  C   UNL     1       4.048  -5.811   7.643  0.00  0.00    +0.208 C 
ATOM      9  C   UNL     1       4.519  -5.065   6.383  0.00  0.00    +0.138 C 
ATOM     10  H   UNL     1       0.177  -5.216   6.527  0.00  0.00    +0.167 HD
ENDROOT
BRANCH   9  11
ATOM     11  N   UNL     1       5.288  -3.874   6.752  0.00  0.00    -0.306 N 
ATOM     12  C   UNL     1       6.143  -3.324   5.867  0.00  0.00    +0.210 C 
ATOM     13  O   UNL     1       6.277  -3.816   4.766  0.00  0.00    -0.276 OA
ATOM     14  C   UNL     1       6.934  -2.098   6.246  0.00  0.00    +0.109 C 
ATOM     15  H   UNL     1       5.181  -3.481   7.632  0.00  0.00    +0.149 HD
ENDBRANCH   9  11
BRANCH   1  16
ATOM     16  N   UNL     1       1.440  -3.073   2.903  0.00  0.00    -0.339 N 
ATOM     17  H   UNL     1       2.171  -2.745   2.355  0.00  0.00    +0.146 HD
BRANCH  16  18
ATOM     18  C   UNL     1       0.054  -2.845   2.489  0.00  0.00    +0.137 C 
BRANCH  18  24
ATOM     19  C   UNL     1      -0.018   1.503   0.010  0.00  0.00    +0.044 C 
ATOM     20  C   UNL     1       0.002  -0.004   0.002  0.00  0.00    -0.050 A 
ATOM     21  C   UNL     1       0.006  -0.689  -1.199  0.00  0.00    +0.003 A 
ATOM     22  C   UNL     1       0.025  -2.071  -1.207  0.00  0.00    +0.001 A 
ATOM     23  C   UNL     1       0.040  -2.768  -0.013  0.00  0.00    +0.005 A 
ATOM     24  C   UNL     1       0.037  -2.084   1.188  0.00  0.00    -0.030 A 
ATOM     25  C   UNL     1       0.023  -0.702   1.195  0.00  0.00    +0.008 A 
ENDBRANCH  18  24
ENDBRANCH  16  18
ENDBRANCH   1  16
BRANCH   8  26
ATOM     26  C   UNL     1       4.522  -5.097   8.883  0.00  0.00    +0.330 C 
ATOM     27  O   UNL     1       3.782  -4.339   9.464  0.00  0.00    -0.249 OA
BRANCH  26  28
ATOM     28  O   UNL     1       5.766  -5.305   9.343  0.00  0.00    -0.467 OA
ATOM     29  C   UNL     1       6.148  -4.596  10.523  0.00  0.00    +0.280 C 
ENDBRANCH  26  28
ENDBRANCH   8  26
BRANCH   7  30
ATOM     30  C   UNL     1       1.692  -6.390   8.571  0.00  0.00    +0.112 C 
BRANCH  30  31
ATOM     31  C   UNL     1       1.400  -7.843   8.190  0.00  0.00    +0.052 C 
BRANCH  31  32
ATOM     32  C   UNL     1       0.481  -8.457   9.215  0.00  0.00    -0.040 C 
ATOM     33  C   UNL     1      -0.866  -8.552   9.146  0.00  0.00    -0.001 A 
ATOM     34  C   UNL     1      -1.843  -8.129   8.135  0.00  0.00    +0.010 A 
ATOM     35  C   UNL     1      -3.156  -8.367   8.352  0.00  0.00    +0.001 A 
ATOM     36  C   UNL     1      -3.607  -9.006   9.515  0.00  0.00    +0.002 A 
ATOM     37  C   UNL     1      -2.771  -9.424  10.489  0.00  0.00    +0.026 A 
ATOM     38  C   UNL     1      -1.368  -9.226  10.365  0.00  0.00    +0.043 A 
ATOM     39  N   UNL     1      -0.370  -9.535  11.156  0.00  0.00    -0.380 N 
ATOM     40  C   UNL     1       0.880  -9.097  10.526  0.00  0.00    +0.144 C 
ATOM     41  H   UNL     1      -0.445  -9.981  12.014  0.00  0.00    +0.160 HD
ENDBRANCH  31  32
ENDBRANCH  30  31
ENDBRANCH   7  30
TORSDOF 9
