REMARK  Name = ZINC28382666
REMARK  8 active torsions:
REMARK  status: ('A' for Active; 'I' for Inactive)
REMARK    1  A    between atoms: C_1  and  N_2
REMARK    2  A    between atoms: N_2  and  C_3
REMARK    3  A    between atoms: C_4  and  C_6
REMARK    4  A    between atoms: C_9  and  C_12
REMARK    5  A    between atoms: N_14  and  C_15
REMARK    6  A    between atoms: C_15  and  C_17
REMARK    7  A    between atoms: C_15  and  C_28
REMARK    8  A    between atoms: C_17  and  C_18
REMARK                            x       y       z     vdW  Elec       q    Type
REMARK                         _______ _______ _______ _____ _____    ______ ____
ROOT
ATOM      1  C   UNL     1       1.641  -4.252   1.620  0.00  0.00    +0.168 C 
ENDROOT
BRANCH   1   2
ATOM      2  C   UNL     1       1.319  -5.260   0.547  0.00  0.00    +0.236 C 
ATOM      3  O   UNL     1       1.565  -5.010  -0.614  0.00  0.00    -0.274 OA
ATOM      4  N   UNL     1       0.757  -6.440   0.878  0.00  0.00    -0.300 N 
ATOM      5  C   UNL     1       0.358  -6.716   2.265  0.00  0.00    +0.108 C 
ATOM      6  C   UNL     1      -1.117  -7.145   2.273  0.00  0.00    +0.019 C 
ATOM      7  C   UNL     1      -1.305  -8.326   1.318  0.00  0.00    +0.003 C 
ATOM      8  C   UNL     1      -0.935  -7.898  -0.104  0.00  0.00    +0.019 C 
ATOM      9  C   UNL     1       0.537  -7.476  -0.140  0.00  0.00    +0.108 C 
ENDBRANCH   1   2
BRANCH   1  12
ATOM     10  C   UNL     1       0.604  -2.184   0.855  0.00  0.00    +0.245 C 
ATOM     11  O   UNL     1      -0.473  -2.633   1.194  0.00  0.00    -0.270 OA
ATOM     12  N   UNL     1       1.723  -2.916   1.025  0.00  0.00    -0.300 N 
ATOM     13  H   UNL     1       2.698  -2.510   0.718  0.00  0.00    +0.150 HD
BRANCH  10  17
ATOM     14  C   UNL     1       0.843   1.694  -0.872  0.00  0.00    +0.013 A 
ATOM     15  C   UNL     1      -0.394   1.180  -0.482  0.00  0.00    +0.012 A 
ATOM     16  C   UNL     1      -0.472  -0.077   0.078  0.00  0.00    +0.014 A 
ATOM     17  C   UNL     1       0.687  -0.835   0.254  0.00  0.00    +0.037 A 
ATOM     18  C   UNL     1       1.924  -0.319  -0.136  0.00  0.00    +0.014 A 
ATOM     19  C   UNL     1       2.001   0.937  -0.696  0.00  0.00    +0.012 A 
BRANCH  14  23
ATOM     20  C   UNL     1      -0.056   4.864  -2.813  0.00  0.00    +0.130 C 
ATOM     21  N   UNL     1      -0.068   3.484  -2.323  0.00  0.00    -0.323 N 
ATOM     22  C   UNL     1      -1.136   2.570  -2.734  0.00  0.00    +0.130 C 
ATOM     23  C   UNL     1       0.925   3.046  -1.475  0.00  0.00    +0.099 C 
ATOM     24  N   UNL     1       1.937   3.819  -1.202  0.00  0.00    -0.386 N 
ATOM     25  H   UNL     1       2.730   3.469  -0.525  0.00  0.00    +0.157 HD
ATOM     26  H   UNL     1       1.999   4.822  -1.649  0.00  0.00    +0.157 HD
ENDBRANCH  14  23
ENDBRANCH  10  17
ENDBRANCH   1  12
BRANCH   1  27
ATOM     27  C   UNL     1       2.982  -4.606   2.266  0.00  0.00    +0.128 C 
BRANCH  27  28
ATOM     28  C   UNL     1       3.236  -3.686   3.433  0.00  0.00    +0.221 C 
ATOM     29  O   UNL     1       2.425  -2.832   3.719  0.00  0.00    -0.275 OA
ATOM     30  N   UNL     1       4.365  -3.813   4.157  0.00  0.00    -0.270 N 
ATOM     31  C   UNL     1       4.553  -3.033   5.298  0.00  0.00    +0.125 A 
ATOM     32  C   UNL     1       5.667  -3.246   6.102  0.00  0.00    +0.045 A 
ATOM     33  C   UNL     1       5.845  -2.461   7.227  0.00  0.00    +0.025 A 
ATOM     34  C   UNL     1       4.892  -1.492   7.517  0.00  0.00    +0.059 A 
ATOM     35  C   UNL     1       3.806  -1.339   6.676  0.00  0.00    +0.132 A 
ATOM     36  N   UNL     1       3.667  -2.100   5.606  0.00  0.00    -0.239 NA
ATOM     37 CL   UNL     1       5.063  -0.484   8.920  0.00  0.00    -0.082 Cl
ATOM     38  H   UNL     1       5.138  -4.533   3.850  0.00  0.00    +0.156 HD
ENDBRANCH  27  28
ENDBRANCH   1  27
TORSDOF 6
