REMARK  Name = ZINC63271300
REMARK  13 active torsions:
REMARK  status: ('A' for Active; 'I' for Inactive)
REMARK    1  A    between atoms: C_1  and  C_2
REMARK    2  A    between atoms: C_10  and  C_17
REMARK    3  A    between atoms: C_11  and  O_13
REMARK    4  A    between atoms: O_13  and  C_14
REMARK    5  A    between atoms: C_14  and  C_15
REMARK    6  A    between atoms: C_14  and  C_16
REMARK    7  A    between atoms: C_17  and  C_18
REMARK    8  A    between atoms: C_18  and  C_19
REMARK    9  A    between atoms: N_21  and  C_22
REMARK   10  A    between atoms: C_22  and  C_23
REMARK   11  A    between atoms: C_23  and  C_24
REMARK   12  A    between atoms: C_27  and  O_33
REMARK   13  A    between atoms: O_33  and  C_34
REMARK                            x       y       z     vdW  Elec       q    Type
REMARK                         _______ _______ _______ _____ _____    ______ ____
ROOT
ATOM      1  C   UNL     1       1.362   0.008   5.678  0.00  0.00    +0.100 C 
ENDROOT
BRANCH   1   2
ATOM      2  C   UNL     1       1.131   0.729   6.980  0.00  0.00    +0.213 C 
ATOM      3  O   UNL     1       0.014   1.092   7.283  0.00  0.00    -0.276 OA
ATOM      4  N   UNL     1       2.166   0.970   7.810  0.00  0.00    -0.315 N 
ATOM      5  H   UNL     1       3.059   0.680   7.568  0.00  0.00    +0.149 HD
BRANCH   4   6
ATOM      6  C   UNL     1       1.942   1.671   9.076  0.00  0.00    +0.108 C 
BRANCH   6   7
ATOM      7  C   UNL     1       3.270   1.815   9.822  0.00  0.00    +0.052 C 
BRANCH   7   8
ATOM      8  C   UNL     1       3.039   2.537  11.125  0.00  0.00    -0.040 C 
ATOM      9  C   UNL     1       2.838   1.977  12.339  0.00  0.00    +0.002 A 
ATOM     10  C   UNL     1       2.776   0.584  12.795  0.00  0.00    +0.055 A 
ATOM     11  C   UNL     1       2.554   0.321  14.105  0.00  0.00    +0.121 A 
ATOM     12  C   UNL     1       2.380   1.340  15.057  0.00  0.00    +0.047 A 
ATOM     13  C   UNL     1       2.420   2.651  14.734  0.00  0.00    +0.029 A 
ATOM     14  C   UNL     1       2.654   3.051  13.343  0.00  0.00    +0.043 A 
ATOM     15  N   UNL     1       2.738   4.226  12.772  0.00  0.00    -0.380 N 
ATOM     16  C   UNL     1       2.992   4.033  11.339  0.00  0.00    +0.144 C 
ATOM     17  H   UNL     1       2.651   5.081  13.221  0.00  0.00    +0.160 HD
BRANCH  11  18
ATOM     18  O   UNL     1       2.498  -0.975  14.514  0.00  0.00    -0.495 OA
ATOM     19  C   UNL     1       2.263  -1.207  15.904  0.00  0.00    +0.277 C 
ENDBRANCH  11  18
ENDBRANCH   7   8
ENDBRANCH   6   7
ENDBRANCH   4   6
ENDBRANCH   1   2
BRANCH   1  20
ATOM     20  C   UNL     1       0.034  -0.136   4.932  0.00  0.00    +0.048 C 
BRANCH  20  30
ATOM     21  C   UNL     1       0.875   1.437   0.013  0.00  0.00    +0.045 C 
ATOM     22  C   UNL     1       0.883  -0.070   0.028  0.00  0.00    -0.033 A 
ATOM     23  C   UNL     1       1.091  -0.777  -1.113  0.00  0.00    +0.096 A 
ATOM     24  C   UNL     1       1.095  -2.187  -1.074  0.00  0.00    +0.337 A 
ATOM     25  O   UNL     1       1.282  -2.809  -2.104  0.00  0.00    -0.245 OA
ATOM     26  O   UNL     1       0.896  -2.861   0.070  0.00  0.00    -0.422 OA
ATOM     27  C   UNL     1       0.684  -2.219   1.239  0.00  0.00    +0.143 A 
ATOM     28  C   UNL     1       0.673  -0.811   1.273  0.00  0.00    +0.021 A 
ATOM     29  C   UNL     1       0.458  -0.142   2.483  0.00  0.00    +0.019 A 
ATOM     30  C   UNL     1       0.265  -0.858   3.629  0.00  0.00    -0.004 A 
ATOM     31  C   UNL     1       0.280  -2.250   3.602  0.00  0.00    +0.128 A 
ATOM     32  C   UNL     1       0.480  -2.930   2.411  0.00  0.00    +0.093 A 
BRANCH  31  33
ATOM     33  O   UNL     1       0.086  -2.948   4.751  0.00  0.00    -0.489 OA
BRANCH  33  34
ATOM     34  C   UNL     1      -0.017  -4.369   4.637  0.00  0.00    +0.167 C 
ATOM     35  C   UNL     1       1.384  -4.983   4.637  0.00  0.00    +0.051 C 
ATOM     36  C   UNL     1      -0.814  -4.918   5.822  0.00  0.00    +0.051 C 
ENDBRANCH  33  34
ENDBRANCH  31  33
ENDBRANCH  20  30
ENDBRANCH   1  20
TORSDOF 9
