REMARK  Name = ZINC52837899
REMARK  2 active torsions:
REMARK  status: ('A' for Active; 'I' for Inactive)
REMARK    1  A    between atoms: C_1  and  C_2
REMARK    2  A    between atoms: C_4  and  C_9
REMARK                            x       y       z     vdW  Elec       q    Type
REMARK                         _______ _______ _______ _____ _____    ______ ____
ROOT
ATOM      1  C   UNL     1      -0.018   1.503   0.010  0.00  0.00    +0.066 C 
ATOM      2  C   UNL     1       0.002  -0.004   0.002  0.00  0.00    +0.044 A 
ATOM      3  C   UNL     1       0.006  -0.696  -1.195  0.00  0.00    +0.054 A 
ATOM      4  C   UNL     1       0.025  -2.095  -1.156  0.00  0.00    +0.111 A 
ATOM      5  N   UNL     1       0.039  -2.707   0.029  0.00  0.00    -0.212 NA
ATOM      6  C   UNL     1       0.035  -2.005   1.149  0.00  0.00    +0.213 A 
ATOM      7  N   UNL     1       0.022  -0.679   1.141  0.00  0.00    -0.220 NA
ATOM      8  N   UNL     1       0.049  -2.671   2.363  0.00  0.00    -0.327 N 
ATOM      9  H   UNL     1       0.062  -3.640   2.384  0.00  0.00    +0.145 HD
ATOM     10  H   UNL     1       0.046  -2.168   3.192  0.00  0.00    +0.145 HD
ENDROOT
BRANCH   4  11
ATOM     11  C   UNL     1       0.029  -2.881  -2.406  0.00  0.00    +0.155 A 
ATOM     12  C   UNL     1       0.042  -4.234  -2.476  0.00  0.00    +0.060 A 
ATOM     13  C   UNL     1       0.041  -4.567  -3.902  0.00  0.00    +0.022 A 
ATOM     14  C   UNL     1       0.050  -5.762  -4.623  0.00  0.00    +0.027 A 
ATOM     15  C   UNL     1       0.046  -5.730  -5.990  0.00  0.00    +0.019 A 
ATOM     16  C   UNL     1       0.033  -4.516  -6.664  0.00  0.00    +0.019 A 
ATOM     17  C   UNL     1       0.024  -3.325  -5.970  0.00  0.00    +0.048 A 
ATOM     18  C   UNL     1       0.028  -3.334  -4.580  0.00  0.00    +0.136 A 
ATOM     19  O   UNL     1       0.016  -2.359  -3.650  0.00  0.00    -0.453 OA
ATOM     20 BR   UNL     1       0.059  -7.348  -6.968  0.00  0.00    -0.050 Br
ENDBRANCH   4  11
TORSDOF 1
