REMARK  Name = ZINC42140073
REMARK  5 active torsions:
REMARK  status: ('A' for Active; 'I' for Inactive)
REMARK    1  A    between atoms: C_3  and  S_11
REMARK    2  A    between atoms: C_6  and  C_7
REMARK    3  A    between atoms: S_11  and  C_12
REMARK    4  A    between atoms: C_13  and  C_19
REMARK    5  A    between atoms: C_15  and  N_18
REMARK                            x       y       z     vdW  Elec       q    Type
REMARK                         _______ _______ _______ _____ _____    ______ ____
ROOT
ATOM      1  C   UNL     1       5.114   0.882  -0.042  0.00  0.00    +0.115 A 
ATOM      2  C   UNL     1       6.484   1.196  -0.048  0.00  0.00    +0.070 A 
ATOM      3  C   UNL     1       7.416   0.153  -0.062  0.00  0.00    +0.040 A 
ATOM      4  C   UNL     1       6.943  -1.153  -0.070  0.00  0.00    +0.044 A 
ATOM      5  C   UNL     1       5.572  -1.381  -0.063  0.00  0.00    +0.134 A 
ATOM      6  N   UNL     1       4.715  -0.380  -0.045  0.00  0.00    -0.246 NA
ENDROOT
BRANCH   2   7
ATOM      7  C   UNL     1       6.931   2.601  -0.040  0.00  0.00    +0.244 C 
ATOM      8  O   UNL     1       6.112   3.500  -0.029  0.00  0.00    -0.270 OA
ATOM      9  N   UNL     1       8.248   2.890  -0.046  0.00  0.00    -0.325 N 
ATOM     10  H   UNL     1       8.901   2.173  -0.056  0.00  0.00    +0.145 HD
ATOM     11  H   UNL     1       8.542   3.814  -0.041  0.00  0.00    +0.145 HD
ENDBRANCH   2   7
BRANCH   4  12
ATOM     12  N   UNL     1       7.838  -2.230  -0.084  0.00  0.00    -0.357 N 
ATOM     13  H   UNL     1       8.794  -2.065  -0.089  0.00  0.00    +0.142 HD
ATOM     14  H   UNL     1       7.503  -3.140  -0.089  0.00  0.00    +0.142 HD
ENDBRANCH   4  12
BRANCH   1  15
ATOM     15  S   UNL     1       3.920   2.177  -0.024  0.00  0.00    -0.049 S 
BRANCH  15  18
ATOM     16  C   UNL     1      -0.017   1.384   0.010  0.00  0.00    +0.016 A 
ATOM     17  C   UNL     1       1.190   2.061   0.002  0.00  0.00    +0.036 A 
ATOM     18  C   UNL     1       2.374   1.332  -0.013  0.00  0.00    +0.103 A 
ATOM     19  N   UNL     1       2.350   0.007  -0.020  0.00  0.00    -0.248 NA
ATOM     20  C   UNL     1       1.215  -0.664  -0.013  0.00  0.00    +0.124 A 
ATOM     21  C   UNL     1       0.002  -0.004   0.002  0.00  0.00    +0.073 A 
BRANCH  21  22
ATOM     22  C   UNL     1      -1.288  -0.783   0.011  0.00  0.00    +0.419 C 
ATOM     23  F   UNL     1      -1.700  -1.017  -1.306  0.00  0.00    -0.166 F 
ATOM     24  F   UNL     1      -1.091  -2.005   0.662  0.00  0.00    -0.166 F 
ATOM     25  F   UNL     1      -2.271  -0.049   0.684  0.00  0.00    -0.166 F 
ENDBRANCH  21  22
ENDBRANCH  15  18
ENDBRANCH   1  15
TORSDOF 5
