REMARK  Name = ZINC09396193
REMARK  11 active torsions:
REMARK  status: ('A' for Active; 'I' for Inactive)
REMARK    1  A    between atoms: C_1  and  C_2
REMARK    2  A    between atoms: C_2  and  C_4
REMARK    3  A    between atoms: C_2  and  N_65
REMARK    4  A    between atoms: C_7  and  S_16
REMARK    5  A    between atoms: N_8  and  C_9
REMARK    6  A    between atoms: S_16  and  C_17
REMARK    7  A    between atoms: C_17  and  C_19
REMARK    8  A    between atoms: C_17  and  C_20
REMARK    9  A    between atoms: C_20  and  C_22
REMARK   10  A    between atoms: C_25  and  N_28
REMARK   11  A    between atoms: C_29  and  C_31
REMARK                            x       y       z     vdW  Elec       q    Type
REMARK                         _______ _______ _______ _____ _____    ______ ____
ROOT
ATOM      1  C   UNL     1      -0.350   2.118   3.573  0.00  0.00    +0.125 A 
ATOM      2  N   UNL     1      -1.633   2.331   3.665  0.00  0.00    -0.135 NA
ATOM      3  N   UNL     1      -1.929   2.738   4.848  0.00  0.00    -0.122 NA
ATOM      4  C   UNL     1      -0.844   2.807   5.583  0.00  0.00    +0.197 A 
ATOM      5  N   UNL     1       0.200   2.407   4.794  0.00  0.00    -0.275 N 
ENDROOT
BRANCH   5   6
ATOM      6  C   UNL     1       1.552   2.316   5.157  0.00  0.00    +0.050 A 
ATOM      7  C   UNL     1       2.181   1.079   5.189  0.00  0.00    +0.029 A 
ATOM      8  C   UNL     1       3.513   0.991   5.543  0.00  0.00    +0.040 A 
ATOM      9  C   UNL     1       4.218   2.135   5.877  0.00  0.00    +0.124 A 
ATOM     10  C   UNL     1       3.591   3.370   5.850  0.00  0.00    +0.040 A 
ATOM     11  C   UNL     1       2.260   3.462   5.492  0.00  0.00    +0.029 A 
ATOM     12  F   UNL     1       5.520   2.048   6.228  0.00  0.00    -0.205 F 
ENDBRANCH   5   6
BRANCH   1  14
ATOM     13  C   UNL     1       0.127   0.141   2.154  0.00  0.00    -0.005 C 
ATOM     14  C   UNL     1       0.389   1.635   2.352  0.00  0.00    -0.002 C 
BRANCH  14  20
ATOM     15  C   UNL     1       0.703   2.016  -0.018  0.00  0.00    -0.078 C 
ATOM     16  C   UNL     1       0.097   2.692  -1.250  0.00  0.00    -0.019 C 
ATOM     17  C   UNL     1       0.106   4.210  -1.050  0.00  0.00    -0.004 C 
ATOM     18  C   UNL     1      -0.674   4.553   0.223  0.00  0.00    -0.019 C 
ATOM     19  C   UNL     1      -0.045   3.824   1.412  0.00  0.00    -0.078 C 
ATOM     20  N   UNL     1      -0.107   2.367   1.168  0.00  0.00    +0.386 N 
ATOM     21  H   UNL     1      -1.083   2.099   0.996  0.00  0.00    -0.081 HD
ENDBRANCH  14  20
ENDBRANCH   1  14
BRANCH   4  22
ATOM     22  S   UNL     1      -0.749   3.312   7.268  0.00  0.00    -0.075 S 
BRANCH  22  23
ATOM     23  C   UNL     1      -2.496   3.662   7.590  0.00  0.00    +0.122 C 
ATOM     24  C   UNL     1      -3.303   2.367   7.488  0.00  0.00    +0.028 C 
BRANCH  23  25
ATOM     25  C   UNL     1      -2.646   4.240   8.973  0.00  0.00    +0.176 C 
ATOM     26  O   UNL     1      -1.817   3.998   9.825  0.00  0.00    -0.291 OA
BRANCH  25  27
ATOM     27  C   UNL     1      -3.795   5.098   9.290  0.00  0.00    +0.019 A 
ATOM     28  C   UNL     1      -4.750   5.384   8.307  0.00  0.00    +0.013 A 
ATOM     29  C   UNL     1      -5.824   6.180   8.608  0.00  0.00    +0.024 A 
ATOM     30  C   UNL     1      -5.961   6.713   9.887  0.00  0.00    +0.033 A 
ATOM     31  C   UNL     1      -5.011   6.436  10.867  0.00  0.00    +0.024 A 
ATOM     32  C   UNL     1      -3.937   5.636  10.575  0.00  0.00    +0.013 A 
BRANCH  30  33
ATOM     33  N   UNL     1      -7.051   7.526  10.188  0.00  0.00    -0.286 N 
ATOM     34  C   UNL     1      -6.914   8.542  11.063  0.00  0.00    +0.214 C 
ATOM     35  O   UNL     1      -5.820   8.809  11.515  0.00  0.00    -0.276 OA
ATOM     36  C   UNL     1      -8.118   9.347  11.479  0.00  0.00    +0.109 C 
ATOM     37  H   UNL     1      -7.910   7.361   9.768  0.00  0.00    +0.155 HD
ENDBRANCH  30  33
ENDBRANCH  25  27
ENDBRANCH  23  25
ENDBRANCH  22  23
ENDBRANCH   4  22
TORSDOF 8
