REMARK  Name = ZINC09662565
REMARK  8 active torsions:
REMARK  status: ('A' for Active; 'I' for Inactive)
REMARK    1  A    between atoms: C_1  and  C_2
REMARK    2  A    between atoms: C_2  and  C_3
REMARK    3  A    between atoms: C_2  and  C_4
REMARK    4  A    between atoms: C_4  and  C_5
REMARK    5  A    between atoms: C_5  and  N_6
REMARK    6  A    between atoms: C_15  and  C_17
REMARK    7  A    between atoms: C_22  and  C_30
REMARK    8  A    between atoms: C_23  and  C_25
REMARK                            x       y       z     vdW  Elec       q    Type
REMARK                         _______ _______ _______ _____ _____    ______ ____
ROOT
ATOM      1  C   UNL     1       1.483   6.026   2.573  0.00  0.00    +0.270 C 
ATOM      2  O   UNL     1       1.570   7.237   2.638  0.00  0.00    -0.268 OA
ATOM      3  N   UNL     1       2.447   5.251   3.108  0.00  0.00    -0.259 N 
ATOM      4  C   UNL     1       3.539   5.835   3.731  0.00  0.00    +0.166 A 
ATOM      5  N   UNL     1       4.575   5.255   4.308  0.00  0.00    -0.221 NA
ATOM      6  C   UNL     1       5.545   5.962   4.864  0.00  0.00    +0.126 A 
ATOM      7  C   UNL     1       5.457   7.357   4.832  0.00  0.00    +0.086 A 
ATOM      8  S   UNL     1       3.913   7.568   3.955  0.00  0.00    -0.048 S 
ATOM      9  H   UNL     1       2.377   4.285   3.056  0.00  0.00    +0.157 HD
ENDROOT
BRANCH   1  19
ATOM     10  N   UNL     1      -0.755   3.484   1.277  0.00  0.00    -0.228 N 
ATOM     11  C   UNL     1      -1.795   4.112   0.692  0.00  0.00    +0.275 A 
ATOM     12  O   UNL     1      -2.693   3.475   0.171  0.00  0.00    -0.266 OA
ATOM     13  C   UNL     1      -1.822   5.581   0.701  0.00  0.00    +0.050 A 
ATOM     14  C   UNL     1      -2.852   6.321   0.129  0.00  0.00    +0.014 A 
ATOM     15  C   UNL     1      -2.800   7.698   0.176  0.00  0.00    +0.001 A 
ATOM     16  C   UNL     1      -1.735   8.348   0.785  0.00  0.00    +0.001 A 
ATOM     17  C   UNL     1      -0.705   7.632   1.358  0.00  0.00    +0.011 A 
ATOM     18  C   UNL     1      -0.738   6.242   1.322  0.00  0.00    +0.020 A 
ATOM     19  C   UNL     1       0.321   5.405   1.909  0.00  0.00    +0.154 A 
ATOM     20  N   UNL     1       0.218   4.100   1.835  0.00  0.00    -0.163 NA
BRANCH  10  21
ATOM     21  C   UNL     1      -0.735   2.019   1.269  0.00  0.00    +0.148 C 
BRANCH  21  22
ATOM     22  C   UNL     1      -0.019   1.526   0.010  0.00  0.00    +0.026 C 
BRANCH  22  24
ATOM     23  C   UNL     1       0.606  -0.499  -1.314  0.00  0.00    +0.007 C 
ATOM     24  C   UNL     1       0.002  -0.004   0.002  0.00  0.00    -0.015 C 
ATOM     25  C   UNL     1       0.848  -0.509   1.173  0.00  0.00    +0.007 C 
ENDBRANCH  22  24
ENDBRANCH  21  22
ENDBRANCH  10  21
ENDBRANCH   1  19
BRANCH   7  26
ATOM     26  C   UNL     1       6.378   8.367   5.365  0.00  0.00    +0.144 A 
ATOM     27  C   UNL     1       6.218   9.720   5.285  0.00  0.00    +0.050 A 
ATOM     28  C   UNL     1       7.331  10.298   5.926  0.00  0.00    +0.042 A 
ATOM     29  C   UNL     1       8.112   9.286   6.353  0.00  0.00    +0.196 A 
ATOM     30  O   UNL     1       7.534   8.120   6.013  0.00  0.00    -0.462 OA
ENDBRANCH   7  26
BRANCH   6  31
ATOM     31  C   UNL     1       6.693   5.294   5.503  0.00  0.00    +0.154 A 
ATOM     32  C   UNL     1       6.653   4.120   6.192  0.00  0.00    +0.051 A 
ATOM     33  C   UNL     1       7.968   3.859   6.625  0.00  0.00    +0.042 A 
ATOM     34  C   UNL     1       8.738   4.873   6.185  0.00  0.00    +0.196 A 
ATOM     35  O   UNL     1       7.966   5.736   5.503  0.00  0.00    -0.461 OA
ENDBRANCH   6  31
TORSDOF 6
