REMARK  Name = ZINC34999718
REMARK  12 active torsions:
REMARK  status: ('A' for Active; 'I' for Inactive)
REMARK    1  A    between atoms: C_1  and  C_2
REMARK    2  A    between atoms: C_2  and  C_37
REMARK    3  A    between atoms: C_7  and  C_11
REMARK    4  A    between atoms: C_11  and  N_12
REMARK    5  A    between atoms: N_12  and  C_13
REMARK    6  A    between atoms: C_13  and  C_14
REMARK    7  A    between atoms: C_14  and  N_15
REMARK    8  A    between atoms: C_21  and  C_23
REMARK    9  A    between atoms: N_32  and  C_33
REMARK   10  A    between atoms: C_33  and  C_34
REMARK   11  A    between atoms: C_33  and  C_35
REMARK   12  A    between atoms: C_33  and  C_36
REMARK                            x       y       z     vdW  Elec       q    Type
REMARK                         _______ _______ _______ _____ _____    ______ ____
ROOT
ATOM      1  N   UNL     1       4.181  -4.068   0.060  0.00  0.00    -0.283 N 
ATOM      2  C   UNL     1       4.478  -5.021  -0.845  0.00  0.00    +0.303 C 
ATOM      3  O   UNL     1       5.237  -4.774  -1.762  0.00  0.00    -0.253 OA
ATOM      4  N   UNL     1       3.934  -6.249  -0.733  0.00  0.00    -0.294 N 
ATOM      5  H   UNL     1       3.328  -6.447  -0.002  0.00  0.00    +0.151 HD
ENDROOT
BRANCH   4   6
ATOM      6  C   UNL     1       4.256  -7.285  -1.717  0.00  0.00    +0.028 C 
ATOM      7  C   UNL     1       5.763  -7.547  -1.707  0.00  0.00    +0.031 C 
ATOM      8  C   UNL     1       3.512  -8.575  -1.363  0.00  0.00    +0.031 C 
ATOM      9  C   UNL     1       3.829  -6.817  -3.110  0.00  0.00    +0.031 C 
ENDBRANCH   4   6
BRANCH   1  10
ATOM     10  C   UNL     1       3.267  -4.366   1.165  0.00  0.00    +0.140 C 
BRANCH  10  16
ATOM     11  C   UNL     1       0.131  -0.772  -0.483  0.00  0.00    +0.012 C 
ATOM     12  C   UNL     1       0.505  -2.253  -0.400  0.00  0.00    -0.025 C 
ATOM     13  C   UNL     1      -0.616  -3.150   0.163  0.00  0.00    -0.000 C 
ATOM     14  C   UNL     1      -0.344  -4.627  -0.151  0.00  0.00    +0.031 C 
ATOM     15  C   UNL     1       1.063  -4.984   0.265  0.00  0.00    -0.025 C 
ATOM     16  C   UNL     1       1.854  -4.053   0.747  0.00  0.00    -0.053 C 
ATOM     17  C   UNL     1       1.280  -2.630   0.876  0.00  0.00    +0.022 C 
ATOM     18  C   UNL     1      -0.113  -2.711   1.549  0.00  0.00    +0.012 C 
ATOM     19  C   UNL     1       1.138  -2.784  -1.688  0.00  0.00    +0.012 C 
ENDBRANCH  10  16
ENDBRANCH   1  10
BRANCH   1  20
ATOM     20  C   UNL     1       4.773  -2.733  -0.061  0.00  0.00    +0.091 C 
BRANCH  20  21
ATOM     21  C   UNL     1       6.096  -2.690   0.707  0.00  0.00    -0.059 C 
BRANCH  21  22
ATOM     22  N   UNL     1       6.689  -1.352   0.586  0.00  0.00    +0.383 N 
ATOM     23  C   UNL     1       7.035  -1.097  -0.819  0.00  0.00    -0.059 C 
ATOM     24  C   UNL     1       7.548   0.339  -0.965  0.00  0.00    +0.089 C 
ATOM     25  N   UNL     1       8.658   0.537  -0.021  0.00  0.00    -0.301 N 
ATOM     26  C   UNL     1       8.451   0.152   1.384  0.00  0.00    +0.089 C 
ATOM     27  C   UNL     1       7.896  -1.276   1.419  0.00  0.00    -0.059 C 
ATOM     28  C   UNL     1       9.833   1.055  -0.431  0.00  0.00    +0.246 C 
ATOM     29  O   UNL     1      10.715   1.275   0.376  0.00  0.00    -0.270 OA
ATOM     30  H   UNL     1       6.023  -0.660   0.896  0.00  0.00    -0.082 HD
BRANCH  28  31
ATOM     31  C   UNL     1      10.048   1.355  -1.861  0.00  0.00    +0.037 A 
ATOM     32  C   UNL     1       9.091   2.076  -2.578  0.00  0.00    +0.016 A 
ATOM     33  C   UNL     1       9.297   2.354  -3.912  0.00  0.00    +0.039 A 
ATOM     34  C   UNL     1      10.452   1.918  -4.543  0.00  0.00    +0.123 A 
ATOM     35  C   UNL     1      11.406   1.201  -3.836  0.00  0.00    +0.039 A 
ATOM     36  C   UNL     1      11.213   0.924  -2.500  0.00  0.00    +0.016 A 
ATOM     37  F   UNL     1      10.649   2.192  -5.851  0.00  0.00    -0.205 F 
ENDBRANCH  28  31
ENDBRANCH  21  22
ENDBRANCH  20  21
ENDBRANCH   1  20
TORSDOF 7
