REMARK  Name = ZINC08861385
REMARK  8 active torsions:
REMARK  status: ('A' for Active; 'I' for Inactive)
REMARK    1  A    between atoms: C_1  and  N_62
REMARK    2  A    between atoms: N_5  and  N_6
REMARK    3  A    between atoms: C_7  and  C_9
REMARK    4  A    between atoms: C_12  and  C_15
REMARK    5  A    between atoms: C_15  and  N_16
REMARK    6  A    between atoms: N_16  and  C_17
REMARK    7  A    between atoms: N_16  and  S_23
REMARK    8  A    between atoms: S_23  and  C_26
REMARK                            x       y       z     vdW  Elec       q    Type
REMARK                         _______ _______ _______ _____ _____    ______ ____
ROOT
ATOM      1  C   UNL     1      -1.944   1.687  -0.994  0.00  0.00    +0.038 A 
ATOM      2  C   UNL     1      -1.929   0.293  -0.916  0.00  0.00    +0.013 A 
ATOM      3  C   UNL     1      -3.091  -0.392  -0.629  0.00  0.00    +0.006 A 
ATOM      4  C   UNL     1      -4.274   0.299  -0.429  0.00  0.00    -0.028 A 
ATOM      5  C   UNL     1      -4.297   1.680  -0.510  0.00  0.00    +0.006 A 
ATOM      6  C   UNL     1      -3.141   2.378  -0.791  0.00  0.00    +0.013 A 
ENDROOT
BRANCH   1   8
ATOM      7  N   UNL     1       0.452   1.758  -1.490  0.00  0.00    -0.203 N 
ATOM      8  C   UNL     1      -0.702   2.428  -1.295  0.00  0.00    +0.263 C 
ATOM      9  O   UNL     1      -0.719   3.641  -1.367  0.00  0.00    -0.268 OA
ATOM     10  H   UNL     1       0.466   0.789  -1.433  0.00  0.00    +0.178 HD
BRANCH   7  15
ATOM     11  C   UNL     1       5.846  -0.116  -3.984  0.00  0.00    -0.096 C 
ATOM     12  C   UNL     1       4.801   1.938  -3.240  0.00  0.00    -0.073 C 
ATOM     13  C   UNL     1       4.045   2.575  -2.070  0.00  0.00    +0.034 C 
ATOM     14  C   UNL     1       2.739   1.831  -1.887  0.00  0.00    +0.033 C 
ATOM     15  N   UNL     1       1.629   2.459  -1.782  0.00  0.00    -0.189 NA
ATOM     16  C   UNL     1       2.791   0.319  -1.827  0.00  0.00    +0.034 C 
ATOM     17  C   UNL     1       3.626  -0.176  -3.019  0.00  0.00    -0.073 C 
ATOM     18  N   UNL     1       4.948   0.489  -2.979  0.00  0.00    +0.378 N 
ATOM     19  H   UNL     1       5.356   0.359  -2.046  0.00  0.00    -0.082 HD
ENDBRANCH   7  15
ENDBRANCH   1   8
BRANCH   4  20
ATOM     20  C   UNL     1      -5.541  -0.456  -0.122  0.00  0.00    +0.166 C 
BRANCH  20  21
ATOM     21  N   UNL     1      -6.192  -0.848  -1.375  0.00  0.00    -0.199 N 
BRANCH  21  22
ATOM     22  C   UNL     1      -6.976   0.074  -2.072  0.00  0.00    +0.052 A 
ATOM     23  C   UNL     1      -8.110   0.615  -1.478  0.00  0.00    +0.025 A 
ATOM     24  C   UNL     1      -8.880   1.529  -2.168  0.00  0.00    +0.002 A 
ATOM     25  C   UNL     1      -8.530   1.900  -3.454  0.00  0.00    +0.000 A 
ATOM     26  C   UNL     1      -7.406   1.360  -4.050  0.00  0.00    +0.002 A 
ATOM     27  C   UNL     1      -6.628   0.449  -3.364  0.00  0.00    +0.025 A 
ENDBRANCH  21  22
BRANCH  21  28
ATOM     28  S   UNL     1      -5.998  -2.383  -1.964  0.00  0.00    +0.075 S 
ATOM     29  O   UNL     1      -6.107  -2.292  -3.378  0.00  0.00    -0.150 OA
ATOM     30  O   UNL     1      -4.851  -2.923  -1.321  0.00  0.00    -0.150 OA
BRANCH  28  31
ATOM     31  C   UNL     1      -7.377  -3.331  -1.413  0.00  0.00    +0.109 A 
ATOM     32  C   UNL     1      -7.353  -3.925  -0.165  0.00  0.00    +0.029 A 
ATOM     33  C   UNL     1      -8.437  -4.664   0.270  0.00  0.00    +0.002 A 
ATOM     34  C   UNL     1      -9.541  -4.818  -0.548  0.00  0.00    +0.000 A 
ATOM     35  C   UNL     1      -9.563  -4.229  -1.798  0.00  0.00    +0.002 A 
ATOM     36  C   UNL     1      -8.481  -3.485  -2.230  0.00  0.00    +0.029 A 
ENDBRANCH  28  31
ENDBRANCH  21  28
ENDBRANCH  20  21
ENDBRANCH   4  20
TORSDOF 7
