REMARK  Name = ZINC13500065
REMARK  11 active torsions:
REMARK  status: ('A' for Active; 'I' for Inactive)
REMARK    1  A    between atoms: C_1  and  C_2
REMARK    2  A    between atoms: C_2  and  C_3
REMARK    3  A    between atoms: C_3  and  C_4
REMARK    4  A    between atoms: C_4  and  C_6
REMARK    5  A    between atoms: C_4  and  N_75
REMARK    6  A    between atoms: N_10  and  C_11
REMARK    7  A    between atoms: C_17  and  C_18
REMARK    8  A    between atoms: C_17  and  N_75
REMARK    9  A    between atoms: C_22  and  C_31
REMARK   10  A    between atoms: C_24  and  C_30
REMARK   11  A    between atoms: C_32  and  N_75
REMARK                            x       y       z     vdW  Elec       q    Type
REMARK                         _______ _______ _______ _____ _____    ______ ____
ROOT
ATOM      1  N   UNL     1       0.346   1.268  -0.296  0.00  0.00    +0.391 N 
ATOM      2  H   UNL     1       0.427   0.943   0.674  0.00  0.00    -0.080 HD
ENDROOT
BRANCH   1   3
ATOM      3  C   UNL     1      -0.435   2.523  -0.318  0.00  0.00    -0.067 C 
ATOM      4  C   UNL     1       0.211   3.546   0.639  0.00  0.00    -0.015 C 
ATOM      5  C   UNL     1      -0.995   4.270   1.291  0.00  0.00    -0.002 C 
ATOM      6  C   UNL     1      -2.021   3.125   1.479  0.00  0.00    -0.002 C 
ATOM      7  C   UNL     1      -1.853   2.256   0.215  0.00  0.00    -0.015 C 
ENDBRANCH   1   3
BRANCH   1   8
ATOM      8  C   UNL     1       1.701   1.507  -0.837  0.00  0.00    +0.003 C 
BRANCH   8   9
ATOM      9  C   UNL     1       1.639   2.441  -2.018  0.00  0.00    +0.138 A 
ATOM     10  N   UNL     1       1.008   3.589  -2.077  0.00  0.00    -0.115 NA
ATOM     11  N   UNL     1       1.194   4.086  -3.251  0.00  0.00    -0.023 NA
ATOM     12  N   UNL     1       1.926   3.285  -3.943  0.00  0.00    -0.044 NA
ATOM     13  N   UNL     1       2.225   2.261  -3.216  0.00  0.00    -0.228 N 
BRANCH  13  14
ATOM     14  C   UNL     1       3.047   1.118  -3.621  0.00  0.00    +0.111 C 
ATOM     15  C   UNL     1       4.447   1.604  -4.000  0.00  0.00    +0.027 C 
ATOM     16  C   UNL     1       5.304   0.409  -4.422  0.00  0.00    +0.002 C 
ATOM     17  C   UNL     1       4.660  -0.281  -5.626  0.00  0.00    +0.000 C 
ATOM     18  C   UNL     1       3.260  -0.767  -5.246  0.00  0.00    +0.002 C 
ATOM     19  C   UNL     1       2.402   0.427  -4.824  0.00  0.00    +0.027 C 
ENDBRANCH  13  14
ENDBRANCH   8   9
BRANCH   8  20
ATOM     20  C   UNL     1       2.563   2.131   0.262  0.00  0.00    -0.008 C 
BRANCH  20  22
ATOM     21  C   UNL     1       3.314   1.906   2.634  0.00  0.00    +0.004 C 
ATOM     22  C   UNL     1       2.551   1.226   1.495  0.00  0.00    -0.005 C 
ENDBRANCH  20  22
ENDBRANCH   8  20
ENDBRANCH   1   8
BRANCH   1  23
ATOM     23  C   UNL     1      -0.341   0.232  -1.095  0.00  0.00    -0.036 C 
BRANCH  23  24
ATOM     24  C   UNL     1       0.119  -1.123  -0.623  0.00  0.00    +0.001 A 
ATOM     25  C   UNL     1      -0.581  -1.779   0.336  0.00  0.00    +0.017 A 
ATOM     26  C   UNL     1      -0.107  -3.094   0.772  0.00  0.00    -0.001 A 
ATOM     27  C   UNL     1      -0.788  -3.818   1.757  0.00  0.00    +0.013 A 
ATOM     28  C   UNL     1      -0.320  -5.042   2.141  0.00  0.00    -0.050 A 
ATOM     29  C   UNL     1       0.825  -5.574   1.564  0.00  0.00    +0.008 A 
ATOM     30  C   UNL     1       1.511  -4.879   0.592  0.00  0.00    -0.026 A 
ATOM     31  C   UNL     1       1.054  -3.630   0.184  0.00  0.00    +0.052 A 
ATOM     32  N   UNL     1       1.720  -2.913  -0.786  0.00  0.00    -0.322 N 
ATOM     33  H   UNL     1       2.520  -3.284  -1.190  0.00  0.00    +0.169 HD
ATOM     34  C   UNL     1       1.274  -1.708  -1.185  0.00  0.00    +0.251 A 
ATOM     35  O   UNL     1       1.886  -1.104  -2.049  0.00  0.00    -0.268 OA
ATOM     36  C   UNL     1       2.752  -5.469  -0.026  0.00  0.00    +0.046 C 
ATOM     37  C   UNL     1      -1.053  -5.822   3.203  0.00  0.00    +0.044 C 
ENDBRANCH  23  24
ENDBRANCH   1  23
TORSDOF 8
