REMARK  Name = ZINC35867586
REMARK  10 active torsions:
REMARK  status: ('A' for Active; 'I' for Inactive)
REMARK    1  A    between atoms: C_1  and  C_2
REMARK    2  A    between atoms: C_2  and  O_3
REMARK    3  A    between atoms: O_3  and  C_4
REMARK    4  A    between atoms: C_4  and  C_6
REMARK    5  A    between atoms: C_6  and  N_7
REMARK    6  A    between atoms: C_23  and  C_25
REMARK    7  A    between atoms: C_25  and  C_26
REMARK    8  A    between atoms: C_26  and  C_27
REMARK    9  A    between atoms: C_26  and  C_28
REMARK   10  A    between atoms: C_30  and  C_34
REMARK                            x       y       z     vdW  Elec       q    Type
REMARK                         _______ _______ _______ _____ _____    ______ ____
ROOT
ATOM      1  N   UNL     1      -0.625  -3.837  -3.635  0.00  0.00    -0.289 N 
ATOM      2  C   UNL     1       0.384  -4.500  -3.037  0.00  0.00    +0.303 C 
ATOM      3  O   UNL     1       1.353  -3.891  -2.626  0.00  0.00    -0.253 OA
ATOM      4  N   UNL     1       0.319  -5.839  -2.893  0.00  0.00    -0.283 N 
ATOM      5  C   UNL     1      -0.786  -6.603  -3.491  0.00  0.00    +0.128 C 
ATOM      6  C   UNL     1      -0.196  -7.696  -4.389  0.00  0.00    +0.125 C 
ATOM      7  N   UNL     1       0.837  -8.419  -3.634  0.00  0.00    -0.312 N 
ATOM      8  C   UNL     1       1.942  -7.655  -3.036  0.00  0.00    +0.125 C 
ATOM      9  C   UNL     1       1.355  -6.562  -2.142  0.00  0.00    +0.128 C 
ATOM     10  C   UNL     1       0.770  -9.793  -3.487  0.00  0.00    +0.133 A 
ATOM     11  C   UNL     1       1.479 -10.648  -4.375  0.00  0.00    +0.051 A 
ATOM     12  C   UNL     1       2.335 -10.287  -5.507  0.00  0.00    -0.025 A 
ATOM     13  C   UNL     1       2.897 -11.301  -6.197  0.00  0.00    -0.004 A 
ATOM     14  S   UNL     1       2.328 -12.777  -5.395  0.00  0.00    -0.073 S 
ATOM     15  C   UNL     1       1.336 -12.028  -4.129  0.00  0.00    +0.114 A 
ATOM     16  N   UNL     1       0.593 -12.478  -3.137  0.00  0.00    -0.225 NA
ATOM     17  C   UNL     1      -0.041 -11.636  -2.345  0.00  0.00    +0.133 A 
ATOM     18  N   UNL     1       0.051 -10.329  -2.514  0.00  0.00    -0.217 NA
ATOM     19  C   UNL     1       3.805 -11.198  -7.384  0.00  0.00    +0.046 C 
ATOM     20  C   UNL     1       4.310  -9.751  -7.483  0.00  0.00    -0.009 C 
ATOM     21  C   UNL     1       3.116  -8.804  -7.341  0.00  0.00    +0.008 C 
ATOM     22  C   UNL     1       2.594  -8.837  -5.904  0.00  0.00    +0.037 C 
ATOM     23  C   UNL     1       4.984  -9.535  -8.840  0.00  0.00    +0.008 C 
ATOM     24  H   UNL     1      -1.364  -4.329  -4.027  0.00  0.00    +0.151 HD
ENDROOT
BRANCH   1  25
ATOM     25  C   UNL     1      -0.607  -2.373  -3.694  0.00  0.00    +0.226 C 
BRANCH  25  26
ATOM     26  C   UNL     1      -1.839  -1.883  -4.410  0.00  0.00    +0.324 C 
ATOM     27  O   UNL     1      -2.650  -2.676  -4.828  0.00  0.00    -0.249 OA
BRANCH  26  28
ATOM     28  O   UNL     1      -2.036  -0.567  -4.582  0.00  0.00    -0.464 OA
BRANCH  28  30
ATOM     29  C   UNL     1      -3.276   1.352  -5.370  0.00  0.00    +0.048 C 
ATOM     30  C   UNL     1      -3.225  -0.174  -5.270  0.00  0.00    +0.229 C 
ENDBRANCH  28  30
ENDBRANCH  26  28
ENDBRANCH  25  26
ENDBRANCH   1  25
BRANCH  17  31
ATOM     31  C   UNL     1      -0.884 -12.176  -1.218  0.00  0.00    +0.079 C 
BRANCH  31  32
ATOM     32  C   UNL     1      -0.024 -12.320   0.038  0.00  0.00    -0.010 C 
ATOM     33  C   UNL     1       0.436 -10.937   0.504  0.00  0.00    +0.007 C 
ATOM     34  C   UNL     1      -0.845 -12.984   1.145  0.00  0.00    +0.007 C 
ENDBRANCH  31  32
ENDBRANCH  17  31
TORSDOF 6
