REMARK  Name = ZINC39691355
REMARK  10 active torsions:
REMARK  status: ('A' for Active; 'I' for Inactive)
REMARK    1  A    between atoms: C_1  and  S_2
REMARK    2  A    between atoms: S_2  and  C_3
REMARK    3  A    between atoms: C_3  and  C_4
REMARK    4  A    between atoms: C_4  and  C_5
REMARK    5  A    between atoms: C_9  and  C_18
REMARK    6  A    between atoms: N_20  and  C_21
REMARK    7  A    between atoms: C_21  and  C_22
REMARK    8  A    between atoms: C_22  and  N_23
REMARK    9  A    between atoms: C_24  and  C_26
REMARK   10  A    between atoms: C_26  and  C_27
REMARK                            x       y       z     vdW  Elec       q    Type
REMARK                         _______ _______ _______ _____ _____    ______ ____
ROOT
ATOM      1  C   UNL     1       3.626  -5.673   1.369  0.00  0.00    +0.218 C 
ATOM      2  O   UNL     1       3.662  -4.637   0.738  0.00  0.00    -0.275 OA
ATOM      3  N   UNL     1       4.402  -6.712   1.002  0.00  0.00    -0.314 N 
ATOM      4  H   UNL     1       4.373  -7.540   1.506  0.00  0.00    +0.149 HD
ENDROOT
BRANCH   1   9
ATOM      5  C   UNL     1       1.503  -2.387   2.699  0.00  0.00    +0.216 C 
ATOM      6  O   UNL     1       1.851  -1.448   3.384  0.00  0.00    -0.276 OA
ATOM      7  N   UNL     1       1.796  -3.646   3.081  0.00  0.00    -0.300 N 
ATOM      8  C   UNL     1       1.465  -4.909   2.381  0.00  0.00    +0.121 C 
ATOM      9  C   UNL     1       2.716  -5.797   2.563  0.00  0.00    +0.100 C 
ATOM     10  C   UNL     1       3.405  -5.249   3.824  0.00  0.00    -0.004 C 
ATOM     11  C   UNL     1       2.529  -4.079   4.295  0.00  0.00    +0.115 C 
ATOM     12  C   UNL     1       4.806  -4.747   3.485  0.00  0.00    -0.010 C 
ATOM     13  C   UNL     1       5.492  -4.261   4.765  0.00  0.00    -0.082 C 
ATOM     14  N   UNL     1       5.565  -5.362   5.732  0.00  0.00    +0.379 N 
ATOM     15  C   UNL     1       4.212  -5.776   6.123  0.00  0.00    -0.082 C 
ATOM     16  C   UNL     1       3.472  -6.327   4.901  0.00  0.00    -0.010 C 
ATOM     17  H   UNL     1       6.047  -6.144   5.314  0.00  0.00    -0.086 HD
ATOM     18  H   UNL     1       6.071  -5.056   6.550  0.00  0.00    -0.086 HD
BRANCH   5  19
ATOM     19  C   UNL     1       0.743  -2.146   1.420  0.00  0.00    +0.106 C 
BRANCH  19  20
ATOM     20  C   UNL     1       0.544  -0.642   1.221  0.00  0.00    +0.078 C 
BRANCH  20  22
ATOM     21  C   UNL     1      -0.522   1.454  -0.406  0.00  0.00    +0.084 C 
ATOM     22  S   UNL     1      -0.371  -0.352  -0.319  0.00  0.00    -0.164 S 
ENDBRANCH  20  22
ENDBRANCH  19  20
ENDBRANCH   5  19
ENDBRANCH   1   9
BRANCH   3  23
ATOM     23  C   UNL     1       5.287  -6.591  -0.160  0.00  0.00    +0.123 C 
BRANCH  23  24
ATOM     24  C   UNL     1       6.050  -7.903  -0.357  0.00  0.00    +0.123 C 
BRANCH  24  25
ATOM     25  N   UNL     1       6.935  -7.782  -1.519  0.00  0.00    -0.314 N 
ATOM     26  C   UNL     1       7.710  -8.822  -1.886  0.00  0.00    +0.217 C 
ATOM     27  O   UNL     1       7.675  -9.857  -1.255  0.00  0.00    -0.275 OA
ATOM     28  H   UNL     1       6.963  -6.954  -2.023  0.00  0.00    +0.149 HD
BRANCH  26  29
ATOM     29  C   UNL     1       8.620  -8.698  -3.080  0.00  0.00    +0.131 C 
BRANCH  29  30
ATOM     30  C   UNL     1       9.372  -9.989  -3.275  0.00  0.00    -0.031 A 
ATOM     31  C   UNL     1      10.617 -10.143  -2.746  0.00  0.00    +0.005 A 
ATOM     32  C   UNL     1      11.326 -11.330  -2.916  0.00  0.00    +0.001 A 
ATOM     33  C   UNL     1      10.796 -12.370  -3.616  0.00  0.00    +0.008 A 
ATOM     34  C   UNL     1       9.514 -12.248  -4.178  0.00  0.00    -0.018 A 
ATOM     35  C   UNL     1       8.790 -11.043  -4.000  0.00  0.00    -0.014 A 
ATOM     36  C   UNL     1       7.505 -10.923  -4.556  0.00  0.00    +0.009 A 
ATOM     37  C   UNL     1       6.972 -11.965  -5.252  0.00  0.00    +0.001 A 
ATOM     38  C   UNL     1       7.683 -13.152  -5.422  0.00  0.00    +0.001 A 
ATOM     39  C   UNL     1       8.934 -13.299  -4.909  0.00  0.00    +0.008 A 
ENDBRANCH  29  30
ENDBRANCH  26  29
ENDBRANCH  24  25
ENDBRANCH  23  24
ENDBRANCH   3  23
TORSDOF 9
