REMARK  Name = ZINC49550042
REMARK  5 active torsions:
REMARK  status: ('A' for Active; 'I' for Inactive)
REMARK    1  A    between atoms: C_1  and  C_2
REMARK    2  A    between atoms: C_7  and  C_8
REMARK    3  A    between atoms: C_11  and  C_23
REMARK    4  A    between atoms: N_13  and  S_14
REMARK    5  A    between atoms: S_14  and  C_17
REMARK                            x       y       z     vdW  Elec       q    Type
REMARK                         _______ _______ _______ _____ _____    ______ ____
ROOT
ATOM      1  C   UNL     1       0.035   0.023   2.491  0.00  0.00    +0.154 C 
ATOM      2  C   UNL     1       1.471   0.384   2.919  0.00  0.00    +0.091 C 
ATOM      3  C   UNL     1       1.641  -0.312   4.250  0.00  0.00    +0.105 C 
ATOM      4  N   UNL     1       0.555  -0.943   4.548  0.00  0.00    -0.164 NA
ATOM      5  N   UNL     1      -0.457  -0.819   3.594  0.00  0.00    -0.115 N 
ENDROOT
BRANCH   1  12
ATOM      6  C   UNL     1      -0.609   1.352   0.008  0.00  0.00    +0.044 C 
ATOM      7  C   UNL     1      -0.263  -0.115   0.010  0.00  0.00    -0.045 A 
ATOM      8  C   UNL     1      -0.247  -0.823  -1.177  0.00  0.00    +0.004 A 
ATOM      9  C   UNL     1       0.071  -2.168  -1.176  0.00  0.00    +0.000 A 
ATOM     10  C   UNL     1       0.374  -2.805   0.013  0.00  0.00    +0.000 A 
ATOM     11  C   UNL     1       0.359  -2.097   1.200  0.00  0.00    +0.006 A 
ATOM     12  C   UNL     1       0.045  -0.750   1.198  0.00  0.00    -0.020 A 
ENDBRANCH   1  12
BRANCH   3  13
ATOM     13  C   UNL     1       2.852  -0.274   5.077  0.00  0.00    +0.150 A 
ATOM     14  C   UNL     1       3.024  -0.901   6.276  0.00  0.00    +0.051 A 
ATOM     15  C   UNL     1       4.328  -0.595   6.710  0.00  0.00    +0.042 A 
ATOM     16  C   UNL     1       4.885   0.192   5.768  0.00  0.00    +0.196 A 
ATOM     17  O   UNL     1       3.993   0.380   4.780  0.00  0.00    -0.462 OA
ENDBRANCH   3  13
BRANCH   5  18
ATOM     18  S   UNL     1      -1.962  -1.505   3.684  0.00  0.00    +0.089 S 
ATOM     19  O   UNL     1      -2.308  -1.544   5.062  0.00  0.00    -0.149 OA
ATOM     20  O   UNL     1      -2.766  -0.849   2.715  0.00  0.00    -0.149 OA
BRANCH  18  21
ATOM     21  C   UNL     1      -1.803  -3.179   3.157  0.00  0.00    +0.110 A 
ATOM     22  C   UNL     1      -1.956  -3.501   1.821  0.00  0.00    +0.029 A 
ATOM     23  C   UNL     1      -1.832  -4.814   1.408  0.00  0.00    +0.002 A 
ATOM     24  C   UNL     1      -1.554  -5.805   2.330  0.00  0.00    +0.000 A 
ATOM     25  C   UNL     1      -1.401  -5.484   3.666  0.00  0.00    +0.002 A 
ATOM     26  C   UNL     1      -1.521  -4.170   4.079  0.00  0.00    +0.029 A 
ENDBRANCH  18  21
ENDBRANCH   5  18
TORSDOF 4
