REMARK  Name = ZINC49067143
REMARK  4 active torsions:
REMARK  status: ('A' for Active; 'I' for Inactive)
REMARK    1  A    between atoms: C_3  and  C_26
REMARK    2  A    between atoms: C_6  and  C_7
REMARK    3  A    between atoms: C_13  and  N_19
REMARK    4  A    between atoms: C_14  and  C_16
REMARK                            x       y       z     vdW  Elec       q    Type
REMARK                         _______ _______ _______ _____ _____    ______ ____
ROOT
ATOM      1  C   UNL     1      -1.273  -0.762   0.010  0.00  0.00    -0.002 A 
ATOM      2  C   UNL     1      -1.578  -1.565   1.137  0.00  0.00    -0.020 A 
ATOM      3  C   UNL     1      -2.759  -2.265   1.116  0.00  0.00    +0.021 A 
ATOM      4  N   UNL     1      -3.596  -2.154   0.086  0.00  0.00    -0.352 N 
ATOM      5  C   UNL     1      -3.358  -1.413  -0.962  0.00  0.00    +0.088 A 
ATOM      6  C   UNL     1      -2.158  -0.671  -1.098  0.00  0.00    +0.035 A 
ATOM      7  C   UNL     1      -2.038   0.051  -2.351  0.00  0.00    +0.054 A 
ATOM      8  C   UNL     1      -3.082  -0.012  -3.257  0.00  0.00    +0.097 A 
ATOM      9  S   UNL     1      -4.269  -1.058  -2.443  0.00  0.00    -0.064 S 
ATOM     10  C   UNL     1      -3.239  -3.222   2.180  0.00  0.00    +0.053 C 
ATOM     11  C   UNL     1      -3.752  -2.492   3.406  0.00  0.00    +0.006 C 
ATOM     12  C   UNL     1      -3.068  -1.153   3.640  0.00  0.00    +0.000 C 
ATOM     13  C   UNL     1      -1.783  -1.498   4.358  0.00  0.00    +0.000 C 
ATOM     14  C   UNL     1      -0.806  -2.270   3.478  0.00  0.00    +0.005 C 
ATOM     15  C   UNL     1      -0.512  -1.499   2.204  0.00  0.00    +0.037 C 
ATOM     16  H   UNL     1      -4.430  -2.651   0.121  0.00  0.00    +0.166 HD
ENDROOT
BRANCH   1  22
ATOM     17  C   UNL     1      -0.017   1.392   0.010  0.00  0.00    +0.009 A 
ATOM     18  C   UNL     1       1.165   2.097   0.002  0.00  0.00    +0.016 A 
ATOM     19  C   UNL     1       2.386   1.414  -0.013  0.00  0.00    +0.063 A 
ATOM     20  C   UNL     1       2.403   0.016  -0.021  0.00  0.00    +0.016 A 
ATOM     21  C   UNL     1       1.220  -0.687  -0.013  0.00  0.00    +0.009 A 
ATOM     22  C   UNL     1       0.002  -0.004   0.002  0.00  0.00    -0.017 A 
BRANCH  19  23
ATOM     23  C   UNL     1       3.653   2.168  -0.022  0.00  0.00    +0.387 C 
ATOM     24  O   UNL     1       3.637   3.391  -0.015  0.00  0.00    -0.241 OA
ATOM     25  O   UNL     1       4.720   1.571  -0.035  0.00  0.00    -0.241 OA
ENDBRANCH  19  23
ENDBRANCH   1  22
BRANCH   8  26
ATOM     26  C   UNL     1      -3.175   0.611  -4.526  0.00  0.00    +0.250 C 
ATOM     27  O   UNL     1      -2.260   1.304  -4.934  0.00  0.00    -0.270 OA
ATOM     28  N   UNL     1      -4.278   0.438  -5.282  0.00  0.00    -0.325 N 
ATOM     29  H   UNL     1      -5.007  -0.113  -4.957  0.00  0.00    +0.145 HD
ATOM     30  H   UNL     1      -4.342   0.865  -6.151  0.00  0.00    +0.145 HD
ENDBRANCH   8  26
BRANCH   7  31
ATOM     31  N   UNL     1      -0.919   0.801  -2.689  0.00  0.00    -0.356 N 
ATOM     32  H   UNL     1      -0.170   0.859  -2.074  0.00  0.00    +0.142 HD
ATOM     33  H   UNL     1      -0.885   1.266  -3.539  0.00  0.00    +0.142 HD
ENDBRANCH   7  31
TORSDOF 4
