REMARK  Name = ZINC13110957
REMARK  3 active torsions:
REMARK  status: ('A' for Active; 'I' for Inactive)
REMARK    1  A    between atoms: C_4  and  S_7
REMARK    2  A    between atoms: S_7  and  C_8
REMARK    3  A    between atoms: C_13  and  N_14
REMARK                            x       y       z     vdW  Elec       q    Type
REMARK                         _______ _______ _______ _____ _____    ______ ____
ROOT
ATOM      1  N   UNL     1       5.886  -3.461  -0.264  0.00  0.00    -0.327 N 
ATOM      2  C   UNL     1       6.847  -4.441  -0.176  0.00  0.00    +0.180 C 
ATOM      3  N   UNL     1       6.497  -5.683   0.004  0.00  0.00    -0.371 N 
ATOM      4  N   UNL     1       8.183  -4.109  -0.278  0.00  0.00    -0.298 N 
ATOM      5  C   UNL     1       8.563  -2.789  -0.297  0.00  0.00    +0.212 A 
ATOM      6  N   UNL     1       7.661  -1.852  -0.096  0.00  0.00    -0.175 NA
ATOM      7  C   UNL     1       8.009  -0.559  -0.113  0.00  0.00    +0.278 A 
ATOM      8  O   UNL     1       7.166   0.304   0.075  0.00  0.00    -0.265 OA
ATOM      9  C   UNL     1       9.365  -0.193  -0.348  0.00  0.00    +0.038 A 
ATOM     10  C   UNL     1      10.272  -1.163  -0.545  0.00  0.00    +0.027 A 
ATOM     11  N   UNL     1       9.863  -2.471  -0.519  0.00  0.00    -0.329 N 
ATOM     12  C   UNL     1      11.732  -0.884  -0.779  0.00  0.00    +0.054 C 
ATOM     13  C   UNL     1      11.942   0.570  -1.200  0.00  0.00    +0.006 C 
ATOM     14  C   UNL     1      11.214   1.472  -0.195  0.00  0.00    +0.005 C 
ATOM     15  C   UNL     1       9.710   1.271  -0.372  0.00  0.00    +0.042 C 
ATOM     16  H   UNL     1       6.148  -2.533  -0.367  0.00  0.00    +0.169 HD
ATOM     17  H   UNL     1       7.174  -6.363   0.141  0.00  0.00    +0.159 HD
ATOM     18  H   UNL     1       5.558  -5.927   0.001  0.00  0.00    +0.159 HD
ATOM     19  H   UNL     1       8.853  -4.808  -0.336  0.00  0.00    +0.172 HD
ATOM     20  H   UNL     1      10.510  -3.179  -0.665  0.00  0.00    +0.168 HD
ENDROOT
BRANCH   1  26
ATOM     21  C   UNL     1       3.949  -4.160   1.013  0.00  0.00    +0.036 A 
ATOM     22  C   UNL     1       2.603  -4.493   1.065  0.00  0.00    +0.017 A 
ATOM     23  C   UNL     1       1.842  -4.476  -0.088  0.00  0.00    +0.001 A 
ATOM     24  C   UNL     1       2.418  -4.128  -1.296  0.00  0.00    +0.002 A 
ATOM     25  C   UNL     1       3.758  -3.795  -1.358  0.00  0.00    +0.027 A 
ATOM     26  C   UNL     1       4.529  -3.804  -0.205  0.00  0.00    +0.056 A 
BRANCH  21  27
ATOM     27  S   UNL     1       4.922  -4.181   2.482  0.00  0.00    -0.087 S 
BRANCH  27  31
ATOM     28  C   UNL     1       2.114  -5.817   5.636  0.00  0.00    +0.000 A 
ATOM     29  C   UNL     1       2.827  -6.686   4.830  0.00  0.00    +0.001 A 
ATOM     30  C   UNL     1       3.684  -6.191   3.867  0.00  0.00    +0.015 A 
ATOM     31  C   UNL     1       3.829  -4.817   3.709  0.00  0.00    +0.013 A 
ATOM     32  C   UNL     1       3.110  -3.948   4.520  0.00  0.00    +0.015 A 
ATOM     33  C   UNL     1       2.255  -4.450   5.481  0.00  0.00    +0.001 A 
ENDBRANCH  27  31
ENDBRANCH  21  27
ENDBRANCH   1  26
TORSDOF 3
