REMARK  Name = ZINC36698069
REMARK  14 active torsions:
REMARK  status: ('A' for Active; 'I' for Inactive)
REMARK    1  A    between atoms: C_1  and  N_2
REMARK    2  A    between atoms: N_2  and  C_3
REMARK    3  A    between atoms: N_2  and  C_4
REMARK    4  A    between atoms: C_4  and  C_5
REMARK    5  A    between atoms: C_5  and  C_6
REMARK    6  A    between atoms: C_6  and  N_7
REMARK    7  A    between atoms: C_11  and  O_19
REMARK    8  A    between atoms: C_14  and  O_17
REMARK    9  A    between atoms: O_17  and  C_18
REMARK   10  A    between atoms: O_19  and  C_20
REMARK   11  A    between atoms: C_21  and  C_23
REMARK   12  A    between atoms: C_23  and  C_24
REMARK   13  A    between atoms: C_24  and  S_25
REMARK   14  A    between atoms: S_25  and  C_28
REMARK                            x       y       z     vdW  Elec       q    Type
REMARK                         _______ _______ _______ _____ _____    ______ ____
ROOT
ATOM      1  N   UNL     1       4.282  -0.140  -2.368  0.00  0.00    -0.250 N 
ATOM      2  C   UNL     1       5.224  -0.973  -1.786  0.00  0.00    +0.168 A 
ATOM      3  N   UNL     1       5.054  -2.152  -1.236  0.00  0.00    -0.221 NA
ATOM      4  C   UNL     1       6.074  -2.859  -0.703  0.00  0.00    +0.125 A 
ATOM      5  C   UNL     1       6.026  -4.135  -0.083  0.00  0.00    +0.147 A 
ATOM      6  C   UNL     1       7.166  -4.719   0.412  0.00  0.00    +0.051 A 
ATOM      7  C   UNL     1       8.400  -4.088   0.326  0.00  0.00    +0.050 A 
ATOM      8  C   UNL     1       8.484  -2.841  -0.274  0.00  0.00    +0.136 A 
ATOM      9  C   UNL     1       7.345  -2.249  -0.773  0.00  0.00    +0.086 A 
ATOM     10  S   UNL     1       6.984  -0.719  -1.601  0.00  0.00    -0.048 S 
ATOM     11  C   UNL     1       4.659   1.043  -2.891  0.00  0.00    +0.223 C 
ATOM     12  O   UNL     1       5.824   1.380  -2.852  0.00  0.00    -0.275 OA
ENDROOT
BRANCH   8  13
ATOM     13  O   UNL     1       9.683  -2.207  -0.369  0.00  0.00    -0.494 OA
ATOM     14  C   UNL     1      10.820  -2.884   0.171  0.00  0.00    +0.277 C 
ENDBRANCH   8  13
BRANCH   5  15
ATOM     15  O   UNL     1       4.836  -4.786   0.023  0.00  0.00    -0.493 OA
ATOM     16  C   UNL     1       4.852  -6.066   0.657  0.00  0.00    +0.277 C 
ENDBRANCH   5  15
BRANCH   1  17
ATOM     17  C   UNL     1       2.875  -0.547  -2.416  0.00  0.00    +0.114 C 
BRANCH  17  18
ATOM     18  C   UNL     1       2.159  -0.053  -1.157  0.00  0.00    +0.001 C 
BRANCH  18  19
ATOM     19  C   UNL     1       0.690  -0.478  -1.207  0.00  0.00    -0.078 C 
BRANCH  19  21
ATOM     20  C   UNL     1      -0.018   1.465   0.010  0.00  0.00    -0.097 C 
ATOM     21  N   UNL     1       0.002  -0.004   0.002  0.00  0.00    +0.376 N 
ATOM     22  C   UNL     1      -1.376  -0.512   0.012  0.00  0.00    -0.097 C 
ATOM     23  H   UNL     1       0.490  -0.338   0.820  0.00  0.00    -0.083 HD
ENDBRANCH  19  21
ENDBRANCH  18  19
ENDBRANCH  17  18
ENDBRANCH   1  17
BRANCH  11  24
ATOM     24  C   UNL     1       3.634   1.949  -3.523  0.00  0.00    +0.119 C 
BRANCH  24  25
ATOM     25  C   UNL     1       4.320   3.218  -4.034  0.00  0.00    +0.181 C 
BRANCH  25  26
ATOM     26  S   UNL     1       3.086   4.308  -4.795  0.00  0.00    -0.003 S 
ATOM     27  O   UNL     1       2.585   3.721  -5.989  0.00  0.00    -0.169 OA
ATOM     28  O   UNL     1       2.198   4.808  -3.805  0.00  0.00    -0.169 OA
BRANCH  26  29
ATOM     29  C   UNL     1       3.998   5.716  -5.335  0.00  0.00    +0.088 A 
ATOM     30  C   UNL     1       4.172   6.793  -4.485  0.00  0.00    +0.028 A 
ATOM     31  C   UNL     1       4.886   7.898  -4.908  0.00  0.00    +0.022 A 
ATOM     32  C   UNL     1       5.428   7.926  -6.181  0.00  0.00    +0.041 A 
ATOM     33  C   UNL     1       5.253   6.848  -7.030  0.00  0.00    +0.022 A 
ATOM     34  C   UNL     1       4.543   5.741  -6.605  0.00  0.00    +0.028 A 
ATOM     35 CL   UNL     1       6.325   9.314  -6.712  0.00  0.00    -0.084 Cl
ENDBRANCH  26  29
ENDBRANCH  25  26
ENDBRANCH  24  25
ENDBRANCH  11  24
TORSDOF 10
