REMARK  Name = ZINC09598941
REMARK  11 active torsions:
REMARK  status: ('A' for Active; 'I' for Inactive)
REMARK    1  A    between atoms: C_1  and  C_2
REMARK    2  A    between atoms: C_5  and  C_8
REMARK    3  A    between atoms: C_8  and  N_9
REMARK    4  A    between atoms: C_10  and  C_12
REMARK    5  A    between atoms: C_12  and  C_13
REMARK    6  A    between atoms: C_13  and  C_14
REMARK    7  A    between atoms: C_14  and  C_15
REMARK    8  A    between atoms: C_15  and  C_16
REMARK    9  A    between atoms: C_16  and  N_17
REMARK   10  A    between atoms: N_25  and  C_28
REMARK   11  A    between atoms: C_28  and  C_29
REMARK                            x       y       z     vdW  Elec       q    Type
REMARK                         _______ _______ _______ _____ _____    ______ ____
ROOT
ATOM      1  N   UNL     1       8.531   2.413  -0.066  0.00  0.00    -0.260 N 
ATOM      2  C   UNL     1       9.050   2.853   1.103  0.00  0.00    +0.271 A 
ATOM      3  O   UNL     1       8.609   2.450   2.164  0.00  0.00    -0.266 OA
ATOM      4  C   UNL     1      10.101   3.776   1.075  0.00  0.00    +0.100 A 
ATOM      5  C   UNL     1      10.623   4.251  -0.131  0.00  0.00    +0.066 A 
ATOM      6  C   UNL     1      11.665   5.164   0.004  0.00  0.00    +0.034 A 
ATOM      7  C   UNL     1      12.094   5.524   1.236  0.00  0.00    +0.048 A 
ATOM      8  S   UNL     1      11.072   4.612   2.299  0.00  0.00    -0.090 S 
ATOM      9  N   UNL     1      10.030   3.747  -1.300  0.00  0.00    -0.288 N 
ATOM     10  C   UNL     1       9.028   2.858  -1.233  0.00  0.00    +0.333 A 
ATOM     11  O   UNL     1       8.546   2.442  -2.269  0.00  0.00    -0.246 OA
ENDROOT
BRANCH   1  12
ATOM     12  C   UNL     1       7.431   1.446  -0.061  0.00  0.00    +0.130 C 
BRANCH  12  13
ATOM     13  C   UNL     1       6.096   2.193  -0.044  0.00  0.00    +0.022 C 
BRANCH  13  14
ATOM     14  C   UNL     1       4.946   1.183  -0.039  0.00  0.00    +0.002 C 
BRANCH  14  15
ATOM     15  C   UNL     1       3.611   1.930  -0.022  0.00  0.00    +0.009 C 
BRANCH  15  16
ATOM     16  C   UNL     1       2.462   0.920  -0.017  0.00  0.00    +0.096 C 
BRANCH  16  18
ATOM     17  N   UNL     1      -0.011   0.966   0.007  0.00  0.00    -0.311 N 
ATOM     18  C   UNL     1       1.147   1.655   0.000  0.00  0.00    +0.213 C 
ATOM     19  O   UNL     1       1.130   2.868   0.007  0.00  0.00    -0.276 OA
ATOM     20  H   UNL     1       0.002  -0.004   0.002  0.00  0.00    +0.149 HD
BRANCH  17  21
ATOM     21  C   UNL     1      -1.290   1.681   0.017  0.00  0.00    +0.139 C 
BRANCH  21  26
ATOM     22  C   UNL     1      -5.631  -2.133   0.017  0.00  0.00    +0.044 C 
ATOM     23  C   UNL     1      -4.499  -1.138   0.017  0.00  0.00    -0.050 A 
ATOM     24  C   UNL     1      -3.974  -0.689   1.214  0.00  0.00    +0.003 A 
ATOM     25  C   UNL     1      -2.935   0.224   1.214  0.00  0.00    +0.005 A 
ATOM     26  C   UNL     1      -2.422   0.686   0.017  0.00  0.00    -0.030 A 
ATOM     27  C   UNL     1      -2.950   0.241  -1.180  0.00  0.00    +0.005 A 
ATOM     28  C   UNL     1      -3.986  -0.675  -1.180  0.00  0.00    +0.003 A 
ENDBRANCH  21  26
ENDBRANCH  17  21
ENDBRANCH  16  18
ENDBRANCH  15  16
ENDBRANCH  14  15
ENDBRANCH  13  14
ENDBRANCH  12  13
ENDBRANCH   1  12
BRANCH   9  29
ATOM     29  C   UNL     1      10.517   4.191  -2.608  0.00  0.00    +0.162 C 
BRANCH  29  30
ATOM     30  C   UNL     1      11.621   3.276  -3.072  0.00  0.00    -0.028 A 
ATOM     31  C   UNL     1      12.935   3.561  -2.750  0.00  0.00    +0.007 A 
ATOM     32  C   UNL     1      13.947   2.719  -3.170  0.00  0.00    +0.020 A 
ATOM     33  C   UNL     1      13.646   1.597  -3.922  0.00  0.00    +0.041 A 
ATOM     34  C   UNL     1      12.332   1.316  -4.248  0.00  0.00    +0.020 A 
ATOM     35  C   UNL     1      11.320   2.155  -3.823  0.00  0.00    +0.007 A 
ATOM     36 CL   UNL     1      14.918   0.542  -4.455  0.00  0.00    -0.084 Cl
ENDBRANCH  29  30
ENDBRANCH   9  29
TORSDOF 10
