REMARK  Name = ZINC10001519
REMARK  12 active torsions:
REMARK  status: ('A' for Active; 'I' for Inactive)
REMARK    1  A    between atoms: C_1  and  C_2
REMARK    2  A    between atoms: C_2  and  C_3
REMARK    3  A    between atoms: C_2  and  C_4
REMARK    4  A    between atoms: C_4  and  C_6
REMARK    5  A    between atoms: C_4  and  N_22
REMARK    6  A    between atoms: N_8  and  N_9
REMARK    7  A    between atoms: C_10  and  C_11
REMARK    8  A    between atoms: C_16  and  O_17
REMARK    9  A    between atoms: O_17  and  C_18
REMARK   10  A    between atoms: C_18  and  C_19
REMARK   11  A    between atoms: C_18  and  C_20
REMARK   12  A    between atoms: C_23  and  C_25
REMARK                            x       y       z     vdW  Elec       q    Type
REMARK                         _______ _______ _______ _____ _____    ______ ____
ROOT
ATOM      1  C   UNL     1      -1.948   2.197   2.362  0.00  0.00    +0.163 C 
ENDROOT
BRANCH   1   2
ATOM      2  C   UNL     1      -0.689   2.776   1.772  0.00  0.00    +0.253 C 
ATOM      3  O   UNL     1      -0.279   3.853   2.154  0.00  0.00    -0.272 OA
ATOM      4  N   UNL     1      -0.017   2.100   0.819  0.00  0.00    -0.205 N 
ATOM      5  H   UNL     1      -0.304   1.209   0.563  0.00  0.00    +0.177 HD
BRANCH   4   6
ATOM      6  N   UNL     1       1.092   2.685   0.194  0.00  0.00    -0.188 NA
ATOM      7  C   UNL     1       1.735   2.035  -0.728  0.00  0.00    +0.142 C 
BRANCH   7   8
ATOM      8  C   UNL     1       2.902   2.650  -1.385  0.00  0.00    +0.038 A 
ATOM      9  C   UNL     1       3.600   1.952  -2.373  0.00  0.00    +0.033 A 
ATOM     10  C   UNL     1       4.688   2.536  -2.988  0.00  0.00    +0.042 A 
ATOM     11  C   UNL     1       5.098   3.808  -2.622  0.00  0.00    +0.023 A 
ATOM     12  C   UNL     1       4.418   4.506  -1.642  0.00  0.00    +0.048 A 
ATOM     13  C   UNL     1       3.320   3.937  -1.019  0.00  0.00    +0.130 A 
ATOM     14 CL   UNL     1       5.552   1.672  -4.221  0.00  0.00    -0.084 Cl
BRANCH  13  15
ATOM     15  O   UNL     1       2.651   4.622  -0.055  0.00  0.00    -0.489 OA
BRANCH  15  16
ATOM     16  C   UNL     1       3.204   5.876   0.351  0.00  0.00    +0.167 C 
ATOM     17  C   UNL     1       2.743   6.972  -0.612  0.00  0.00    +0.051 C 
ATOM     18  C   UNL     1       2.728   6.208   1.767  0.00  0.00    +0.051 C 
ENDBRANCH  15  16
ENDBRANCH  13  15
ENDBRANCH   7   8
ENDBRANCH   4   6
ENDBRANCH   1   2
BRANCH   1  19
ATOM     19  N   UNL     1      -2.833   3.284   2.787  0.00  0.00    -0.300 N 
ATOM     20  C   UNL     1      -4.163   3.077   2.868  0.00  0.00    +0.245 C 
ATOM     21  O   UNL     1      -4.627   1.989   2.588  0.00  0.00    -0.270 OA
ATOM     22  H   UNL     1      -2.463   4.152   3.011  0.00  0.00    +0.150 HD
BRANCH  20  23
ATOM     23  C   UNL     1      -5.055   4.172   3.297  0.00  0.00    +0.040 A 
ATOM     24  C   UNL     1      -4.523   5.421   3.624  0.00  0.00    +0.017 A 
ATOM     25  C   UNL     1      -5.357   6.444   4.019  0.00  0.00    +0.050 A 
ATOM     26  C   UNL     1      -6.728   6.235   4.104  0.00  0.00    +0.166 A 
ATOM     27  C   UNL     1      -7.265   4.987   3.783  0.00  0.00    +0.167 A 
ATOM     28  C   UNL     1      -6.434   3.960   3.381  0.00  0.00    +0.062 A 
ATOM     29  O   UNL     1      -8.620   5.042   3.946  0.00  0.00    -0.453 OA
ATOM     30  C   UNL     1      -8.861   6.205   4.760  0.00  0.00    +0.466 C 
ATOM     31  O   UNL     1      -7.745   7.066   4.466  0.00  0.00    -0.453 OA
ENDBRANCH  20  23
ENDBRANCH   1  19
BRANCH   1  33
ATOM     32  C   UNL     1      -2.863   0.684   4.128  0.00  0.00    +0.009 C 
ATOM     33  C   UNL     1      -1.592   1.327   3.570  0.00  0.00    +0.012 C 
ATOM     34  C   UNL     1      -0.613   0.232   3.139  0.00  0.00    +0.009 C 
ENDBRANCH   1  33
TORSDOF 8
