REMARK  Name = ZINC35777995
REMARK  15 active torsions:
REMARK  status: ('A' for Active; 'I' for Inactive)
REMARK    1  A    between atoms: C_1  and  C_2
REMARK    2  A    between atoms: C_6  and  O_8
REMARK    3  A    between atoms: O_8  and  C_9
REMARK    4  A    between atoms: C_10  and  C_21
REMARK    5  A    between atoms: C_11  and  C_20
REMARK    6  A    between atoms: N_13  and  C_14
REMARK    7  A    between atoms: C_21  and  N_22
REMARK    8  A    between atoms: N_22  and  C_23
REMARK    9  A    between atoms: N_22  and  C_29
REMARK   10  A    between atoms: C_23  and  C_24
REMARK   11  A    between atoms: C_29  and  C_30
REMARK   12  A    between atoms: C_30  and  C_32
REMARK   13  A    between atoms: C_30  and  O_40
REMARK   14  A    between atoms: C_32  and  O_33
REMARK   15  A    between atoms: O_33  and  C_34
REMARK                            x       y       z     vdW  Elec       q    Type
REMARK                         _______ _______ _______ _____ _____    ______ ____
ROOT
ATOM      1  C   UNL     1      -0.031  -4.470   4.523  0.00  0.00    -0.035 C 
ENDROOT
BRANCH   1   3
ATOM      2  C   UNL     1      -0.460  -3.524   2.188  0.00  0.00    +0.225 A 
ATOM      3  C   UNL     1      -0.392  -4.562   3.063  0.00  0.00    +0.021 A 
ATOM      4  C   UNL     1      -0.717  -5.731   2.367  0.00  0.00    +0.065 A 
ATOM      5  N   UNL     1      -0.971  -5.416   1.123  0.00  0.00    -0.168 NA
ATOM      6  N   UNL     1      -0.824  -4.030   0.979  0.00  0.00    -0.200 N 
ATOM      7  C   UNL     1      -0.764  -7.120   2.952  0.00  0.00    +0.068 C 
BRANCH   6   8
ATOM      8  C   UNL     1      -1.014  -3.297  -0.200  0.00  0.00    +0.069 A 
ATOM      9  C   UNL     1      -1.635  -2.057  -0.156  0.00  0.00    +0.028 A 
ATOM     10  C   UNL     1      -1.821  -1.337  -1.319  0.00  0.00    +0.002 A 
ATOM     11  C   UNL     1      -1.389  -1.851  -2.529  0.00  0.00    +0.000 A 
ATOM     12  C   UNL     1      -0.770  -3.086  -2.576  0.00  0.00    +0.002 A 
ATOM     13  C   UNL     1      -0.576  -3.808  -1.415  0.00  0.00    +0.028 A 
ENDBRANCH   6   8
BRANCH   2  14
ATOM     14  O   UNL     1      -0.216  -2.219   2.471  0.00  0.00    -0.438 OA
BRANCH  14  20
ATOM     15  C   UNL     1       2.873   1.559   2.393  0.00  0.00    +0.044 C 
ATOM     16  C   UNL     1       2.574   0.098   2.178  0.00  0.00    -0.047 A 
ATOM     17  C   UNL     1       3.569  -0.753   1.732  0.00  0.00    +0.003 A 
ATOM     18  C   UNL     1       3.297  -2.094   1.534  0.00  0.00    +0.004 A 
ATOM     19  C   UNL     1       2.031  -2.587   1.781  0.00  0.00    +0.046 A 
ATOM     20  C   UNL     1       1.031  -1.736   2.228  0.00  0.00    +0.131 A 
ATOM     21  C   UNL     1       1.307  -0.391   2.431  0.00  0.00    +0.049 A 
ENDBRANCH  14  20
ENDBRANCH   2  14
ENDBRANCH   1   3
BRANCH   1  22
ATOM     22  N   UNL     1      -1.249  -4.260   5.316  0.00  0.00    +0.389 N 
ATOM     23  H   UNL     1      -1.739  -3.448   4.971  0.00  0.00    -0.081 HD
BRANCH  22  24
ATOM     24  C   UNL     1      -2.117  -5.440   5.204  0.00  0.00    -0.003 C 
BRANCH  24  25
ATOM     25  C   UNL     1      -3.426  -5.169   5.900  0.00  0.00    +0.089 A 
ATOM     26  C   UNL     1      -4.527  -4.648   5.330  0.00  0.00    +0.042 A 
ATOM     27  C   UNL     1      -5.513  -4.567   6.341  0.00  0.00    +0.041 A 
ATOM     28  C   UNL     1      -4.955  -5.043   7.468  0.00  0.00    +0.195 A 
ATOM     29  O   UNL     1      -3.692  -5.412   7.194  0.00  0.00    -0.470 OA
ENDBRANCH  24  25
ENDBRANCH  22  24
BRANCH  22  30
ATOM     30  C   UNL     1      -0.887  -4.050   6.724  0.00  0.00    -0.043 C 
BRANCH  30  31
ATOM     31  C   UNL     1      -0.105  -2.742   6.861  0.00  0.00    +0.135 C 
BRANCH  31  32
ATOM     32  O   UNL     1      -0.931  -1.649   6.455  0.00  0.00    -0.390 OA
ATOM     33  H   UNL     1      -1.703  -1.508   7.020  0.00  0.00    +0.210 HD
ENDBRANCH  31  32
BRANCH  31  34
ATOM     34  C   UNL     1       0.316  -2.549   8.319  0.00  0.00    +0.258 C 
BRANCH  34  35
ATOM     35  O   UNL     1       1.143  -1.389   8.426  0.00  0.00    -0.489 OA
BRANCH  35  36
ATOM     36  C   UNL     1       1.606  -1.074   9.665  0.00  0.00    +0.121 A 
ATOM     37  C   UNL     1       1.275  -1.868  10.753  0.00  0.00    +0.045 A 
ATOM     38  C   UNL     1       1.747  -1.546  12.011  0.00  0.00    +0.004 A 
ATOM     39  C   UNL     1       2.548  -0.432  12.185  0.00  0.00    +0.000 A 
ATOM     40  C   UNL     1       2.879   0.361  11.102  0.00  0.00    +0.004 A 
ATOM     41  C   UNL     1       2.415   0.039   9.842  0.00  0.00    +0.045 A 
ENDBRANCH  35  36
ENDBRANCH  34  35
ENDBRANCH  31  34
ENDBRANCH  30  31
ENDBRANCH  22  30
ENDBRANCH   1  22
TORSDOF 13
