REMARK  Name = ZINC50998808
REMARK  7 active torsions:
REMARK  status: ('A' for Active; 'I' for Inactive)
REMARK    1  A    between atoms: C_1  and  C_2
REMARK    2  A    between atoms: C_2  and  C_3
REMARK    3  A    between atoms: C_3  and  N_4
REMARK    4  A    between atoms: C_6  and  C_12
REMARK    5  A    between atoms: C_8  and  C_9
REMARK    6  A    between atoms: C_9  and  C_10
REMARK    7  A    between atoms: C_9  and  C_11
REMARK                            x       y       z     vdW  Elec       q    Type
REMARK                         _______ _______ _______ _____ _____    ______ ____
ROOT
ATOM      1  N   UNL     1      -1.567  -2.213   0.129  0.00  0.00    -0.278 N 
ATOM      2  C   UNL     1      -1.425  -3.162  -0.861  0.00  0.00    +0.101 C 
ATOM      3  C   UNL     1      -1.187  -4.460  -0.113  0.00  0.00    +0.172 C 
ATOM      4  N   UNL     1      -1.226  -4.062   1.303  0.00  0.00    -0.363 N 
ATOM      5  C   UNL     1      -1.436  -2.795   1.359  0.00  0.00    +0.079 C 
ATOM      6  N   UNL     1      -1.482  -2.985  -2.140  0.00  0.00    -0.388 N 
ATOM      7  H   UNL     1      -1.641  -2.098  -2.500  0.00  0.00    +0.157 HD
ATOM      8  H   UNL     1      -1.366  -3.739  -2.739  0.00  0.00    +0.157 HD
ATOM      9  H   UNL     1      -1.109  -4.654   2.063  0.00  0.00    +0.162 HD
ENDROOT
BRANCH   3  10
ATOM     10  C   UNL     1      -2.281  -5.452  -0.414  0.00  0.00    -0.018 A 
ATOM     11  C   UNL     1      -3.500  -5.353   0.231  0.00  0.00    +0.007 A 
ATOM     12  C   UNL     1      -4.503  -6.263  -0.045  0.00  0.00    +0.015 A 
ATOM     13  C   UNL     1      -4.288  -7.271  -0.967  0.00  0.00    +0.018 A 
ATOM     14  C   UNL     1      -3.068  -7.370  -1.612  0.00  0.00    +0.015 A 
ATOM     15  C   UNL     1      -2.067  -6.457  -1.339  0.00  0.00    +0.007 A 
ATOM     16 BR   UNL     1      -5.660  -8.516  -1.345  0.00  0.00    -0.050 Br
ENDBRANCH   3  10
BRANCH   5  17
ATOM     17  C   UNL     1      -1.532  -2.027   2.652  0.00  0.00    +0.044 C 
ATOM     18  C   UNL     1      -2.108  -2.935   3.741  0.00  0.00    +0.015 C 
ATOM     19  C   UNL     1      -0.139  -1.551   3.068  0.00  0.00    +0.015 C 
ENDBRANCH   5  17
BRANCH   1  20
ATOM     20  C   UNL     1      -1.816  -0.788  -0.103  0.00  0.00    +0.113 C 
BRANCH  20  22
ATOM     21  C   UNL     1      -3.584   0.949  -0.419  0.00  0.00    +0.005 C 
ATOM     22  C   UNL     1      -3.322  -0.544  -0.207  0.00  0.00    +0.016 C 
ENDBRANCH  20  22
ENDBRANCH   1  20
TORSDOF 4
