REMARK  Name = ZINC67387531
REMARK  4 active torsions:
REMARK  status: ('A' for Active; 'I' for Inactive)
REMARK    1  A    between atoms: C_3  and  C_11
REMARK    2  A    between atoms: N_19  and  C_20
REMARK    3  A    between atoms: C_20  and  C_21
REMARK    4  A    between atoms: C_20  and  C_24
REMARK                            x       y       z     vdW  Elec       q    Type
REMARK                         _______ _______ _______ _____ _____    ______ ____
ROOT
ATOM      1  C   UNL     1       3.167   2.264   0.220  0.00  0.00    +0.111 C 
ATOM      2  C   UNL     1       3.867   2.342   1.593  0.00  0.00    +0.029 C 
ATOM      3  C   UNL     1       4.745   3.616   1.464  0.00  0.00    +0.021 C 
ATOM      4  C   UNL     1       3.842   4.529   0.598  0.00  0.00    +0.110 C 
ATOM      5  N   UNL     1       3.189   3.615  -0.361  0.00  0.00    -0.278 N 
ATOM      6  C   UNL     1       2.694   3.958  -1.567  0.00  0.00    +0.303 C 
ATOM      7  O   UNL     1       2.176   3.116  -2.274  0.00  0.00    -0.253 OA
ATOM      8  N   UNL     1       2.775   5.235  -1.990  0.00  0.00    -0.296 N 
ATOM      9  H   UNL     1       3.189   5.907  -1.426  0.00  0.00    +0.151 HD
ENDROOT
BRANCH   1  12
ATOM     10  C   UNL     1      -0.591   2.312   0.581  0.00  0.00    +0.004 A 
ATOM     11  C   UNL     1       0.717   2.730   0.421  0.00  0.00    +0.009 A 
ATOM     12  C   UNL     1       1.743   1.805   0.396  0.00  0.00    +0.018 A 
ATOM     13  C   UNL     1       1.463   0.453   0.534  0.00  0.00    +0.167 A 
ATOM     14  C   UNL     1       0.148   0.033   0.698  0.00  0.00    +0.162 A 
ATOM     15  C   UNL     1      -0.877   0.967   0.719  0.00  0.00    +0.049 A 
ATOM     16  O   UNL     1      -0.147  -1.288   0.842  0.00  0.00    -0.485 OA
ATOM     17  C   UNL     1       0.862  -2.221   0.442  0.00  0.00    +0.270 C 
ATOM     18  C   UNL     1       2.205  -1.753   1.020  0.00  0.00    +0.270 C 
ATOM     19  O   UNL     1       2.484  -0.447   0.504  0.00  0.00    -0.485 OA
ENDBRANCH   1  12
BRANCH   8  20
ATOM     20  C   UNL     1       2.238   5.609  -3.301  0.00  0.00    +0.081 C 
BRANCH  20  21
ATOM     21  C   UNL     1       1.443   6.910  -3.174  0.00  0.00    +0.010 C 
ATOM     22  C   UNL     1      -0.082   6.818  -3.261  0.00  0.00    +0.006 C 
ATOM     23  C   UNL     1       0.716   7.418  -4.421  0.00  0.00    +0.006 C 
ENDBRANCH  20  21
BRANCH  20  24
ATOM     24  C   UNL     1       3.391   5.809  -4.286  0.00  0.00    +0.010 C 
ATOM     25  C   UNL     1       3.316   5.067  -5.622  0.00  0.00    +0.006 C 
ATOM     26  C   UNL     1       4.310   4.615  -4.551  0.00  0.00    +0.006 C 
ENDBRANCH  20  24
ENDBRANCH   8  20
TORSDOF 4
