REMARK  Name = ZINC39998951
REMARK  13 active torsions:
REMARK  status: ('A' for Active; 'I' for Inactive)
REMARK    1  A    between atoms: C_1  and  C_2
REMARK    2  A    between atoms: C_7  and  O_25
REMARK    3  A    between atoms: C_8  and  C_13
REMARK    4  A    between atoms: C_14  and  C_15
REMARK    5  A    between atoms: C_14  and  C_17
REMARK    6  A    between atoms: N_19  and  C_20
REMARK    7  A    between atoms: C_20  and  C_21
REMARK    8  A    between atoms: C_21  and  C_22
REMARK    9  A    between atoms: C_22  and  O_23
REMARK   10  A    between atoms: O_23  and  C_24
REMARK   11  A    between atoms: O_25  and  C_26
REMARK   12  A    between atoms: C_28  and  C_33
REMARK   13  A    between atoms: C_30  and  C_32
REMARK                            x       y       z     vdW  Elec       q    Type
REMARK                         _______ _______ _______ _____ _____    ______ ____
ROOT
ATOM      1  C   UNL     1      -0.133   1.889   0.800  0.00  0.00    +0.045 C 
ATOM      2  C   UNL     1      -0.153   0.393   0.619  0.00  0.00    -0.034 A 
ATOM      3  C   UNL     1      -0.259  -0.155  -0.666  0.00  0.00    +0.008 A 
ATOM      4  C   UNL     1      -0.275  -1.510  -0.820  0.00  0.00    +0.047 A 
ATOM      5  C   UNL     1      -0.185  -2.338   0.313  0.00  0.00    +0.144 A 
ATOM      6  N   UNL     1      -0.202  -3.663   0.151  0.00  0.00    -0.194 NA
ATOM      7  C   UNL     1      -0.121  -4.490   1.179  0.00  0.00    +0.235 A 
ATOM      8  C   UNL     1      -0.013  -3.966   2.490  0.00  0.00    +0.103 A 
ATOM      9  C   UNL     1       0.005  -2.556   2.651  0.00  0.00    +0.269 A 
ATOM     10  O   UNL     1       0.096  -2.060   3.760  0.00  0.00    -0.266 OA
ATOM     11  N   UNL     1      -0.082  -1.774   1.553  0.00  0.00    -0.267 N 
ATOM     12  C   UNL     1      -0.062  -0.419   1.697  0.00  0.00    +0.099 A 
ENDROOT
BRANCH   8  13
ATOM     13  C   UNL     1       0.075  -4.821   3.603  0.00  0.00    +0.042 C 
ATOM     14  C   UNL     1       1.088  -5.768   3.674  0.00  0.00    +0.114 C 
BRANCH  14  15
ATOM     15  C   UNL     1       1.103  -6.746   4.767  0.00  0.00    +0.254 C 
ATOM     16  O   UNL     1       0.228  -6.727   5.612  0.00  0.00    -0.269 OA
ATOM     17  N   UNL     1       2.087  -7.665   4.835  0.00  0.00    -0.311 N 
ATOM     18  H   UNL     1       2.784  -7.680   4.161  0.00  0.00    +0.149 HD
BRANCH  17  19
ATOM     19  C   UNL     1       2.102  -8.642   5.927  0.00  0.00    +0.107 C 
BRANCH  19  20
ATOM     20  C   UNL     1       3.314  -9.563   5.770  0.00  0.00    +0.047 C 
BRANCH  20  21
ATOM     21  C   UNL     1       3.330 -10.583   6.910  0.00  0.00    +0.161 C 
BRANCH  21  22
ATOM     22  O   UNL     1       4.462 -11.443   6.764  0.00  0.00    -0.383 OA
ATOM     23  C   UNL     1       4.571 -12.438   7.784  0.00  0.00    +0.193 C 
ENDBRANCH  21  22
ENDBRANCH  20  21
ENDBRANCH  19  20
ENDBRANCH  17  19
ENDBRANCH  14  15
BRANCH  14  24
ATOM     24  C   UNL     1       2.117  -5.790   2.679  0.00  0.00    +0.104 C 
ATOM     25  N   UNL     1       2.934  -5.808   1.889  0.00  0.00    -0.191 NA
ENDBRANCH  14  24
ENDBRANCH   8  13
BRANCH   7  26
ATOM     26  O   UNL     1      -0.141  -5.827   0.979  0.00  0.00    -0.437 OA
BRANCH  26  27
ATOM     27  C   UNL     1      -0.350  -6.281  -0.285  0.00  0.00    +0.131 A 
ATOM     28  C   UNL     1       0.598  -6.048  -1.271  0.00  0.00    +0.049 A 
ATOM     29  C   UNL     1       0.384  -6.511  -2.555  0.00  0.00    -0.047 A 
ATOM     30  C   UNL     1      -0.774  -7.203  -2.858  0.00  0.00    +0.007 A 
ATOM     31  C   UNL     1      -1.720  -7.436  -1.877  0.00  0.00    -0.047 A 
ATOM     32  C   UNL     1      -1.508  -6.981  -0.590  0.00  0.00    +0.049 A 
ATOM     33  C   UNL     1      -2.981  -8.191  -2.210  0.00  0.00    +0.044 C 
ATOM     34  C   UNL     1       1.412  -6.259  -3.628  0.00  0.00    +0.044 C 
ENDBRANCH  26  27
ENDBRANCH   7  26
TORSDOF 9
