REMARK  Name = ZINC00650541
REMARK  12 active torsions:
REMARK  status: ('A' for Active; 'I' for Inactive)
REMARK    1  A    between atoms: C_1  and  C_2
REMARK    2  A    between atoms: C_2  and  N_3
REMARK    3  A    between atoms: C_4  and  C_33
REMARK    4  A    between atoms: C_5  and  C_9
REMARK    5  A    between atoms: C_6  and  C_8
REMARK    6  A    between atoms: C_17  and  N_32
REMARK    7  A    between atoms: C_18  and  C_30
REMARK    8  A    between atoms: C_19  and  C_21
REMARK    9  A    between atoms: C_22  and  C_29
REMARK   10  A    between atoms: N_24  and  C_27
REMARK   11  A    between atoms: C_25  and  C_26
REMARK   12  A    between atoms: C_27  and  C_28
REMARK                            x       y       z     vdW  Elec       q    Type
REMARK                         _______ _______ _______ _____ _____    ______ ____
ROOT
ATOM      1  C   UNL     1       0.922  -1.549  -4.663  0.00  0.00    +0.018 C 
ATOM      2  C   UNL     1       1.715  -1.020  -5.611  0.00  0.00    -0.004 C 
ATOM      3  C   UNL     1       2.796  -0.025  -5.253  0.00  0.00    +0.039 C 
ATOM      4  C   UNL     1       2.771   1.070  -6.331  0.00  0.00    +0.009 C 
ATOM      5  C   UNL     1       3.101   0.438  -7.679  0.00  0.00    +0.036 C 
ATOM      6  C   UNL     1       2.187  -0.721  -7.987  0.00  0.00    -0.014 C 
ATOM      7  C   UNL     1       1.556  -1.400  -7.029  0.00  0.00    +0.133 C 
ATOM      8  O   UNL     1       0.746  -2.451  -7.316  0.00  0.00    -0.441 OA
ATOM      9  C   UNL     1       0.877  -3.105  -8.482  0.00  0.00    +0.199 C 
ATOM     10  C   UNL     1       1.479  -2.514  -9.545  0.00  0.00    +0.098 C 
ATOM     11  C   UNL     1       2.006  -1.105  -9.438  0.00  0.00    +0.097 C 
ENDROOT
BRANCH   1  14
ATOM     12  N   UNL     1       0.688  -0.476  -1.203  0.00  0.00    -0.268 N 
ATOM     13  C   UNL     1       0.106  -0.736  -2.391  0.00  0.00    +0.044 A 
ATOM     14  C   UNL     1       1.098  -1.156  -3.253  0.00  0.00    +0.019 A 
ATOM     15  C   UNL     1       2.312  -1.140  -2.532  0.00  0.00    +0.067 A 
ATOM     16  N   UNL     1       2.059  -0.730  -1.319  0.00  0.00    -0.176 NA
ATOM     17  C   UNL     1       3.666  -1.524  -3.072  0.00  0.00    +0.068 C 
ATOM     18  C   UNL     1      -1.358  -0.593  -2.717  0.00  0.00    +0.066 C 
BRANCH  12  20
ATOM     19  C   UNL     1      -0.019   1.526   0.010  0.00  0.00    +0.029 C 
ATOM     20  C   UNL     1       0.002  -0.004   0.002  0.00  0.00    +0.140 C 
ENDBRANCH  12  20
ENDBRANCH   1  14
BRANCH  11  21
ATOM     21  C   UNL     1       1.043  -0.147 -10.091  0.00  0.00    +0.008 A 
ATOM     22  C   UNL     1      -0.284   0.076  -9.707  0.00  0.00    +0.064 A 
ATOM     23  N   UNL     1      -0.796   0.974 -10.508  0.00  0.00    -0.176 NA
ATOM     24  N   UNL     1       0.189   1.352 -11.429  0.00  0.00    -0.268 N 
ATOM     25  C   UNL     1       1.310   0.654 -11.149  0.00  0.00    +0.040 A 
ATOM     26  C   UNL     1       2.622   0.746 -11.884  0.00  0.00    +0.065 C 
ATOM     27  C   UNL     1      -0.999  -0.602  -8.566  0.00  0.00    +0.068 C 
BRANCH  24  28
ATOM     28  C   UNL     1       0.033   2.335 -12.504  0.00  0.00    +0.140 C 
ATOM     29  C   UNL     1       0.414   3.723 -11.984  0.00  0.00    +0.029 C 
ENDBRANCH  24  28
ENDBRANCH  11  21
BRANCH   9  30
ATOM     30  N   UNL     1       0.397  -4.386  -8.601  0.00  0.00    -0.328 N 
ATOM     31  H   UNL     1      -0.034  -4.814  -7.845  0.00  0.00    +0.145 HD
ATOM     32  H   UNL     1       0.489  -4.863  -9.440  0.00  0.00    +0.145 HD
ENDBRANCH   9  30
BRANCH  10  33
ATOM     33  C   UNL     1       1.606  -3.230 -10.778  0.00  0.00    +0.101 C 
ATOM     34  N   UNL     1       1.707  -3.798 -11.757  0.00  0.00    -0.191 NA
ENDBRANCH  10  33
TORSDOF 6
