REMARK  Name = ZINC02398702
REMARK  6 active torsions:
REMARK  status: ('A' for Active; 'I' for Inactive)
REMARK    1  A    between atoms: C_1  and  O_2
REMARK    2  A    between atoms: O_2  and  C_3
REMARK    3  A    between atoms: C_6  and  O_35
REMARK    4  A    between atoms: C_7  and  C_9
REMARK    5  A    between atoms: C_26  and  C_28
REMARK    6  A    between atoms: O_35  and  C_36
REMARK                            x       y       z     vdW  Elec       q    Type
REMARK                         _______ _______ _______ _____ _____    ______ ____
ROOT
ATOM      1  C   UNL     1      -2.170  -4.606   0.177  0.00  0.00    +0.238 C 
ATOM      2  C   UNL     1      -2.447  -4.909   1.621  0.00  0.00    +0.027 C 
ATOM      3  C   UNL     1      -1.440  -5.212   2.464  0.00  0.00    +0.083 C 
ATOM      4  C   UNL     1      -0.064  -5.244   1.905  0.00  0.00    +0.042 A 
ATOM      5  C   UNL     1       1.054  -5.221   2.727  0.00  0.00    +0.013 A 
ATOM      6  C   UNL     1       2.316  -5.251   2.163  0.00  0.00    +0.001 A 
ATOM      7  C   UNL     1       2.463  -5.303   0.788  0.00  0.00    +0.004 A 
ATOM      8  C   UNL     1       1.354  -5.326  -0.037  0.00  0.00    +0.046 A 
ATOM      9  C   UNL     1       0.085  -5.298   0.513  0.00  0.00    +0.131 A 
ATOM     10  O   UNL     1      -1.020  -5.326  -0.269  0.00  0.00    -0.479 OA
ATOM     11  N   UNL     1      -1.668  -5.482   3.773  0.00  0.00    -0.213 NA
ATOM     12  C   UNL     1      -2.856  -5.482   4.333  0.00  0.00    +0.237 C 
ATOM     13  N   UNL     1      -3.256  -5.727   5.600  0.00  0.00    -0.205 NA
ATOM     14  C   UNL     1      -4.552  -5.613   5.697  0.00  0.00    +0.203 C 
ATOM     15  N   UNL     1      -5.071  -5.284   4.482  0.00  0.00    -0.251 N 
ATOM     16  N   UNL     1      -3.991  -5.196   3.601  0.00  0.00    -0.208 N 
ATOM     17  C   UNL     1      -3.855  -4.883   2.173  0.00  0.00    +0.162 C 
ATOM     18  H   UNL     1      -6.006  -5.139   4.270  0.00  0.00    +0.171 HD
ENDROOT
BRANCH  17  19
ATOM     19  C   UNL     1      -4.683  -5.873   1.394  0.00  0.00    +0.014 A 
ATOM     20  C   UNL     1      -4.812  -7.173   1.846  0.00  0.00    +0.008 A 
ATOM     21  C   UNL     1      -5.572  -8.081   1.132  0.00  0.00    +0.001 A 
ATOM     22  C   UNL     1      -6.204  -7.689  -0.034  0.00  0.00    +0.003 A 
ATOM     23  C   UNL     1      -6.076  -6.390  -0.487  0.00  0.00    +0.039 A 
ATOM     24  C   UNL     1      -5.320  -5.478   0.230  0.00  0.00    +0.129 A 
ATOM     25  F   UNL     1      -5.198  -4.207  -0.209  0.00  0.00    -0.205 F 
ENDBRANCH  17  19
BRANCH   1  30
ATOM     26  C   UNL     1      -2.068  -0.893   0.872  0.00  0.00    +0.121 A 
ATOM     27  C   UNL     1      -1.476  -0.410  -0.285  0.00  0.00    +0.049 A 
ATOM     28  C   UNL     1      -1.110  -1.284  -1.290  0.00  0.00    +0.049 A 
ATOM     29  C   UNL     1      -1.335  -2.644  -1.142  0.00  0.00    +0.127 A 
ATOM     30  C   UNL     1      -1.926  -3.127   0.016  0.00  0.00    +0.042 A 
ATOM     31  C   UNL     1      -2.287  -2.254   1.023  0.00  0.00    +0.056 A 
BRANCH  26  33
ATOM     32  C   UNL     1      -2.173   1.356   1.639  0.00  0.00    +0.277 C 
ATOM     33  O   UNL     1      -2.428  -0.032   1.862  0.00  0.00    -0.495 OA
ENDBRANCH  26  33
BRANCH  29  34
ATOM     34  O   UNL     1      -0.975  -3.505  -2.131  0.00  0.00    -0.495 OA
ATOM     35  C   UNL     1      -0.371  -2.938  -3.296  0.00  0.00    +0.277 C 
ENDBRANCH  29  34
ENDBRANCH   1  30
TORSDOF 4
