REMARK  Name = ZINC08440415
REMARK  7 active torsions:
REMARK  status: ('A' for Active; 'I' for Inactive)
REMARK    1  A    between atoms: C_1  and  C_2
REMARK    2  A    between atoms: C_3  and  C_8
REMARK    3  A    between atoms: N_5  and  C_7
REMARK    4  A    between atoms: C_13  and  C_17
REMARK    5  A    between atoms: C_13  and  C_18
REMARK    6  A    between atoms: C_20  and  C_32
REMARK    7  A    between atoms: C_21  and  C_22
REMARK                            x       y       z     vdW  Elec       q    Type
REMARK                         _______ _______ _______ _____ _____    ______ ____
ROOT
ATOM      1  C   UNL     1       6.095   3.513  -0.056  0.00  0.00    +0.094 C 
ATOM      2  C   UNL     1       7.210   4.434   0.375  0.00  0.00    +0.024 C 
ATOM      3  C   UNL     1       7.025   5.771   0.409  0.00  0.00    +0.016 C 
ATOM      4  C   UNL     1       8.138   6.699   0.827  0.00  0.00    +0.058 C 
ATOM      5  C   UNL     1       9.044   5.993   1.838  0.00  0.00    -0.023 C 
ATOM      6  C   UNL     1       9.593   4.717   1.192  0.00  0.00    +0.086 C 
ATOM      7  C   UNL     1       8.441   3.862   0.739  0.00  0.00    +0.162 C 
ATOM      8  O   UNL     1       8.577   2.656   0.687  0.00  0.00    -0.292 OA
ATOM      9  C   UNL     1       8.236   5.630   3.086  0.00  0.00    +0.011 C 
ATOM     10  C   UNL     1      10.203   6.913   2.227  0.00  0.00    +0.011 C 
ATOM     11  N   UNL     1       5.816   6.314   0.067  0.00  0.00    -0.321 N 
ATOM     12  C   UNL     1       4.682   5.548   0.060  0.00  0.00    +0.014 C 
ATOM     13  C   UNL     1       4.767   4.208   0.012  0.00  0.00    +0.043 C 
ATOM     14  C   UNL     1       3.330   6.211   0.113  0.00  0.00    +0.061 C 
ATOM     15  H   UNL     1       5.748   7.377  -0.207  0.00  0.00    +0.152 HD
ENDROOT
BRANCH  13  16
ATOM     16  C   UNL     1       3.579   3.436   0.019  0.00  0.00    +0.248 C 
ATOM     17  O   UNL     1       3.182   2.939   1.057  0.00  0.00    -0.270 OA
ATOM     18  N   UNL     1       2.888   3.252  -1.123  0.00  0.00    -0.267 N 
ATOM     19  C   UNL     1       1.663   2.589  -1.097  0.00  0.00    +0.125 A 
ATOM     20  C   UNL     1       0.903   2.501  -2.259  0.00  0.00    +0.045 A 
ATOM     21  C   UNL     1      -0.311   1.839  -2.220  0.00  0.00    +0.020 A 
ATOM     22  C   UNL     1      -0.726   1.287  -1.014  0.00  0.00    +0.036 A 
ATOM     23  C   UNL     1       0.080   1.413   0.100  0.00  0.00    +0.128 A 
ATOM     24  N   UNL     1       1.234   2.049   0.032  0.00  0.00    -0.239 NA
ATOM     25 BR   UNL     1      -2.377   0.372  -0.901  0.00  0.00    -0.049 Br
ATOM     26  H   UNL     1       3.292   3.625  -2.076  0.00  0.00    +0.157 HD
ENDBRANCH  13  16
BRANCH   1  29
ATOM     27  C   UNL     1       6.555   0.524  -1.002  0.00  0.00    +0.068 C 
ATOM     28  C   UNL     1       6.549   1.742  -1.890  0.00  0.00    +0.064 A 
ATOM     29  C   UNL     1       6.346   3.061  -1.471  0.00  0.00    +0.005 A 
ATOM     30  C   UNL     1       6.420   3.860  -2.561  0.00  0.00    +0.112 A 
ATOM     31  N   UNL     1       6.656   3.074  -3.632  0.00  0.00    -0.274 N 
ATOM     32  N   UNL     1       6.729   1.748  -3.186  0.00  0.00    -0.176 NA
ATOM     33  C   UNL     1       6.809   3.527  -5.017  0.00  0.00    +0.172 C 
ENDBRANCH   1  29
TORSDOF 2
