REMARK  Name = ZINC06820402
REMARK  6 active torsions:
REMARK  status: ('A' for Active; 'I' for Inactive)
REMARK    1  A    between atoms: C_1  and  C_2
REMARK    2  A    between atoms: C_2  and  C_4
REMARK    3  A    between atoms: C_4  and  S_14
REMARK    4  A    between atoms: N_5  and  N_6
REMARK    5  A    between atoms: N_6  and  C_7
REMARK    6  A    between atoms: S_14  and  C_15
REMARK                            x       y       z     vdW  Elec       q    Type
REMARK                         _______ _______ _______ _____ _____    ______ ____
ROOT
ATOM      1  C   UNL     1       0.008  -0.701  -1.222  0.00  0.00    +0.166 C 
ATOM      2  N   UNL     1       0.064  -0.034  -2.348  0.00  0.00    -0.172 NA
ENDROOT
BRANCH   1   4
ATOM      3  C   UNL     1      -0.107   1.500   0.022  0.00  0.00    +0.094 C 
ATOM      4  C   UNL     1      -0.079  -0.006   0.008  0.00  0.00    +0.187 C 
ATOM      5  O   UNL     1      -0.131  -0.625   1.052  0.00  0.00    -0.290 OA
ENDBRANCH   1   4
BRANCH   2   6
ATOM      6  N   UNL     1       0.249  -0.717  -3.558  0.00  0.00    -0.237 N 
ATOM      7  H   UNL     1       0.260  -1.686  -3.571  0.00  0.00    +0.174 HD
BRANCH   6   8
ATOM      8  C   UNL     1       0.418  -0.001  -4.743  0.00  0.00    +0.048 A 
ATOM      9  C   UNL     1       0.302   1.384  -4.744  0.00  0.00    +0.026 A 
ATOM     10  C   UNL     1       0.469   2.089  -5.919  0.00  0.00    +0.017 A 
ATOM     11  C   UNL     1       0.753   1.418  -7.096  0.00  0.00    +0.018 A 
ATOM     12  C   UNL     1       0.869   0.039  -7.099  0.00  0.00    +0.017 A 
ATOM     13  C   UNL     1       0.709  -0.671  -5.926  0.00  0.00    +0.026 A 
ATOM     14 BR   UNL     1       0.982   2.388  -8.703  0.00  0.00    -0.050 Br
ENDBRANCH   6   8
ENDBRANCH   2   6
BRANCH   1  15
ATOM     15  S   UNL     1       0.041  -2.463  -1.238  0.00  0.00    -0.006 S 
BRANCH  15  16
ATOM     16  C   UNL     1       1.728  -2.854  -1.562  0.00  0.00    +0.264 A 
ATOM     17  N   UNL     1       2.699  -1.980  -1.644  0.00  0.00    -0.203 NA
ATOM     18  C   UNL     1       3.861  -2.640  -1.903  0.00  0.00    +0.110 A 
ATOM     19  C   UNL     1       5.182  -2.230  -2.088  0.00  0.00    +0.031 A 
ATOM     20  C   UNL     1       6.159  -3.167  -2.343  0.00  0.00    +0.002 A 
ATOM     21  C   UNL     1       5.837  -4.514  -2.416  0.00  0.00    +0.004 A 
ATOM     22  C   UNL     1       4.535  -4.933  -2.235  0.00  0.00    +0.048 A 
ATOM     23  C   UNL     1       3.540  -4.004  -1.978  0.00  0.00    +0.156 A 
ATOM     24  O   UNL     1       2.208  -4.096  -1.756  0.00  0.00    -0.430 OA
ENDBRANCH  15  16
ENDBRANCH   1  15
TORSDOF 5
