REMARK  Name = ZINC13064551
REMARK  14 active torsions:
REMARK  status: ('A' for Active; 'I' for Inactive)
REMARK    1  A    between atoms: C_1  and  C_2
REMARK    2  A    between atoms: C_2  and  C_3
REMARK    3  A    between atoms: C_3  and  C_5
REMARK    4  A    between atoms: C_3  and  N_65
REMARK    5  A    between atoms: N_9  and  C_10
REMARK    6  A    between atoms: C_10  and  C_11
REMARK    7  A    between atoms: C_10  and  C_12
REMARK    8  A    between atoms: C_10  and  C_13
REMARK    9  A    between atoms: C_14  and  C_15
REMARK   10  A    between atoms: C_14  and  N_65
REMARK   11  A    between atoms: C_20  and  C_21
REMARK   12  A    between atoms: C_20  and  N_65
REMARK   13  A    between atoms: C_25  and  C_34
REMARK   14  A    between atoms: C_26  and  C_33
REMARK                            x       y       z     vdW  Elec       q    Type
REMARK                         _______ _______ _______ _____ _____    ______ ____
ROOT
ATOM      1  N   UNL     1      -6.429   4.619  -1.488  0.00  0.00    +0.392 N 
ATOM      2  H   UNL     1      -5.915   3.744  -1.647  0.00  0.00    -0.080 HD
ENDROOT
BRANCH   1   3
ATOM      3  C   UNL     1      -7.864   4.386  -1.753  0.00  0.00    +0.003 C 
BRANCH   3   4
ATOM      4  C   UNL     1      -8.149   4.616  -3.215  0.00  0.00    +0.139 A 
ATOM      5  N   UNL     1      -7.485   4.116  -4.229  0.00  0.00    -0.115 NA
ATOM      6  N   UNL     1      -8.035   4.543  -5.313  0.00  0.00    -0.023 NA
ATOM      7  N   UNL     1      -9.027   5.308  -5.017  0.00  0.00    -0.043 NA
ATOM      8  N   UNL     1      -9.129   5.379  -3.733  0.00  0.00    -0.226 N 
BRANCH   8   9
ATOM      9  C   UNL     1     -10.126   6.144  -2.980  0.00  0.00    +0.059 C 
ATOM     10  C   UNL     1      -9.426   7.247  -2.182  0.00  0.00    +0.036 C 
ATOM     11  C   UNL     1     -11.125   6.774  -3.952  0.00  0.00    +0.036 C 
ATOM     12  C   UNL     1     -10.866   5.212  -2.019  0.00  0.00    +0.036 C 
ENDBRANCH   8   9
ENDBRANCH   3   4
BRANCH   3  14
ATOM     13  C   UNL     1      -7.966   2.721   0.107  0.00  0.00    +0.002 C 
ATOM     14  C   UNL     1      -8.199   2.938  -1.389  0.00  0.00    -0.011 C 
ENDBRANCH   3  14
ENDBRANCH   1   3
BRANCH   1  15
ATOM     15  C   UNL     1      -5.908   5.655  -2.405  0.00  0.00    -0.034 C 
BRANCH  15  16
ATOM     16  C   UNL     1      -4.405   5.546  -2.451  0.00  0.00    -0.027 A 
ATOM     17  C   UNL     1      -3.625   4.872  -3.331  0.00  0.00    +0.009 A 
ATOM     18  C   UNL     1      -2.252   4.915  -3.179  0.00  0.00    +0.008 A 
ATOM     19  C   UNL     1      -1.726   5.629  -2.154  0.00  0.00    +0.045 A 
ATOM     20  S   UNL     1      -3.191   6.278  -1.367  0.00  0.00    -0.103 S 
ENDBRANCH  15  16
ENDBRANCH   1  15
BRANCH   1  21
ATOM     21  C   UNL     1      -6.236   5.041  -0.085  0.00  0.00    -0.036 C 
BRANCH  21  22
ATOM     22  C   UNL     1      -7.077   6.253   0.222  0.00  0.00    +0.001 A 
ATOM     23  C   UNL     1      -8.303   6.099   0.783  0.00  0.00    +0.017 A 
ATOM     24  C   UNL     1      -9.098   7.296   1.064  0.00  0.00    -0.001 A 
ATOM     25  C   UNL     1     -10.375   7.201   1.626  0.00  0.00    +0.013 A 
ATOM     26  C   UNL     1     -11.091   8.336   1.877  0.00  0.00    -0.047 A 
ATOM     27  C   UNL     1     -10.563   9.585   1.579  0.00  0.00    -0.046 A 
ATOM     28  C   UNL     1      -9.306   9.703   1.025  0.00  0.00    +0.030 A 
ATOM     29  C   UNL     1      -8.560   8.560   0.756  0.00  0.00    +0.049 A 
ATOM     30  N   UNL     1      -7.303   8.649   0.197  0.00  0.00    -0.322 N 
ATOM     31  H   UNL     1      -6.933   9.521  -0.011  0.00  0.00    +0.169 HD
ATOM     32  C   UNL     1      -6.583   7.544  -0.063  0.00  0.00    +0.251 A 
ATOM     33  O   UNL     1      -5.475   7.660  -0.557  0.00  0.00    -0.268 OA
ATOM     34  C   UNL     1     -11.371  10.824   1.864  0.00  0.00    +0.044 C 
ATOM     35  C   UNL     1     -12.468   8.233   2.482  0.00  0.00    +0.044 C 
ENDBRANCH  21  22
ENDBRANCH   1  21
TORSDOF 8
