REMARK  Name = ZINC08677088
REMARK  9 active torsions:
REMARK  status: ('A' for Active; 'I' for Inactive)
REMARK    1  A    between atoms: C_1  and  C_2
REMARK    2  A    between atoms: C_5  and  S_8
REMARK    3  A    between atoms: S_8  and  C_11
REMARK    4  A    between atoms: C_11  and  N_12
REMARK    5  A    between atoms: C_13  and  C_17
REMARK    6  A    between atoms: C_17  and  C_19
REMARK    7  A    between atoms: C_17  and  N_65
REMARK    8  A    between atoms: C_22  and  O_25
REMARK    9  A    between atoms: O_25  and  C_26
REMARK                            x       y       z     vdW  Elec       q    Type
REMARK                         _______ _______ _______ _____ _____    ______ ____
ROOT
ATOM      1  C   UNL     1       0.485   4.845  -0.715  0.00  0.00    +0.033 C 
ENDROOT
BRANCH   1  13
ATOM      2  C   UNL     1       1.633   3.704   1.086  0.00  0.00    -0.058 C 
ATOM      3  C   UNL     1       2.307   2.388   1.483  0.00  0.00    +0.089 C 
ATOM      4  N   UNL     1       1.323   1.299   1.423  0.00  0.00    -0.303 N 
ATOM      5  C   UNL     1       0.764   1.171   0.070  0.00  0.00    +0.089 C 
ATOM      6  C   UNL     1       0.090   2.487  -0.328  0.00  0.00    -0.058 C 
ATOM      7  C   UNL     1       1.879   0.104   1.845  0.00  0.00    +0.218 A 
ATOM      8  N   UNL     1       3.148   0.079   2.222  0.00  0.00    -0.223 NA
ATOM      9  C   UNL     1       3.709  -1.046   2.636  0.00  0.00    +0.116 A 
ATOM     10  C   UNL     1       2.954  -2.208   2.660  0.00  0.00    +0.039 A 
ATOM     11  C   UNL     1       1.631  -2.148   2.253  0.00  0.00    +0.116 A 
ATOM     12  N   UNL     1       1.130  -0.990   1.856  0.00  0.00    -0.223 NA
ATOM     13  N   UNL     1       1.096   3.569  -0.285  0.00  0.00    +0.391 N 
ATOM     14  H   UNL     1       1.865   3.335  -0.923  0.00  0.00    -0.080 HD
ENDBRANCH   1  13
BRANCH   1  15
ATOM     15  C   UNL     1      -0.004   4.699  -2.133  0.00  0.00    -0.053 A 
ATOM     16  C   UNL     1       0.715   3.937  -3.036  0.00  0.00    +0.006 A 
ATOM     17  C   UNL     1       0.267   3.797  -4.335  0.00  0.00    +0.046 A 
ATOM     18  C   UNL     1      -0.900   4.431  -4.737  0.00  0.00    +0.120 A 
ATOM     19  C   UNL     1      -1.617   5.199  -3.830  0.00  0.00    +0.046 A 
ATOM     20  C   UNL     1      -1.167   5.331  -2.531  0.00  0.00    +0.006 A 
BRANCH  18  21
ATOM     21  O   UNL     1      -1.341   4.300  -6.016  0.00  0.00    -0.495 OA
ATOM     22  C   UNL     1      -0.552   3.494  -6.894  0.00  0.00    +0.277 C 
ENDBRANCH  18  21
ENDBRANCH   1  15
BRANCH   1  24
ATOM     23  N   UNL     1      -0.819   6.339   0.888  0.00  0.00    -0.209 N 
ATOM     24  C   UNL     1      -0.673   5.204   0.180  0.00  0.00    +0.144 A 
ATOM     25  N   UNL     1      -1.735   4.474   0.417  0.00  0.00    -0.115 NA
ATOM     26  N   UNL     1      -2.491   5.123   1.234  0.00  0.00    -0.023 NA
ATOM     27  N   UNL     1      -1.942   6.252   1.518  0.00  0.00    -0.042 NA
BRANCH  23  28
ATOM     28  C   UNL     1       0.120   7.463   0.935  0.00  0.00    +0.318 C 
BRANCH  28  29
ATOM     29  S   UNL     1      -0.385   8.723  -0.268  0.00  0.00    +0.017 S 
ATOM     30  O   UNL     1      -0.179   8.248  -1.591  0.00  0.00    -0.168 OA
ATOM     31  O   UNL     1      -1.631   9.291   0.112  0.00  0.00    -0.168 OA
BRANCH  29  36
ATOM     32  C   UNL     1       3.612  13.194   0.400  0.00  0.00    +0.044 C 
ATOM     33  C   UNL     1       2.613  12.078   0.233  0.00  0.00    -0.050 A 
ATOM     34  C   UNL     1       2.860  11.059  -0.668  0.00  0.00    +0.005 A 
ATOM     35  C   UNL     1       1.944  10.035  -0.822  0.00  0.00    +0.027 A 
ATOM     36  C   UNL     1       0.782  10.029  -0.072  0.00  0.00    +0.090 A 
ATOM     37  C   UNL     1       0.534  11.050   0.826  0.00  0.00    +0.027 A 
ATOM     38  C   UNL     1       1.451  12.072   0.982  0.00  0.00    +0.005 A 
ENDBRANCH  29  36
ENDBRANCH  28  29
ENDBRANCH  23  28
ENDBRANCH   1  24
TORSDOF 7
