REMARK  Name = ZINC06442257
REMARK  9 active torsions:
REMARK  status: ('A' for Active; 'I' for Inactive)
REMARK    1  A    between atoms: C_1  and  C_2
REMARK    2  A    between atoms: C_6  and  N_8
REMARK    3  A    between atoms: N_8  and  C_9
REMARK    4  A    between atoms: C_9  and  C_11
REMARK    5  A    between atoms: C_9  and  C_17
REMARK    6  A    between atoms: N_19  and  C_20
REMARK    7  A    between atoms: C_25  and  C_27
REMARK    8  A    between atoms: C_27  and  N_28
REMARK    9  A    between atoms: C_30  and  C_33
REMARK                            x       y       z     vdW  Elec       q    Type
REMARK                         _______ _______ _______ _____ _____    ______ ____
ROOT
ATOM      1  N   UNL     1       1.202   1.782   0.463  0.00  0.00    -0.254 N 
ATOM      2  C   UNL     1       0.070   1.057   0.553  0.00  0.00    +0.244 C 
ATOM      3  O   UNL     1       0.053  -0.093   0.168  0.00  0.00    -0.273 OA
ENDROOT
BRANCH   1   9
ATOM      4  C   UNL     1      -0.231   6.388  -0.489  0.00  0.00    +0.044 C 
ATOM      5  C   UNL     1       0.508   5.391   0.367  0.00  0.00    -0.049 A 
ATOM      6  C   UNL     1       1.180   5.817   1.498  0.00  0.00    +0.003 A 
ATOM      7  C   UNL     1       1.859   4.907   2.287  0.00  0.00    +0.002 A 
ATOM      8  C   UNL     1       1.864   3.567   1.949  0.00  0.00    +0.023 A 
ATOM      9  C   UNL     1       1.195   3.137   0.810  0.00  0.00    +0.038 A 
ATOM     10  C   UNL     1       0.513   4.055   0.021  0.00  0.00    +0.027 A 
ENDBRANCH   1   9
BRANCH   1  11
ATOM     11  C   UNL     1       2.441   1.151   0.000  0.00  0.00    +0.197 C 
BRANCH  11  12
ATOM     12  C   UNL     1       3.582   2.127   0.135  0.00  0.00    -0.015 A 
ATOM     13  C   UNL     1       3.519   3.378  -0.459  0.00  0.00    +0.025 A 
ATOM     14  C   UNL     1       4.583   4.247  -0.311  0.00  0.00    +0.111 A 
ATOM     15  N   UNL     1       5.652   3.895   0.377  0.00  0.00    -0.263 NA
ATOM     16  C   UNL     1       5.748   2.712   0.951  0.00  0.00    +0.111 A 
ATOM     17  C   UNL     1       4.721   1.792   0.850  0.00  0.00    +0.025 A 
ENDBRANCH  11  12
BRANCH  11  18
ATOM     18  C   UNL     1       2.291   0.749  -1.444  0.00  0.00    +0.239 C 
ATOM     19  O   UNL     1       1.252   0.968  -2.030  0.00  0.00    -0.273 OA
ATOM     20  N   UNL     1       3.312   0.146  -2.085  0.00  0.00    -0.311 N 
ATOM     21  H   UNL     1       4.143  -0.029  -1.617  0.00  0.00    +0.149 HD
BRANCH  20  22
ATOM     22  C   UNL     1       3.166  -0.244  -3.490  0.00  0.00    +0.073 C 
ATOM     23  C   UNL     1       2.558  -1.659  -3.584  0.00  0.00    +0.022 C 
ATOM     24  C   UNL     1       3.285  -2.305  -4.789  0.00  0.00    +0.002 C 
ATOM     25  C   UNL     1       4.731  -1.768  -4.644  0.00  0.00    +0.002 C 
ATOM     26  C   UNL     1       4.548  -0.314  -4.164  0.00  0.00    +0.022 C 
ENDBRANCH  20  22
ENDBRANCH  11  18
ENDBRANCH   1  11
BRANCH   2  27
ATOM     27  C   UNL     1      -1.178   1.677   1.128  0.00  0.00    +0.264 C 
BRANCH  27  28
ATOM     28  N   UNL     1      -2.228   0.659   1.226  0.00  0.00    -0.154 N 
ATOM     29  N   UNL     1      -3.091   0.388   0.309  0.00  0.00    -0.130 NA
ATOM     30  C   UNL     1      -3.866  -0.579   0.758  0.00  0.00    +0.205 A 
ATOM     31  N   UNL     1      -3.436  -0.874   1.993  0.00  0.00    -0.108 NA
ATOM     32  N   UNL     1      -2.436  -0.099   2.245  0.00  0.00    -0.045 NA
BRANCH  30  33
ATOM     33  C   UNL     1      -4.998  -1.215   0.038  0.00  0.00    +0.023 A 
ATOM     34  C   UNL     1      -5.333  -0.794  -1.247  0.00  0.00    +0.014 A 
ATOM     35  C   UNL     1      -6.383  -1.391  -1.915  0.00  0.00    +0.039 A 
ATOM     36  C   UNL     1      -7.111  -2.399  -1.304  0.00  0.00    +0.123 A 
ATOM     37  C   UNL     1      -6.785  -2.816  -0.024  0.00  0.00    +0.039 A 
ATOM     38  C   UNL     1      -5.733  -2.229   0.649  0.00  0.00    +0.014 A 
ATOM     39  F   UNL     1      -8.142  -2.977  -1.959  0.00  0.00    -0.205 F 
ENDBRANCH  30  33
ENDBRANCH  27  28
ENDBRANCH   2  27
TORSDOF 8
