REMARK  Name = ZINC35992806
REMARK  11 active torsions:
REMARK  status: ('A' for Active; 'I' for Inactive)
REMARK    1  A    between atoms: C_1  and  C_2
REMARK    2  A    between atoms: C_2  and  N_3
REMARK    3  A    between atoms: C_4  and  C_23
REMARK    4  A    between atoms: C_5  and  C_18
REMARK    5  A    between atoms: C_6  and  C_11
REMARK    6  A    between atoms: C_18  and  O_20
REMARK    7  A    between atoms: O_20  and  C_21
REMARK    8  A    between atoms: C_21  and  C_22
REMARK    9  A    between atoms: C_23  and  N_24
REMARK   10  A    between atoms: C_28  and  C_31
REMARK   11  A    between atoms: C_32  and  C_34
REMARK                            x       y       z     vdW  Elec       q    Type
REMARK                         _______ _______ _______ _____ _____    ______ ____
ROOT
ATOM      1  N   UNL     1       0.349   0.610  -1.695  0.00  0.00    -0.258 N 
ATOM      2  C   UNL     1      -0.319   0.570  -2.886  0.00  0.00    +0.041 C 
ATOM      3  C   UNL     1       0.344   0.419  -4.053  0.00  0.00    +0.080 C 
ATOM      4  C   UNL     1       1.854   0.298  -3.995  0.00  0.00    +0.144 C 
ATOM      5  N   UNL     1       2.477   0.354  -2.662  0.00  0.00    -0.288 N 
ATOM      6  C   UNL     1       1.680   0.513  -1.587  0.00  0.00    +0.307 C 
ATOM      7  O   UNL     1       2.185   0.564  -0.483  0.00  0.00    -0.252 OA
ATOM      8  H   UNL     1       3.439   0.282  -2.560  0.00  0.00    +0.151 HD
ENDROOT
BRANCH   4   9
ATOM      9  C   UNL     1       2.239  -1.012  -4.632  0.00  0.00    -0.022 A 
ATOM     10  C   UNL     1       2.127  -2.188  -3.915  0.00  0.00    +0.008 A 
ATOM     11  C   UNL     1       2.480  -3.390  -4.499  0.00  0.00    +0.038 A 
ATOM     12  C   UNL     1       2.946  -3.416  -5.803  0.00  0.00    +0.123 A 
ATOM     13  C   UNL     1       3.058  -2.237  -6.520  0.00  0.00    +0.038 A 
ATOM     14  C   UNL     1       2.699  -1.037  -5.936  0.00  0.00    +0.008 A 
ATOM     15  F   UNL     1       3.291  -4.590  -6.374  0.00  0.00    -0.205 F 
ENDBRANCH   4   9
BRANCH   1  17
ATOM     16  C   UNL     1      -0.593   2.265  -0.161  0.00  0.00    +0.025 C 
ATOM     17  C   UNL     1      -0.434   0.775  -0.469  0.00  0.00    +0.111 C 
ENDBRANCH   1  17
BRANCH   3  18
ATOM     18  C   UNL     1      -0.346   0.376  -5.286  0.00  0.00    +0.339 C 
ATOM     19  O   UNL     1      -0.607  -0.695  -5.801  0.00  0.00    -0.245 OA
BRANCH  18  20
ATOM     20  O   UNL     1      -0.716   1.524  -5.893  0.00  0.00    -0.462 OA
BRANCH  20  21
ATOM     21  C   UNL     1      -1.410   1.405  -7.136  0.00  0.00    +0.229 C 
ATOM     22  C   UNL     1      -1.744   2.800  -7.668  0.00  0.00    +0.048 C 
ENDBRANCH  20  21
ENDBRANCH  18  20
ENDBRANCH   3  18
BRANCH   2  23
ATOM     23  C   UNL     1      -1.821   0.694  -2.898  0.00  0.00    +0.136 C 
BRANCH  23  24
ATOM     24  N   UNL     1      -2.415  -0.489  -2.261  0.00  0.00    -0.294 NA
ATOM     25  C   UNL     1      -2.151  -1.700  -3.049  0.00  0.00    +0.104 C 
ATOM     26  C   UNL     1      -2.626  -2.929  -2.266  0.00  0.00    +0.124 C 
ATOM     27  N   UNL     1      -4.033  -2.727  -1.888  0.00  0.00    -0.292 N 
ATOM     28  C   UNL     1      -4.400  -1.471  -1.215  0.00  0.00    +0.087 C 
ATOM     29  C   UNL     1      -3.855  -0.300  -2.040  0.00  0.00    +0.107 C 
ATOM     30  C   UNL     1      -5.923  -1.368  -1.113  0.00  0.00    +0.029 C 
ATOM     31  C   UNL     1      -4.962  -3.667  -2.151  0.00  0.00    +0.254 C 
ATOM     32  O   UNL     1      -6.137  -3.440  -1.931  0.00  0.00    -0.269 OA
BRANCH  31  33
ATOM     33  C   UNL     1      -4.557  -4.963  -2.702  0.00  0.00    +0.074 A 
ATOM     34  C   UNL     1      -5.336  -5.940  -3.303  0.00  0.00    +0.021 A 
ATOM     35  C   UNL     1      -4.666  -7.063  -3.725  0.00  0.00    +0.008 A 
ATOM     36  C   UNL     1      -3.326  -7.142  -3.533  0.00  0.00    +0.046 A 
ATOM     37  S   UNL     1      -2.932  -5.692  -2.781  0.00  0.00    -0.092 S 
ENDBRANCH  31  33
ENDBRANCH  23  24
ENDBRANCH   2  23
TORSDOF 8
