REMARK  Name = ZINC51810109
REMARK  7 active torsions:
REMARK  status: ('A' for Active; 'I' for Inactive)
REMARK    1  A    between atoms: C_1  and  N_2
REMARK    2  A    between atoms: N_2  and  C_3
REMARK    3  A    between atoms: C_3  and  C_4
REMARK    4  A    between atoms: C_3  and  C_7
REMARK    5  A    between atoms: C_10  and  C_12
REMARK    6  A    between atoms: N_14  and  C_15
REMARK    7  A    between atoms: C_18  and  C_21
REMARK                            x       y       z     vdW  Elec       q    Type
REMARK                         _______ _______ _______ _____ _____    ______ ____
ROOT
ATOM      1  C   UNL     1       0.069   0.163  -2.523  0.00  0.00    +0.303 C 
ATOM      2  O   UNL     1       0.236   1.365  -2.496  0.00  0.00    -0.265 OA
ATOM      3  N   UNL     1      -0.096  -0.469  -3.702  0.00  0.00    -0.278 N 
ATOM      4  H   UNL     1      -0.307  -1.415  -3.720  0.00  0.00    +0.155 HD
ENDROOT
BRANCH   3   5
ATOM      5  C   UNL     1       0.036   0.240  -4.899  0.00  0.00    +0.034 A 
ATOM      6  C   UNL     1       0.954   1.280  -4.991  0.00  0.00    +0.024 A 
ATOM      7  C   UNL     1       1.087   1.981  -6.171  0.00  0.00    +0.012 A 
ATOM      8  C   UNL     1       0.300   1.646  -7.271  0.00  0.00    +0.003 A 
ATOM      9  C   UNL     1      -0.620   0.603  -7.177  0.00  0.00    +0.012 A 
ATOM     10  C   UNL     1      -0.745  -0.099  -5.997  0.00  0.00    +0.024 A 
BRANCH   8  11
ATOM     11  C   UNL     1       0.440   2.400  -8.542  0.00  0.00    +0.102 A 
ATOM     12  C   UNL     1      -0.308   2.121  -9.654  0.00  0.00    +0.097 A 
ATOM     13  S   UNL     1       0.261   3.256 -10.752  0.00  0.00    +0.029 S 
ATOM     14  N   UNL     1       1.359   4.000  -9.826  0.00  0.00    -0.110 NA
ATOM     15  N   UNL     1       1.295   3.400  -8.689  0.00  0.00    -0.141 NA
ENDBRANCH   8  11
ENDBRANCH   3   5
BRANCH   1  18
ATOM     16  C   UNL     1       0.036   1.489  -0.024  0.00  0.00    +0.133 C 
ATOM     17  N   UNL     1       0.086   0.026  -0.065  0.00  0.00    -0.293 N 
ATOM     18  C   UNL     1       0.047  -0.617  -1.250  0.00  0.00    +0.302 C 
ATOM     19  O   UNL     1      -0.006  -1.829  -1.281  0.00  0.00    -0.265 OA
BRANCH  17  20
ATOM     20  C   UNL     1       0.179  -0.739   1.181  0.00  0.00    +0.082 C 
BRANCH  20  21
ATOM     21  C   UNL     1       1.393  -0.265   1.981  0.00  0.00    +0.010 C 
ATOM     22  C   UNL     1       2.525  -1.269   2.208  0.00  0.00    +0.006 C 
ATOM     23  C   UNL     1       1.608  -0.876   3.368  0.00  0.00    +0.006 C 
ENDBRANCH  20  21
BRANCH  20  24
ATOM     24  C   UNL     1      -1.092  -0.525   2.006  0.00  0.00    +0.010 C 
ATOM     25  C   UNL     1      -1.824  -1.770   2.512  0.00  0.00    +0.006 C 
ATOM     26  C   UNL     1      -2.422  -0.939   1.375  0.00  0.00    +0.006 C 
ENDBRANCH  20  24
ENDBRANCH  17  20
ENDBRANCH   1  18
TORSDOF 6
