REMARK  Name = ZINC10992298
REMARK  7 active torsions:
REMARK  status: ('A' for Active; 'I' for Inactive)
REMARK    1  A    between atoms: C_3  and  O_28
REMARK    2  A    between atoms: C_6  and  N_7
REMARK    3  A    between atoms: C_8  and  C_22
REMARK    4  A    between atoms: C_11  and  S_12
REMARK    5  A    between atoms: S_12  and  C_13
REMARK    6  A    between atoms: C_22  and  N_58
REMARK    7  A    between atoms: O_28  and  C_29
REMARK                            x       y       z     vdW  Elec       q    Type
REMARK                         _______ _______ _______ _____ _____    ______ ____
ROOT
ATOM      1  N   UNL     1       1.315  -0.386  -0.013  0.00  0.00    -0.276 N 
ATOM      2  C   UNL     1       2.038   0.777  -0.013  0.00  0.00    +0.122 A 
ATOM      3  N   UNL     1       1.187   1.763   0.000  0.00  0.00    -0.135 NA
ATOM      4  N   UNL     1      -0.016   1.309   0.009  0.00  0.00    -0.122 NA
ATOM      5  C   UNL     1       0.002  -0.004   0.002  0.00  0.00    +0.197 A 
ENDROOT
BRANCH   1  11
ATOM      6  C   UNL     1       2.554  -2.168   1.053  0.00  0.00    +0.030 A 
ATOM      7  C   UNL     1       3.044  -3.459   1.043  0.00  0.00    +0.048 A 
ATOM      8  C   UNL     1       2.808  -4.282  -0.048  0.00  0.00    +0.127 A 
ATOM      9  C   UNL     1       2.075  -3.810  -1.128  0.00  0.00    +0.048 A 
ATOM     10  C   UNL     1       1.581  -2.521  -1.116  0.00  0.00    +0.030 A 
ATOM     11  C   UNL     1       1.817  -1.697  -0.024  0.00  0.00    +0.050 A 
BRANCH   8  12
ATOM     12  O   UNL     1       3.294  -5.552  -0.060  0.00  0.00    -0.434 OA
BRANCH  12  13
ATOM     13  C   UNL     1       4.039  -5.971   1.085  0.00  0.00    +0.541 C 
ATOM     14  F   UNL     1       5.155  -5.143   1.244  0.00  0.00    -0.166 F 
ATOM     15  F   UNL     1       3.231  -5.889   2.224  0.00  0.00    -0.166 F 
ENDBRANCH  12  13
ENDBRANCH   8  12
ENDBRANCH   1  11
BRANCH   5  16
ATOM     16  S   UNL     1      -1.400  -1.071   0.010  0.00  0.00    -0.073 S 
BRANCH  16  17
ATOM     17  C   UNL     1      -2.729   0.157   0.029  0.00  0.00    +0.140 C 
ATOM     18  C   UNL     1      -4.084  -0.550  -0.062  0.00  0.00    +0.024 C 
ATOM     19  C   UNL     1      -5.136   0.376  -0.642  0.00  0.00    +0.003 C 
ATOM     20  C   UNL     1      -5.479   1.552   0.254  0.00  0.00    +0.019 C 
ATOM     21  C   UNL     1      -4.289   2.506   0.380  0.00  0.00    +0.104 C 
ATOM     22  N   UNL     1      -3.423   2.037   1.474  0.00  0.00    -0.314 N 
ATOM     23  C   UNL     1      -2.682   0.938   1.325  0.00  0.00    +0.226 C 
ATOM     24  O   UNL     1      -1.968   0.564   2.231  0.00  0.00    -0.275 OA
ATOM     25  H   UNL     1      -3.391   2.530   2.309  0.00  0.00    +0.149 HD
ENDBRANCH  16  17
ENDBRANCH   5  16
BRANCH   2  26
ATOM     26  C   UNL     1       3.541   0.894  -0.027  0.00  0.00    -0.001 C 
BRANCH  26  32
ATOM     27  C   UNL     1       3.752  -0.330  -2.105  0.00  0.00    -0.078 C 
ATOM     28  C   UNL     1       4.125  -0.198  -3.583  0.00  0.00    -0.019 C 
ATOM     29  C   UNL     1       5.607   0.171  -3.700  0.00  0.00    -0.004 C 
ATOM     30  C   UNL     1       5.863   1.472  -2.935  0.00  0.00    -0.019 C 
ATOM     31  C   UNL     1       5.440   1.291  -1.475  0.00  0.00    -0.078 C 
ATOM     32  N   UNL     1       3.999   0.962  -1.430  0.00  0.00    +0.384 N 
ATOM     33  H   UNL     1       3.475   1.698  -1.917  0.00  0.00    -0.081 HD
ENDBRANCH  26  32
ENDBRANCH   2  26
TORSDOF 7
