REMARK  Name = ZINC38762364
REMARK  4 active torsions:
REMARK  status: ('A' for Active; 'I' for Inactive)
REMARK    1  A    between atoms: C_6  and  N_7
REMARK    2  A    between atoms: C_8  and  C_10
REMARK    3  A    between atoms: C_10  and  C_11
REMARK    4  A    between atoms: C_11  and  C_12
REMARK                            x       y       z     vdW  Elec       q    Type
REMARK                         _______ _______ _______ _____ _____    ______ ____
ROOT
ATOM      1  N   UNL     1      -1.201  -0.721   0.010  0.00  0.00    -0.285 N 
ATOM      2  C   UNL     1      -2.374  -0.068   0.126  0.00  0.00    +0.218 C 
ATOM      3  O   UNL     1      -2.395   1.145   0.133  0.00  0.00    -0.275 OA
ATOM      4  H   UNL     1      -1.191  -1.688  -0.073  0.00  0.00    +0.155 HD
ENDROOT
BRANCH   1  10
ATOM      5  C   UNL     1       0.122   1.154   0.763  0.00  0.00    +0.027 A 
ATOM      6  C   UNL     1       1.309   1.862   0.762  0.00  0.00    +0.051 A 
ATOM      7  C   UNL     1       2.382   1.418   0.008  0.00  0.00    +0.167 A 
ATOM      8  C   UNL     1       2.265   0.255  -0.751  0.00  0.00    +0.169 A 
ATOM      9  C   UNL     1       1.077  -0.453  -0.749  0.00  0.00    +0.072 A 
ATOM     10  C   UNL     1       0.002  -0.004   0.008  0.00  0.00    +0.037 A 
ATOM     11  O   UNL     1       3.449   0.033  -1.396  0.00  0.00    -0.447 OA
ATOM     12  C   UNL     1       4.158   1.279  -1.332  0.00  0.00    +0.254 C 
ATOM     13  O   UNL     1       3.641   1.925  -0.160  0.00  0.00    -0.448 OA
ATOM     14  C   UNL     1       3.871   2.119  -2.572  0.00  0.00    +0.093 C 
ATOM     15  C   UNL     1       4.401   1.396  -3.813  0.00  0.00    +0.008 C 
ATOM     16  C   UNL     1       5.907   1.169  -3.667  0.00  0.00    +0.000 C 
ATOM     17  C   UNL     1       6.178   0.310  -2.430  0.00  0.00    +0.008 C 
ATOM     18  C   UNL     1       5.655   1.030  -1.185  0.00  0.00    +0.093 C 
ENDBRANCH   1  10
BRANCH   2  19
ATOM     19  C   UNL     1      -3.660  -0.844   0.248  0.00  0.00    +0.103 C 
BRANCH  19  20
ATOM     20  C   UNL     1      -4.835   0.130   0.366  0.00  0.00    +0.083 C 
BRANCH  20  21
ATOM     21  C   UNL     1      -6.121  -0.646   0.488  0.00  0.00    +0.124 C 
ATOM     22  N   UNL     1      -6.059  -1.956   0.482  0.00  0.00    -0.161 NA
ATOM     23  C   UNL     1      -7.143  -2.733   0.582  0.00  0.00    +0.271 C 
ATOM     24  O   UNL     1      -7.049  -3.948   0.578  0.00  0.00    -0.268 OA
ATOM     25  C   UNL     1      -8.477  -2.061   0.699  0.00  0.00    +0.071 C 
ATOM     26  C   UNL     1      -9.692  -2.637   0.746  0.00  0.00    -0.042 C 
ATOM     27  C   UNL     1      -9.938  -4.126   0.515  0.00  0.00    +0.033 C 
ATOM     28  C   UNL     1     -10.974  -4.233  -0.612  0.00  0.00    +0.004 C 
ATOM     29  C   UNL     1     -12.205  -3.392  -0.280  0.00  0.00    +0.002 C 
ATOM     30  C   UNL     1     -11.842  -1.907  -0.192  0.00  0.00    +0.019 C 
ATOM     31  C   UNL     1     -10.877  -1.708   0.980  0.00  0.00    +0.079 C 
ATOM     32  S   UNL     1     -10.093  -0.055   0.874  0.00  0.00    -0.097 S 
ATOM     33  C   UNL     1      -8.408  -0.585   0.703  0.00  0.00    +0.111 C 
ATOM     34  N   UNL     1      -7.253   0.030   0.601  0.00  0.00    -0.227 NA
ENDBRANCH  20  21
ENDBRANCH  19  20
ENDBRANCH   2  19
TORSDOF 4
