REMARK  Name = ZINC15049779
REMARK  5 active torsions:
REMARK  status: ('A' for Active; 'I' for Inactive)
REMARK    1  A    between atoms: C_14  and  C_15
REMARK    2  A    between atoms: N_19  and  C_23
REMARK    3  A    between atoms: C_23  and  C_24
REMARK    4  A    between atoms: N_26  and  C_27
REMARK    5  A    between atoms: C_30  and  O_33
REMARK                            x       y       z     vdW  Elec       q    Type
REMARK                         _______ _______ _______ _____ _____    ______ ____
ROOT
ATOM      1  C   UNL     1      -1.422   5.961   0.035  0.00  0.00    +0.029 C 
ATOM      2  C   UNL     1      -1.648   6.944   0.953  0.00  0.00    +0.080 C 
ATOM      3  C   UNL     1      -2.844   7.780   1.160  0.00  0.00    +0.261 C 
ATOM      4  O   UNL     1      -3.835   7.659   0.464  0.00  0.00    -0.269 OA
ATOM      5  N   UNL     1      -2.787   8.667   2.139  0.00  0.00    -0.219 N 
ATOM      6  C   UNL     1      -1.686   8.797   2.908  0.00  0.00    +0.286 C 
ATOM      7  O   UNL     1      -1.497   9.564   3.833  0.00  0.00    -0.262 OA
ATOM      8  S   UNL     1      -0.577   7.566   2.243  0.00  0.00    -0.026 S 
ENDROOT
BRANCH   1  22
ATOM      9  C   UNL     1      -0.028   1.084  -0.033  0.00  0.00    +0.001 A 
ATOM     10  C   UNL     1      -1.251   1.750  -0.022  0.00  0.00    +0.001 A 
ATOM     11  C   UNL     1      -1.324   3.109   0.000  0.00  0.00    +0.009 A 
ATOM     12  C   UNL     1      -0.142   3.867   0.001  0.00  0.00    -0.010 A 
ATOM     13  C   UNL     1       1.145   3.170  -0.017  0.00  0.00    -0.017 A 
ATOM     14  C   UNL     1       1.152   1.759  -0.034  0.00  0.00    +0.008 A 
ATOM     15  C   UNL     1       2.339   3.894  -0.017  0.00  0.00    +0.017 A 
ATOM     16  C   UNL     1       2.310   5.290   0.001  0.00  0.00    -0.017 A 
ATOM     17  C   UNL     1       3.505   6.041   0.002  0.00  0.00    +0.008 A 
ATOM     18  C   UNL     1       3.443   7.399   0.019  0.00  0.00    +0.001 A 
ATOM     19  C   UNL     1       2.225   8.074   0.036  0.00  0.00    +0.001 A 
ATOM     20  C   UNL     1       1.039   7.407   0.036  0.00  0.00    +0.009 A 
ATOM     21  C   UNL     1       1.032   6.003   0.019  0.00  0.00    -0.010 A 
ATOM     22  C   UNL     1      -0.182   5.280   0.018  0.00  0.00    -0.008 A 
ENDBRANCH   1  22
BRANCH   5  23
ATOM     23  C   UNL     1      -3.945   9.527   2.394  0.00  0.00    +0.213 C 
BRANCH  23  24
ATOM     24  C   UNL     1      -4.859   8.857   3.387  0.00  0.00    +0.235 C 
ATOM     25  O   UNL     1      -4.572   7.768   3.837  0.00  0.00    -0.274 OA
ATOM     26  N   UNL     1      -5.996   9.468   3.774  0.00  0.00    -0.284 N 
ATOM     27  H   UNL     1      -6.193  10.367   3.467  0.00  0.00    +0.155 HD
BRANCH  26  28
ATOM     28  C   UNL     1      -6.894   8.805   4.622  0.00  0.00    +0.034 A 
ATOM     29  C   UNL     1      -8.261   9.005   4.478  0.00  0.00    +0.027 A 
ATOM     30  C   UNL     1      -9.145   8.346   5.310  0.00  0.00    +0.047 A 
ATOM     31  C   UNL     1      -8.668   7.495   6.295  0.00  0.00    +0.117 A 
ATOM     32  C   UNL     1      -7.303   7.299   6.443  0.00  0.00    +0.047 A 
ATOM     33  C   UNL     1      -6.417   7.953   5.608  0.00  0.00    +0.027 A 
BRANCH  31  34
ATOM     34  O   UNL     1      -9.539   6.852   7.118  0.00  0.00    -0.507 OA
ATOM     35  H   UNL     1      -9.756   7.342   7.923  0.00  0.00    +0.292 HD
ENDBRANCH  31  34
ENDBRANCH  26  28
ENDBRANCH  23  24
ENDBRANCH   5  23
TORSDOF 5
