REMARK  Name = ZINC13567645
REMARK  8 active torsions:
REMARK  status: ('A' for Active; 'I' for Inactive)
REMARK    1  A    between atoms: C_1  and  C_2
REMARK    2  A    between atoms: C_7  and  N_8
REMARK    3  A    between atoms: C_14  and  C_16
REMARK    4  A    between atoms: C_14  and  C_17
REMARK    5  A    between atoms: N_25  and  C_28
REMARK    6  A    between atoms: C_28  and  C_29
REMARK    7  A    between atoms: C_31  and  C_34
REMARK    8  A    between atoms: C_32  and  N_33
REMARK                            x       y       z     vdW  Elec       q    Type
REMARK                         _______ _______ _______ _____ _____    ______ ____
ROOT
ATOM      1  N   UNL     1      -2.941  -1.482   0.053  0.00  0.00    -0.260 N 
ATOM      2  C   UNL     1      -3.047  -0.810   1.242  0.00  0.00    +0.026 C 
ATOM      3  C   UNL     1      -2.910   0.533   1.287  0.00  0.00    +0.037 C 
ATOM      4  C   UNL     1      -3.034   1.234   2.499  0.00  0.00    +0.163 C 
ATOM      5  O   UNL     1      -2.901   2.442   2.506  0.00  0.00    -0.292 OA
ATOM      6  C   UNL     1      -3.328   0.517   3.788  0.00  0.00    +0.086 C 
ATOM      7  C   UNL     1      -4.121  -0.758   3.481  0.00  0.00    -0.023 C 
ATOM      8  C   UNL     1      -3.314  -1.606   2.495  0.00  0.00    +0.058 C 
ATOM      9  C   UNL     1      -5.468  -0.387   2.857  0.00  0.00    +0.011 C 
ATOM     10  C   UNL     1      -4.352  -1.548   4.770  0.00  0.00    +0.011 C 
ATOM     11  C   UNL     1      -2.623   1.321   0.035  0.00  0.00    +0.141 C 
ATOM     12  C   UNL     1      -1.197   1.780   0.017  0.00  0.00    -0.001 A 
ATOM     13  C   UNL     1      -0.013   1.076   0.008  0.00  0.00    +0.007 A 
ATOM     14  C   UNL     1       1.163   1.819   0.001  0.00  0.00    +0.000 A 
ATOM     15  C   UNL     1       1.140   3.199   0.008  0.00  0.00    +0.002 A 
ATOM     16  C   UNL     1      -0.047   3.914   0.023  0.00  0.00    +0.024 A 
ATOM     17  C   UNL     1      -1.234   3.179   0.030  0.00  0.00    +0.042 A 
ATOM     18  N   UNL     1      -2.544   3.626   0.044  0.00  0.00    -0.258 N 
ATOM     19  C   UNL     1      -3.426   2.606   0.049  0.00  0.00    +0.241 C 
ATOM     20  O   UNL     1      -4.636   2.699   0.060  0.00  0.00    -0.273 OA
ATOM     21  C   UNL     1      -2.941   0.531  -1.198  0.00  0.00    +0.089 C 
ATOM     22  C   UNL     1      -3.083  -0.820  -1.145  0.00  0.00    +0.108 C 
ENDROOT
BRANCH   1  29
ATOM     23  C   UNL     1      -5.161  -3.262   0.097  0.00  0.00    +0.045 C 
ATOM     24  C   UNL     1      -3.739  -3.762   0.078  0.00  0.00    -0.029 A 
ATOM     25  C   UNL     1      -3.484  -5.119   0.081  0.00  0.00    +0.005 A 
ATOM     26  C   UNL     1      -2.180  -5.578   0.065  0.00  0.00    +0.000 A 
ATOM     27  C   UNL     1      -1.127  -4.681   0.044  0.00  0.00    +0.002 A 
ATOM     28  C   UNL     1      -1.376  -3.323   0.034  0.00  0.00    +0.024 A 
ATOM     29  C   UNL     1      -2.685  -2.858   0.057  0.00  0.00    +0.043 A 
ENDBRANCH   1  29
BRANCH  22  30
ATOM     30  N   UNL     1      -3.369  -1.525  -2.289  0.00  0.00    -0.345 N 
ATOM     31  H   UNL     1      -3.470  -1.059  -3.134  0.00  0.00    +0.144 HD
ATOM     32  H   UNL     1      -3.471  -2.489  -2.252  0.00  0.00    +0.144 HD
ENDBRANCH  22  30
BRANCH  21  33
ATOM     33  C   UNL     1      -3.098   1.209  -2.450  0.00  0.00    +0.100 C 
ATOM     34  N   UNL     1      -3.223   1.746  -3.443  0.00  0.00    -0.191 NA
ENDBRANCH  21  33
BRANCH  18  35
ATOM     35  C   UNL     1      -2.927   5.040   0.053  0.00  0.00    +0.202 C 
BRANCH  35  36
ATOM     36  C   UNL     1      -3.068   5.519  -1.331  0.00  0.00    -0.086 C 
ATOM     37  C   UNL     1      -3.181   5.901  -2.436  0.00  0.00    +0.005 C 
ENDBRANCH  35  36
ENDBRANCH  18  35
TORSDOF 5
