REMARK  Name = ZINC38546598
REMARK  7 active torsions:
REMARK  status: ('A' for Active; 'I' for Inactive)
REMARK    1  A    between atoms: C_1  and  C_2
REMARK    2  A    between atoms: C_2  and  N_3
REMARK    3  A    between atoms: N_6  and  C_9
REMARK    4  A    between atoms: C_9  and  C_11
REMARK    5  A    between atoms: C_9  and  C_20
REMARK    6  A    between atoms: C_24  and  N_25
REMARK    7  A    between atoms: C_26  and  C_28
REMARK                            x       y       z     vdW  Elec       q    Type
REMARK                         _______ _______ _______ _____ _____    ______ ____
ROOT
ATOM      1  C   UNL     1       1.560  -2.562   4.840  0.00  0.00    +0.120 C 
ENDROOT
BRANCH   1   2
ATOM      2  C   UNL     1       0.741  -2.258   6.068  0.00  0.00    -0.022 A 
ATOM      3  C   UNL     1      -0.639  -2.246   5.992  0.00  0.00    +0.009 A 
ATOM      4  C   UNL     1      -1.394  -1.969   7.116  0.00  0.00    +0.050 A 
ATOM      5  C   UNL     1      -0.768  -1.701   8.323  0.00  0.00    +0.166 A 
ATOM      6  C   UNL     1       0.623  -1.712   8.400  0.00  0.00    +0.167 A 
ATOM      7  C   UNL     1       1.373  -1.997   7.270  0.00  0.00    +0.055 A 
ATOM      8  O   UNL     1       0.991  -1.422   9.681  0.00  0.00    -0.453 OA
ATOM      9  C   UNL     1      -0.172  -0.832  10.291  0.00  0.00    +0.466 C 
ATOM     10  O   UNL     1      -1.270  -1.403   9.557  0.00  0.00    -0.453 OA
ENDBRANCH   1   2
BRANCH   1  11
ATOM     11  C   UNL     1       1.694  -4.054   4.682  0.00  0.00    +0.006 A 
ATOM     12  C   UNL     1       2.879  -4.693   5.048  0.00  0.00    -0.030 A 
ATOM     13  C   UNL     1       2.923  -6.041   4.875  0.00  0.00    -0.005 A 
ATOM     14  S   UNL     1       1.329  -6.438   4.208  0.00  0.00    -0.078 S 
ATOM     15  C   UNL     1       0.657  -4.783   4.188  0.00  0.00    +0.078 A 
ATOM     16  C   UNL     1       4.060  -6.962   5.181  0.00  0.00    +0.043 C 
ATOM     17  C   UNL     1       5.326  -6.115   5.384  0.00  0.00    +0.005 C 
ATOM     18  C   UNL     1       4.994  -4.954   6.325  0.00  0.00    +0.005 C 
ATOM     19  C   UNL     1       4.085  -3.949   5.616  0.00  0.00    +0.036 C 
BRANCH  15  20
ATOM     20  N   UNL     1      -0.603  -4.350   3.771  0.00  0.00    -0.273 N 
ATOM     21  C   UNL     1      -1.544  -5.250   3.423  0.00  0.00    +0.284 C 
ATOM     22  O   UNL     1      -1.295  -6.441   3.473  0.00  0.00    -0.266 OA
ATOM     23  H   UNL     1      -0.801  -3.401   3.731  0.00  0.00    +0.156 HD
BRANCH  21  24
ATOM     24  C   UNL     1      -2.867  -4.795   2.985  0.00  0.00    +0.189 A 
ATOM     25  C   UNL     1      -3.909  -5.597   2.613  0.00  0.00    +0.054 A 
ATOM     26  C   UNL     1      -4.972  -4.745   2.273  0.00  0.00    +0.042 A 
ATOM     27  C   UNL     1      -4.539  -3.478   2.452  0.00  0.00    +0.196 A 
ATOM     28  O   UNL     1      -3.272  -3.512   2.885  0.00  0.00    -0.458 OA
ENDBRANCH  21  24
ENDBRANCH  15  20
ENDBRANCH   1  11
BRANCH   1  32
ATOM     29  N   UNL     1       0.742  -0.345   1.335  0.00  0.00    +0.381 N 
ATOM     30  C   UNL     1      -0.005  -0.009   2.554  0.00  0.00    -0.063 C 
ATOM     31  C   UNL     1       0.745  -0.544   3.776  0.00  0.00    +0.067 C 
ATOM     32  N   UNL     1       0.893  -2.002   3.656  0.00  0.00    -0.295 NA
ATOM     33  C   UNL     1       1.618  -2.354   2.427  0.00  0.00    +0.067 C 
ATOM     34  C   UNL     1       0.860  -1.804   1.217  0.00  0.00    -0.063 C 
ATOM     35  H   UNL     1       1.663   0.064   1.382  0.00  0.00    -0.082 HD
BRANCH  29  37
ATOM     36  C   UNL     1       0.016   1.713   0.224  0.00  0.00    -0.017 C 
ATOM     37  C   UNL     1       0.031   0.185   0.163  0.00  0.00    -0.082 C 
ENDBRANCH  29  37
ENDBRANCH   1  32
TORSDOF 6
