REMARK  Name = ZINC49795338
REMARK  9 active torsions:
REMARK  status: ('A' for Active; 'I' for Inactive)
REMARK    1  A    between atoms: C_1  and  N_2
REMARK    2  A    between atoms: N_2  and  C_3
REMARK    3  A    between atoms: N_2  and  C_4
REMARK    4  A    between atoms: C_4  and  C_6
REMARK    5  A    between atoms: C_4  and  C_13
REMARK    6  A    between atoms: C_6  and  C_7
REMARK    7  A    between atoms: C_13  and  N_14
REMARK    8  A    between atoms: N_17  and  N_18
REMARK    9  A    between atoms: C_19  and  C_21
REMARK                            x       y       z     vdW  Elec       q    Type
REMARK                         _______ _______ _______ _____ _____    ______ ____
ROOT
ATOM      1  N   UNL     1       0.520   1.774   1.200  0.00  0.00    -0.300 N 
ATOM      2  C   UNL     1       0.282   2.774   2.072  0.00  0.00    +0.316 C 
ATOM      3  O   UNL     1       0.218   2.539   3.263  0.00  0.00    -0.251 OA
ATOM      4  N   UNL     1       0.115   4.034   1.623  0.00  0.00    -0.218 N 
ATOM      5  H   UNL     1       0.572   1.962   0.249  0.00  0.00    +0.150 HD
ATOM      6  H   UNL     1      -0.056   4.753   2.251  0.00  0.00    +0.174 HD
ENDROOT
BRANCH   4   7
ATOM      7  N   UNL     1       0.189   4.304   0.251  0.00  0.00    -0.228 N 
ATOM      8  C   UNL     1       0.022   5.564  -0.197  0.00  0.00    +0.279 C 
ATOM      9  O   UNL     1      -0.192   6.466   0.589  0.00  0.00    -0.267 OA
ATOM     10  H   UNL     1       0.361   3.585  -0.377  0.00  0.00    +0.173 HD
BRANCH   8  11
ATOM     11  C   UNL     1       0.101   5.851  -1.650  0.00  0.00    +0.127 A 
ATOM     12  C   UNL     1      -0.070   7.169  -2.099  0.00  0.00    +0.034 A 
ATOM     13  C   UNL     1      -0.000   7.446  -3.433  0.00  0.00    +0.012 A 
ATOM     14  C   UNL     1       0.244   6.383  -4.323  0.00  0.00    +0.000 A 
ATOM     15  C   UNL     1       0.329   6.596  -5.708  0.00  0.00    +0.010 A 
ATOM     16  C   UNL     1       0.566   5.543  -6.538  0.00  0.00    +0.001 A 
ATOM     17  C   UNL     1       0.727   4.254  -6.032  0.00  0.00    +0.002 A 
ATOM     18  C   UNL     1       0.652   4.010  -4.696  0.00  0.00    +0.028 A 
ATOM     19  C   UNL     1       0.407   5.072  -3.804  0.00  0.00    +0.072 A 
ATOM     20  N   UNL     1       0.334   4.862  -2.490  0.00  0.00    -0.242 NA
ENDBRANCH   8  11
ENDBRANCH   4   7
BRANCH   1  21
ATOM     21  C   UNL     1       0.702   0.405   1.687  0.00  0.00    +0.091 C 
BRANCH  21  22
ATOM     22  C   UNL     1       0.782  -0.554   0.497  0.00  0.00    -0.048 C 
BRANCH  22  24
ATOM     23  C   UNL     1      -1.567  -0.911   0.821  0.00  0.00    -0.096 C 
ATOM     24  N   UNL     1      -0.525  -0.616  -0.171  0.00  0.00    +0.379 N 
ATOM     25  C   UNL     1      -0.809   0.674  -0.812  0.00  0.00    -0.096 C 
ATOM     26  H   UNL     1      -0.511  -1.343  -0.870  0.00  0.00    -0.082 HD
ENDBRANCH  22  24
BRANCH  22  27
ATOM     27  C   UNL     1       1.170  -1.949   0.991  0.00  0.00    +0.021 C 
BRANCH  27  28
ATOM     28  C   UNL     1       1.342  -2.870  -0.190  0.00  0.00    -0.049 A 
ATOM     29  C   UNL     1       0.265  -3.595  -0.663  0.00  0.00    +0.003 A 
ATOM     30  C   UNL     1       0.422  -4.440  -1.746  0.00  0.00    +0.000 A 
ATOM     31  C   UNL     1       1.657  -4.559  -2.356  0.00  0.00    +0.000 A 
ATOM     32  C   UNL     1       2.735  -3.833  -1.883  0.00  0.00    +0.000 A 
ATOM     33  C   UNL     1       2.576  -2.985  -0.802  0.00  0.00    +0.003 A 
ENDBRANCH  27  28
ENDBRANCH  22  27
ENDBRANCH  21  22
ENDBRANCH   1  21
TORSDOF 7
