REMARK  Name = ZINC08780725
REMARK  6 active torsions:
REMARK  status: ('A' for Active; 'I' for Inactive)
REMARK    1  A    between atoms: C_14  and  C_15
REMARK    2  A    between atoms: N_16  and  N_17
REMARK    3  A    between atoms: C_18  and  C_20
REMARK    4  A    between atoms: C_25  and  C_26
REMARK    5  A    between atoms: C_25  and  N_61
REMARK    6  A    between atoms: C_29  and  N_32
REMARK                            x       y       z     vdW  Elec       q    Type
REMARK                         _______ _______ _______ _____ _____    ______ ____
ROOT
ATOM      1  N   UNL     1       2.568   4.240   0.086  0.00  0.00    -0.207 N 
ATOM      2  C   UNL     1       1.407   3.555   0.098  0.00  0.00    +0.235 C 
ATOM      3  O   UNL     1       0.352   4.150   0.164  0.00  0.00    -0.274 OA
ATOM      4  H   UNL     1       3.412   3.765   0.033  0.00  0.00    +0.177 HD
ENDROOT
BRANCH   2   5
ATOM      5  C   UNL     1       1.421   2.050   0.029  0.00  0.00    +0.073 C 
ATOM      6  C   UNL     1      -0.017   1.524   0.059  0.00  0.00    -0.006 C 
ATOM      7  C   UNL     1       0.004  -0.006   0.050  0.00  0.00    -0.078 C 
ATOM      8  C   UNL     1       2.143  -0.040   1.189  0.00  0.00    -0.078 C 
ATOM      9  C   UNL     1       2.186   1.489   1.231  0.00  0.00    -0.006 C 
ATOM     10  N   UNL     1       0.734  -0.482   1.245  0.00  0.00    +0.382 N 
ATOM     11  H   UNL     1       0.293  -0.087   2.084  0.00  0.00    -0.081 HD
BRANCH  10  12
ATOM     12  C   UNL     1       0.671  -1.957   1.320  0.00  0.00    -0.043 C 
BRANCH  12  13
ATOM     13  C   UNL     1       1.634  -2.439   2.374  0.00  0.00    -0.064 A 
ATOM     14  C   UNL     1       2.931  -2.767   2.026  0.00  0.00    +0.004 A 
ATOM     15  C   UNL     1       3.816  -3.205   2.994  0.00  0.00    +0.033 A 
ATOM     16  C   UNL     1       3.401  -3.325   4.307  0.00  0.00    +0.126 A 
ATOM     17  C   UNL     1       2.103  -3.001   4.654  0.00  0.00    +0.033 A 
ATOM     18  C   UNL     1       1.219  -2.559   3.687  0.00  0.00    +0.004 A 
BRANCH  16  19
ATOM     19  N   UNL     1       4.348  -3.798   5.342  0.00  0.00    +0.056 N 
ATOM     20  O   UNL     1       3.982  -3.903   6.499  0.00  0.00    -0.126 OA
ATOM     21  O   UNL     1       5.492  -4.083   5.036  0.00  0.00    -0.126 OA
ENDBRANCH  16  19
ENDBRANCH  12  13
ENDBRANCH  10  12
ENDBRANCH   2   5
BRANCH   1  23
ATOM     22  C   UNL     1       3.677   6.302   0.138  0.00  0.00    +0.139 C 
ATOM     23  N   UNL     1       2.556   5.640   0.150  0.00  0.00    -0.188 NA
BRANCH  22  37
ATOM     24  C   UNL     1       7.240   9.938   0.530  0.00  0.00    +0.001 A 
ATOM     25  C   UNL     1       7.257   8.546   0.468  0.00  0.00    +0.001 A 
ATOM     26  C   UNL     1       6.110   7.822   0.362  0.00  0.00    +0.009 A 
ATOM     27  C   UNL     1       4.872   8.485   0.320  0.00  0.00    -0.009 A 
ATOM     28  C   UNL     1       4.851   9.948   0.381  0.00  0.00    -0.017 A 
ATOM     29  C   UNL     1       6.077  10.639   0.490  0.00  0.00    +0.008 A 
ATOM     30  C   UNL     1       3.639  10.638   0.336  0.00  0.00    +0.017 A 
ATOM     31  C   UNL     1       2.440   9.934   0.228  0.00  0.00    -0.017 A 
ATOM     32  C   UNL     1       1.202  10.611   0.180  0.00  0.00    +0.008 A 
ATOM     33  C   UNL     1       0.052   9.897   0.074  0.00  0.00    +0.001 A 
ATOM     34  C   UNL     1       0.059   8.504   0.010  0.00  0.00    +0.001 A 
ATOM     35  C   UNL     1       1.217   7.794   0.051  0.00  0.00    +0.009 A 
ATOM     36  C   UNL     1       2.444   8.471   0.160  0.00  0.00    -0.009 A 
ATOM     37  C   UNL     1       3.664   7.766   0.205  0.00  0.00    +0.010 A 
ENDBRANCH  22  37
ENDBRANCH   1  23
TORSDOF 6
