REMARK  Name = ZINC30939189
REMARK  10 active torsions:
REMARK  status: ('A' for Active; 'I' for Inactive)
REMARK    1  A    between atoms: C_1  and  C_2
REMARK    2  A    between atoms: C_2  and  N_3
REMARK    3  A    between atoms: N_3  and  C_4
REMARK    4  A    between atoms: N_3  and  S_6
REMARK    5  A    between atoms: C_4  and  C_5
REMARK    6  A    between atoms: S_6  and  C_9
REMARK    7  A    between atoms: C_12  and  N_15
REMARK    8  A    between atoms: C_16  and  C_18
REMARK    9  A    between atoms: N_23  and  C_25
REMARK   10  A    between atoms: C_25  and  C_26
REMARK                            x       y       z     vdW  Elec       q    Type
REMARK                         _______ _______ _______ _____ _____    ______ ____
ROOT
ATOM      1  N   UNL     1       1.162   3.485   0.009  0.00  0.00    -0.285 N 
ATOM      2  C   UNL     1       2.318   4.171   0.104  0.00  0.00    +0.218 C 
ATOM      3  O   UNL     1       3.377   3.580   0.091  0.00  0.00    -0.275 OA
ATOM      4  H   UNL     1       0.206   4.025  -0.067  0.00  0.00    +0.155 HD
ENDROOT
BRANCH   2   5
ATOM      5  C   UNL     1       2.295   5.673   0.225  0.00  0.00    +0.059 C 
ATOM      6  C   UNL     1       1.612   6.275  -1.006  0.00  0.00    +0.009 C 
ATOM      7  C   UNL     1       1.646   7.803  -0.904  0.00  0.00    -0.018 C 
ATOM      8  C   UNL     1       3.099   8.268  -0.780  0.00  0.00    -0.078 C 
ATOM      9  N   UNL     1       3.707   7.666   0.413  0.00  0.00    +0.383 N 
ATOM     10  C   UNL     1       3.729   6.201   0.316  0.00  0.00    -0.066 C 
ATOM     11  H   UNL     1       3.085   7.936   1.279  0.00  0.00    -0.081 HD
BRANCH   9  12
ATOM     12  C   UNL     1       5.058   8.198   0.640  0.00  0.00    -0.043 C 
BRANCH  12  13
ATOM     13  C   UNL     1       4.969   9.664   0.978  0.00  0.00    -0.062 A 
ATOM     14  C   UNL     1       4.840  10.063   2.295  0.00  0.00    +0.003 A 
ATOM     15  C   UNL     1       4.760  11.408   2.606  0.00  0.00    +0.021 A 
ATOM     16  C   UNL     1       4.808  12.354   1.599  0.00  0.00    +0.059 A 
ATOM     17  C   UNL     1       4.937  11.955   0.280  0.00  0.00    +0.059 A 
ATOM     18  C   UNL     1       5.023  10.609  -0.029  0.00  0.00    +0.023 A 
ATOM     19 CL   UNL     1       4.997  13.142  -0.986  0.00  0.00    -0.082 Cl
ATOM     20 CL   UNL     1       4.705  14.043   1.988  0.00  0.00    -0.082 Cl
ENDBRANCH  12  13
ENDBRANCH   9  12
ENDBRANCH   2   5
BRANCH   1  24
ATOM     21  C   UNL     1       1.206  -0.681   0.005  0.00  0.00    +0.106 A 
ATOM     22  C   UNL     1       2.145   0.019   0.741  0.00  0.00    +0.030 A 
ATOM     23  C   UNL     1       2.133   1.400   0.744  0.00  0.00    +0.025 A 
ATOM     24  C   UNL     1       1.177   2.086   0.008  0.00  0.00    +0.034 A 
ATOM     25  C   UNL     1       0.236   1.381  -0.731  0.00  0.00    +0.025 A 
ATOM     26  C   UNL     1       0.253  -0.000  -0.730  0.00  0.00    +0.030 A 
BRANCH  21  27
ATOM     27  S   UNL     1       1.225  -2.443   0.003  0.00  0.00    +0.061 S 
ATOM     28  O   UNL     1       0.585  -2.854  -1.196  0.00  0.00    -0.153 OA
ATOM     29  O   UNL     1       2.551  -2.835   0.332  0.00  0.00    -0.153 OA
BRANCH  27  30
ATOM     30  N   UNL     1       0.260  -2.944   1.252  0.00  0.00    -0.177 NA
BRANCH  30  32
ATOM     31  C   UNL     1      -1.405  -4.658   0.730  0.00  0.00    +0.022 C 
ATOM     32  C   UNL     1      -1.169  -3.176   1.025  0.00  0.00    +0.106 C 
ENDBRANCH  30  32
BRANCH  30  33
ATOM     33  C   UNL     1       0.835  -3.156   2.582  0.00  0.00    +0.106 C 
ATOM     34  C   UNL     1       0.646  -1.894   3.426  0.00  0.00    +0.022 C 
ENDBRANCH  30  33
ENDBRANCH  27  30
ENDBRANCH  21  27
ENDBRANCH   1  24
TORSDOF 8
