REMARK  Name = ZINC02694371
REMARK  7 active torsions:
REMARK  status: ('A' for Active; 'I' for Inactive)
REMARK    1  A    between atoms: C_13  and  C_14
REMARK    2  A    between atoms: C_18  and  C_20
REMARK    3  A    between atoms: N_24  and  C_25
REMARK    4  A    between atoms: C_25  and  C_26
REMARK    5  A    between atoms: C_26  and  C_27
REMARK    6  A    between atoms: C_30  and  S_33
REMARK    7  A    between atoms: S_33  and  N_36
REMARK                            x       y       z     vdW  Elec       q    Type
REMARK                         _______ _______ _______ _____ _____    ______ ____
ROOT
ATOM      1  C   UNL     1      -7.248   2.280  -1.894  0.00  0.00    +0.001 A 
ATOM      2  C   UNL     1      -6.932   3.380  -1.109  0.00  0.00    +0.002 A 
ATOM      3  C   UNL     1      -5.665   3.530  -0.587  0.00  0.00    +0.028 A 
ATOM      4  C   UNL     1      -4.694   2.573  -0.847  0.00  0.00    +0.080 A 
ATOM      5  C   UNL     1      -5.013   1.457  -1.643  0.00  0.00    +0.040 A 
ATOM      6  C   UNL     1      -6.299   1.319  -2.164  0.00  0.00    +0.013 A 
ATOM      7  C   UNL     1      -3.963   0.461  -1.900  0.00  0.00    +0.130 A 
ATOM      8  N   UNL     1      -2.767   0.645  -1.381  0.00  0.00    -0.210 NA
ATOM      9  C   UNL     1      -2.477   1.718  -0.630  0.00  0.00    +0.186 A 
ATOM     10  N   UNL     1      -3.410   2.680  -0.346  0.00  0.00    -0.193 N 
ATOM     11  N   UNL     1      -2.773   3.633   0.458  0.00  0.00    -0.058 NA
ATOM     12  N   UNL     1      -1.553   3.271   0.648  0.00  0.00    -0.127 NA
ATOM     13  C   UNL     1      -1.307   2.117   0.020  0.00  0.00    +0.139 A 
ATOM     14  N   UNL     1      -4.227  -0.650  -2.675  0.00  0.00    -0.328 N 
ATOM     15  H   UNL     1      -5.111  -0.778  -3.054  0.00  0.00    +0.147 HD
ENDROOT
BRANCH  13  16
ATOM     16  C   UNL     1      -0.017   1.391   0.010  0.00  0.00    +0.006 A 
ATOM     17  C   UNL     1       0.002  -0.004   0.002  0.00  0.00    +0.010 A 
ATOM     18  C   UNL     1       1.208  -0.675  -0.013  0.00  0.00    +0.001 A 
ATOM     19  C   UNL     1       2.396   0.034  -0.021  0.00  0.00    +0.012 A 
ATOM     20  C   UNL     1       2.384   1.417  -0.013  0.00  0.00    +0.055 A 
ATOM     21  C   UNL     1       1.185   2.099   0.002  0.00  0.00    +0.022 A 
BRANCH  20  22
ATOM     22  C   UNL     1       3.684   2.180  -0.021  0.00  0.00    +0.417 C 
ATOM     23  F   UNL     1       4.754   1.279  -0.036  0.00  0.00    -0.166 F 
ATOM     24  F   UNL     1       3.741   2.991  -1.159  0.00  0.00    -0.166 F 
ATOM     25  F   UNL     1       3.762   2.979   1.125  0.00  0.00    -0.166 F 
ENDBRANCH  20  22
ENDBRANCH  13  16
BRANCH  14  26
ATOM     26  C   UNL     1      -3.172  -1.635  -2.925  0.00  0.00    +0.107 C 
BRANCH  26  27
ATOM     27  C   UNL     1      -3.723  -2.760  -3.805  0.00  0.00    +0.054 C 
BRANCH  27  28
ATOM     28  C   UNL     1      -2.638  -3.773  -4.062  0.00  0.00    -0.046 A 
ATOM     29  C   UNL     1      -1.812  -3.638  -5.162  0.00  0.00    +0.005 A 
ATOM     30  C   UNL     1      -0.814  -4.566  -5.396  0.00  0.00    +0.029 A 
ATOM     31  C   UNL     1      -0.648  -5.634  -4.534  0.00  0.00    +0.105 A 
ATOM     32  C   UNL     1      -1.478  -5.772  -3.437  0.00  0.00    +0.029 A 
ATOM     33  C   UNL     1      -2.473  -4.842  -3.201  0.00  0.00    +0.005 A 
BRANCH  31  34
ATOM     34  S   UNL     1       0.621  -6.819  -4.834  0.00  0.00    +0.056 S 
ATOM     35  O   UNL     1       1.609  -6.166  -5.620  0.00  0.00    -0.153 OA
ATOM     36  O   UNL     1       0.919  -7.420  -3.582  0.00  0.00    -0.153 OA
BRANCH  34  37
ATOM     37  N   UNL     1      -0.033  -8.005  -5.786  0.00  0.00    -0.204 NA
ATOM     38  H   UNL     1       0.530  -8.492  -6.409  0.00  0.00    +0.144 HD
ATOM     39  H   UNL     1      -0.978  -8.214  -5.721  0.00  0.00    +0.144 HD
ENDBRANCH  34  37
ENDBRANCH  31  34
ENDBRANCH  27  28
ENDBRANCH  26  27
ENDBRANCH  14  26
TORSDOF 7
