REMARK  Name = ZINC04164121
REMARK  6 active torsions:
REMARK  status: ('A' for Active; 'I' for Inactive)
REMARK    1  A    between atoms: C_1  and  C_2
REMARK    2  A    between atoms: C_5  and  N_9
REMARK    3  A    between atoms: C_10  and  C_12
REMARK    4  A    between atoms: C_12  and  S_13
REMARK    5  A    between atoms: S_13  and  C_14
REMARK    6  A    between atoms: C_20  and  C_23
REMARK                            x       y       z     vdW  Elec       q    Type
REMARK                         _______ _______ _______ _____ _____    ______ ____
ROOT
ATOM      1  C   UNL     1      -7.727   3.700  -0.364  0.00  0.00    +0.118 A 
ATOM      2  C   UNL     1      -8.995   3.095  -0.472  0.00  0.00    +0.040 A 
ATOM      3  C   UNL     1     -10.113   3.865  -0.549  0.00  0.00    +0.053 A 
ATOM      4  C   UNL     1      -9.983   5.266  -0.530  0.00  0.00    +0.178 A 
ATOM      5  N   UNL     1     -10.852   6.266  -0.592  0.00  0.00    -0.128 NA
ATOM      6  N   UNL     1     -10.224   7.388  -0.536  0.00  0.00    -0.127 NA
ATOM      7  C   UNL     1      -8.925   7.175  -0.437  0.00  0.00    +0.185 A 
ATOM      8  N   UNL     1      -8.734   5.825  -0.430  0.00  0.00    -0.192 N 
ATOM      9  N   UNL     1      -7.605   5.008  -0.347  0.00  0.00    -0.157 NA
ENDROOT
BRANCH   7  10
ATOM     10  C   UNL     1      -7.872   8.209  -0.348  0.00  0.00    +0.021 A 
ATOM     11  C   UNL     1      -6.585   7.865   0.069  0.00  0.00    +0.011 A 
ATOM     12  C   UNL     1      -5.606   8.834   0.144  0.00  0.00    +0.001 A 
ATOM     13  C   UNL     1      -5.900  10.146  -0.182  0.00  0.00    +0.000 A 
ATOM     14  C   UNL     1      -7.175  10.494  -0.591  0.00  0.00    +0.001 A 
ATOM     15  C   UNL     1      -8.162   9.534  -0.676  0.00  0.00    +0.011 A 
ENDBRANCH   7  10
BRANCH   1  16
ATOM     16  S   UNL     1      -6.287   2.690  -0.259  0.00  0.00    -0.095 S 
BRANCH  16  17
ATOM     17  C   UNL     1      -4.923   3.881  -0.146  0.00  0.00    +0.172 C 
BRANCH  17  19
ATOM     18  N   UNL     1      -2.457   3.822   0.045  0.00  0.00    -0.285 N 
ATOM     19  C   UNL     1      -3.615   3.139  -0.049  0.00  0.00    +0.227 C 
ATOM     20  O   UNL     1      -3.604   1.926  -0.055  0.00  0.00    -0.275 OA
ATOM     21  H   UNL     1      -2.470   4.789   0.127  0.00  0.00    +0.155 HD
BRANCH  18  26
ATOM     22  C   UNL     1       2.493   1.052  -0.040  0.00  0.00    +0.045 C 
ATOM     23  C   UNL     1       1.178   1.787  -0.017  0.00  0.00    -0.032 A 
ATOM     24  C   UNL     1       1.044   2.938   0.738  0.00  0.00    +0.006 A 
ATOM     25  C   UNL     1      -0.161   3.611   0.765  0.00  0.00    +0.023 A 
ATOM     26  C   UNL     1      -1.237   3.138   0.024  0.00  0.00    +0.035 A 
ATOM     27  C   UNL     1      -1.100   1.983  -0.733  0.00  0.00    +0.043 A 
ATOM     28  C   UNL     1       0.107   1.310  -0.752  0.00  0.00    +0.046 A 
ATOM     29 CL   UNL     1       0.280  -0.135  -1.699  0.00  0.00    -0.083 Cl
ENDBRANCH  18  26
ENDBRANCH  17  19
ENDBRANCH  16  17
ENDBRANCH   1  16
TORSDOF 5
