REMARK  Name = ZINC15226870
REMARK  5 active torsions:
REMARK  status: ('A' for Active; 'I' for Inactive)
REMARK    1  A    between atoms: C_1  and  C_2
REMARK    2  A    between atoms: C_5  and  C_8
REMARK    3  A    between atoms: C_11  and  C_13
REMARK    4  A    between atoms: C_11  and  O_17
REMARK    5  A    between atoms: C_21  and  N_22
REMARK                            x       y       z     vdW  Elec       q    Type
REMARK                         _______ _______ _______ _____ _____    ______ ____
ROOT
ATOM      1  C   UNL     1       0.060  -4.247  -0.021  0.00  0.00    +0.071 C 
ATOM      2  N   UNL     1       0.069  -4.986  -1.078  0.00  0.00    -0.178 NA
ATOM      3  N   UNL     1       0.087  -6.354  -0.816  0.00  0.00    -0.150 N 
ATOM      4  C   UNL     1       0.090  -6.560   0.641  0.00  0.00    +0.257 C 
ATOM      5  C   UNL     1       0.078  -5.127   1.209  0.00  0.00    +0.124 C 
ATOM      6  C   UNL     1       0.101  -7.355  -1.770  0.00  0.00    +0.243 C 
ATOM      7  N   UNL     1       0.111  -8.593  -1.392  0.00  0.00    -0.145 NA
ATOM      8  N   UNL     1       0.159  -9.641  -2.312  0.00  0.00    -0.223 N 
ATOM      9  C   UNL     1       1.252  -9.809  -3.133  0.00  0.00    +0.089 C 
ATOM     10  C   UNL     1       1.586  -8.864  -4.026  0.00  0.00    +0.087 C 
ATOM     11  C   UNL     1       0.756  -7.657  -4.146  0.00  0.00    +0.166 A 
ATOM     12  N   UNL     1       0.097  -7.012  -3.126  0.00  0.00    -0.251 N 
ATOM     13  C   UNL     1      -0.557  -5.961  -3.706  0.00  0.00    +0.232 A 
ATOM     14  N   UNL     1      -0.285  -5.994  -4.983  0.00  0.00    -0.137 NA
ATOM     15  N   UNL     1       0.496  -6.989  -5.249  0.00  0.00    -0.130 NA
ATOM     16  H   UNL     1      -0.587 -10.259  -2.373  0.00  0.00    +0.176 HD
ENDROOT
BRANCH   1  21
ATOM     17  C   UNL     1      -0.018   1.503   0.010  0.00  0.00    +0.044 C 
ATOM     18  C   UNL     1       0.002  -0.004   0.002  0.00  0.00    -0.050 A 
ATOM     19  C   UNL     1       0.006  -0.686  -1.202  0.00  0.00    +0.004 A 
ATOM     20  C   UNL     1       0.024  -2.065  -1.217  0.00  0.00    +0.010 A 
ATOM     21  C   UNL     1       0.040  -2.773  -0.013  0.00  0.00    -0.002 A 
ATOM     22  C   UNL     1       0.037  -2.078   1.199  0.00  0.00    +0.010 A 
ATOM     23  C   UNL     1       0.023  -0.699   1.198  0.00  0.00    +0.004 A 
ENDBRANCH   1  21
BRANCH   4  24
ATOM     24  C   UNL     1      -1.158  -7.329   1.078  0.00  0.00    +0.438 C 
ATOM     25  F   UNL     1      -1.167  -8.589   0.470  0.00  0.00    -0.166 F 
ATOM     26  F   UNL     1      -1.148  -7.482   2.469  0.00  0.00    -0.166 F 
ATOM     27  F   UNL     1      -2.301  -6.619   0.696  0.00  0.00    -0.166 F 
ENDBRANCH   4  24
BRANCH   9  28
ATOM     28  N   UNL     1       2.021 -10.973  -3.036  0.00  0.00    -0.404 NA
ATOM     29  H   UNL     1       1.634 -11.572  -2.322  0.00  0.00    +0.122 HD
ATOM     30  H   UNL     1       2.012 -11.456  -3.922  0.00  0.00    +0.122 HD
ATOM     31  H   UNL     1       2.970 -10.730  -2.795  0.00  0.00    +0.122 HD
ENDBRANCH   9  28
BRANCH   4  32
ATOM     32  O   UNL     1       1.275  -7.247   1.049  0.00  0.00    -0.363 OA
ATOM     33  H   UNL     1       1.370  -8.129   0.665  0.00  0.00    +0.212 HD
ENDBRANCH   4  32
TORSDOF 4
