REMARK  Name = ZINC51122703
REMARK  4 active torsions:
REMARK  status: ('A' for Active; 'I' for Inactive)
REMARK    1  A    between atoms: C_3  and  N_19
REMARK    2  A    between atoms: C_6  and  C_7
REMARK    3  A    between atoms: N_9  and  C_10
REMARK    4  A    between atoms: N_19  and  N_20
REMARK                            x       y       z     vdW  Elec       q    Type
REMARK                         _______ _______ _______ _____ _____    ______ ____
ROOT
ATOM      1  C   UNL     1      -0.759  -1.441   1.066  0.00  0.00    +0.268 C 
ATOM      2  O   UNL     1      -1.402  -1.385   2.096  0.00  0.00    -0.268 OA
ATOM      3  N   UNL     1      -1.246  -2.110   0.003  0.00  0.00    -0.278 N 
ATOM      4  H   UNL     1      -0.768  -2.094  -0.841  0.00  0.00    +0.155 HD
ENDROOT
BRANCH   3   5
ATOM      5  C   UNL     1      -2.442  -2.829   0.117  0.00  0.00    +0.071 A 
ATOM      6  C   UNL     1      -3.653  -2.217  -0.181  0.00  0.00    +0.065 A 
ATOM      7  C   UNL     1      -4.832  -2.930  -0.068  0.00  0.00    +0.042 A 
ATOM      8  C   UNL     1      -4.807  -4.251   0.342  0.00  0.00    +0.044 A 
ATOM      9  C   UNL     1      -3.602  -4.863   0.639  0.00  0.00    +0.042 A 
ATOM     10  C   UNL     1      -2.419  -4.158   0.522  0.00  0.00    +0.065 A 
ATOM     11 CL   UNL     1      -0.908  -4.929   0.889  0.00  0.00    -0.082 Cl
ATOM     12 CL   UNL     1      -6.290  -5.143   0.483  0.00  0.00    -0.083 Cl
ATOM     13 CL   UNL     1      -3.686  -0.559  -0.695  0.00  0.00    -0.082 Cl
ENDBRANCH   3   5
BRANCH   1  19
ATOM     14  C   UNL     1       1.066  -0.078   2.084  0.00  0.00    +0.038 A 
ATOM     15  C   UNL     1       2.303   0.529   1.955  0.00  0.00    +0.049 A 
ATOM     16  C   UNL     1       2.968   0.410   0.734  0.00  0.00    +0.155 A 
ATOM     17  N   UNL     1       2.409  -0.271  -0.261  0.00  0.00    -0.132 NA
ATOM     18  N   UNL     1       1.262  -0.835  -0.144  0.00  0.00    -0.143 NA
ATOM     19  C   UNL     1       0.558  -0.774   0.980  0.00  0.00    +0.148 A 
BRANCH  16  20
ATOM     20  N   UNL     1       4.208   1.002   0.559  0.00  0.00    -0.266 N 
ATOM     21  H   UNL     1       4.615   1.499   1.286  0.00  0.00    +0.167 HD
BRANCH  20  22
ATOM     22  N   UNL     1       4.858   0.885  -0.636  0.00  0.00    -0.255 NA
ATOM     23  H   UNL     1       5.745   1.365  -0.614  0.00  0.00    +0.140 HD
ATOM     24  H   UNL     1       4.978  -0.084  -0.890  0.00  0.00    +0.140 HD
ENDBRANCH  20  22
ENDBRANCH  16  20
ENDBRANCH   1  19
TORSDOF 4
