REMARK  Name = ZINC39131878
REMARK  1 active torsions:
REMARK  status: ('A' for Active; 'I' for Inactive)
REMARK    1  A    between atoms: C_9  and  C_11
REMARK                            x       y       z     vdW  Elec       q    Type
REMARK                         _______ _______ _______ _____ _____    ______ ____
ROOT
ATOM      1  C   UNL     1      -0.019   1.529   0.010  0.00  0.00    +0.009 C 
ATOM      2  C   UNL     1       1.423   2.037  -0.001  0.00  0.00    +0.034 C 
ATOM      3  C   UNL     1       2.186   1.450  -1.178  0.00  0.00    +0.147 C 
ATOM      4  C   UNL     1       1.706   0.161  -1.827  0.00  0.00    +0.148 C 
ATOM      5  O   UNL     1       1.592   1.421  -2.469  0.00  0.00    -0.368 OA
ATOM      6  C   UNL     1       0.387  -0.479  -1.400  0.00  0.00    +0.040 C 
ATOM      7  C   UNL     1       0.002  -0.004   0.002  0.00  0.00    +0.022 C 
ENDROOT
BRANCH   7   8
ATOM      8  C   UNL     1      -1.386  -0.538   0.362  0.00  0.00    +0.217 C 
ATOM      9  F   UNL     1      -1.744  -0.086   1.636  0.00  0.00    -0.249 F 
ENDBRANCH   7   8
TORSDOF 1
