REMARK  Name = ZINC36638104
REMARK  12 active torsions:
REMARK  status: ('A' for Active; 'I' for Inactive)
REMARK    1  A    between atoms: C_1  and  C_2
REMARK    2  A    between atoms: C_2  and  N_3
REMARK    3  A    between atoms: N_3  and  C_4
REMARK    4  A    between atoms: N_3  and  C_6
REMARK    5  A    between atoms: C_4  and  C_5
REMARK    6  A    between atoms: C_6  and  C_7
REMARK    7  A    between atoms: C_7  and  N_8
REMARK    8  A    between atoms: C_22  and  C_24
REMARK    9  A    between atoms: C_27  and  S_30
REMARK   10  A    between atoms: S_30  and  N_33
REMARK   11  A    between atoms: N_33  and  C_34
REMARK   12  A    between atoms: N_33  and  C_35
REMARK                            x       y       z     vdW  Elec       q    Type
REMARK                         _______ _______ _______ _____ _____    ______ ____
ROOT
ATOM      1  N   UNL     1      -3.095  -4.306   0.564  0.00  0.00    -0.248 N 
ATOM      2  C   UNL     1      -3.517  -4.913   1.735  0.00  0.00    +0.168 A 
ATOM      3  N   UNL     1      -4.279  -4.425   2.686  0.00  0.00    -0.224 NA
ATOM      4  C   UNL     1      -4.614  -5.137   3.786  0.00  0.00    +0.084 A 
ATOM      5  C   UNL     1      -5.419  -4.731   4.875  0.00  0.00    +0.078 A 
ATOM      6  C   UNL     1      -5.668  -5.581   5.929  0.00  0.00    +0.164 A 
ATOM      7  C   UNL     1      -5.133  -6.869   5.951  0.00  0.00    +0.163 A 
ATOM      8  C   UNL     1      -4.339  -7.295   4.899  0.00  0.00    +0.066 A 
ATOM      9  C   UNL     1      -4.090  -6.447   3.848  0.00  0.00    +0.044 A 
ATOM     10  S   UNL     1      -3.168  -6.560   2.333  0.00  0.00    -0.052 S 
ATOM     11  O   UNL     1      -5.382  -7.715   6.987  0.00  0.00    -0.485 OA
ATOM     12  C   UNL     1      -5.878  -7.126   8.194  0.00  0.00    +0.270 C 
ATOM     13  C   UNL     1      -6.996  -6.144   7.823  0.00  0.00    +0.270 C 
ATOM     14  O   UNL     1      -6.448  -5.143   6.959  0.00  0.00    -0.485 OA
ATOM     15  C   UNL     1      -2.312  -4.982  -0.300  0.00  0.00    +0.252 C 
ATOM     16  O   UNL     1      -2.019  -6.140  -0.078  0.00  0.00    -0.270 OA
ENDROOT
BRANCH  15  17
ATOM     17  C   UNL     1      -1.808  -4.314  -1.518  0.00  0.00    +0.037 A 
ATOM     18  C   UNL     1      -1.577  -2.937  -1.518  0.00  0.00    +0.015 A 
ATOM     19  C   UNL     1      -1.107  -2.319  -2.659  0.00  0.00    +0.029 A 
ATOM     20  C   UNL     1      -0.864  -3.062  -3.801  0.00  0.00    +0.105 A 
ATOM     21  C   UNL     1      -1.091  -4.426  -3.808  0.00  0.00    +0.029 A 
ATOM     22  C   UNL     1      -1.555  -5.057  -2.673  0.00  0.00    +0.015 A 
BRANCH  20  23
ATOM     23  S   UNL     1      -0.265  -2.265  -5.254  0.00  0.00    +0.060 S 
ATOM     24  O   UNL     1      -0.636  -3.088  -6.351  0.00  0.00    -0.153 OA
ATOM     25  O   UNL     1      -0.653  -0.901  -5.159  0.00  0.00    -0.153 OA
BRANCH  23  26
ATOM     26  N   UNL     1       1.390  -2.292  -5.180  0.00  0.00    -0.183 NA
ATOM     27  C   UNL     1       2.130  -3.418  -5.755  0.00  0.00    +0.131 C 
ATOM     28  C   UNL     1       2.113  -1.190  -4.540  0.00  0.00    +0.131 C 
ENDBRANCH  23  26
ENDBRANCH  20  23
ENDBRANCH  15  17
BRANCH   1  29
ATOM     29  C   UNL     1      -3.501  -2.931   0.263  0.00  0.00    +0.097 C 
BRANCH  29  30
ATOM     30  C   UNL     1      -2.654  -1.958   1.087  0.00  0.00    -0.059 C 
BRANCH  30  31
ATOM     31  N   UNL     1      -2.974  -0.579   0.696  0.00  0.00    +0.380 N 
ATOM     32  H   UNL     1      -2.840  -0.471  -0.299  0.00  0.00    -0.082 HD
BRANCH  31  34
ATOM     33  C   UNL     1      -4.743   1.105   0.516  0.00  0.00    -0.017 C 
ATOM     34  C   UNL     1      -4.373  -0.286   1.035  0.00  0.00    -0.082 C 
ENDBRANCH  31  34
BRANCH  31  35
ATOM     35  C   UNL     1      -2.091   0.351   1.413  0.00  0.00    -0.082 C 
ATOM     36  C   UNL     1      -0.652   0.161   0.931  0.00  0.00    -0.017 C 
ENDBRANCH  31  35
ENDBRANCH  30  31
ENDBRANCH  29  30
ENDBRANCH   1  29
TORSDOF 8
