REMARK  Name = ZINC50593720
REMARK  4 active torsions:
REMARK  status: ('A' for Active; 'I' for Inactive)
REMARK    1  A    between atoms: C_1  and  C_2
REMARK    2  A    between atoms: C_4  and  C_17
REMARK    3  A    between atoms: N_5  and  C_7
REMARK    4  A    between atoms: C_7  and  C_8
REMARK                            x       y       z     vdW  Elec       q    Type
REMARK                         _______ _______ _______ _____ _____    ______ ____
ROOT
ATOM      1  C   UNL     1       0.053  -3.295   1.486  0.00  0.00    +0.239 C 
ENDROOT
BRANCH   1   2
ATOM      2  C   UNL     1       1.481  -3.682   1.774  0.00  0.00    +0.237 C 
ATOM      3  O   UNL     1       2.392  -3.031   1.307  0.00  0.00    -0.274 OA
ATOM      4  N   UNL     1       1.745  -4.751   2.551  0.00  0.00    -0.299 N 
ATOM      5  C   UNL     1       0.649  -5.548   3.117  0.00  0.00    +0.115 C 
ATOM      6  C   UNL     1       0.809  -7.003   2.658  0.00  0.00    +0.093 C 
ATOM      7  C   UNL     1       2.235  -7.433   2.921  0.00  0.00    +0.136 C 
ATOM      8  O   UNL     1       2.472  -8.437   3.550  0.00  0.00    -0.297 OA
ATOM      9  C   UNL     1       3.357  -6.576   2.377  0.00  0.00    +0.093 C 
ATOM     10  C   UNL     1       3.133  -5.135   2.838  0.00  0.00    +0.115 C 
ENDBRANCH   1   2
BRANCH   1  15
ATOM     11  C   UNL     1      -0.018   1.503   0.010  0.00  0.00    +0.068 C 
ATOM     12  C   UNL     1       0.002  -0.004   0.002  0.00  0.00    +0.074 A 
ATOM     13  C   UNL     1       0.008  -0.818  -1.136  0.00  0.00    +0.061 A 
ATOM     14  C   UNL     1       0.027  -2.108  -0.725  0.00  0.00    +0.051 A 
ATOM     15  N   UNL     1       0.034  -2.109   0.625  0.00  0.00    -0.258 N 
ATOM     16  N   UNL     1       0.023  -0.777   1.058  0.00  0.00    -0.175 NA
ATOM     17  C   UNL     1       0.039  -3.324  -1.615  0.00  0.00    +0.066 C 
ATOM     18 BR   UNL     1      -0.009  -0.222  -2.930  0.00  0.00    -0.047 Br
ENDBRANCH   1  15
TORSDOF 2
