REMARK  Name = ZINC35489032
REMARK  5 active torsions:
REMARK  status: ('A' for Active; 'I' for Inactive)
REMARK    1  A    between atoms: C_8  and  C_31
REMARK    2  A    between atoms: N_10  and  C_12
REMARK    3  A    between atoms: C_12  and  C_13
REMARK    4  A    between atoms: C_16  and  C_26
REMARK    5  A    between atoms: C_19  and  C_21
REMARK                            x       y       z     vdW  Elec       q    Type
REMARK                         _______ _______ _______ _____ _____    ______ ____
ROOT
ATOM      1  C   UNL     1       6.111  -2.342  -0.610  0.00  0.00    +0.249 C 
ATOM      2  O   UNL     1       5.976  -1.364  -1.316  0.00  0.00    -0.272 OA
ATOM      3  N   UNL     1       7.327  -2.906  -0.466  0.00  0.00    -0.184 N 
ATOM      4  C   UNL     1       8.569  -2.436  -1.099  0.00  0.00    +0.143 C 
ATOM      5  C   UNL     1       9.632  -3.433  -0.597  0.00  0.00    +0.088 C 
ATOM      6  C   UNL     1       8.854  -4.380   0.288  0.00  0.00    +0.075 C 
ATOM      7  N   UNL     1       7.613  -4.025   0.313  0.00  0.00    -0.180 NA
ENDROOT
BRANCH   6   8
ATOM      8  C   UNL     1       9.423  -5.522   1.012  0.00  0.00    +0.035 A 
ATOM      9  C   UNL     1       8.789  -6.438   1.833  0.00  0.00    +0.017 A 
ATOM     10  C   UNL     1       9.544  -7.434   2.407  0.00  0.00    +0.008 A 
ATOM     11  C   UNL     1      10.877  -7.489   2.151  0.00  0.00    +0.046 A 
ATOM     12  S   UNL     1      11.112  -6.098   1.056  0.00  0.00    -0.095 S 
ENDBRANCH   6   8
BRANCH   4  13
ATOM     13  C   UNL     1       8.896  -1.036  -0.650  0.00  0.00    +0.013 A 
ATOM     14  C   UNL     1       9.405  -0.005  -1.370  0.00  0.00    +0.013 A 
ATOM     15  C   UNL     1       9.626   1.206  -0.742  0.00  0.00    +0.008 A 
ATOM     16  C   UNL     1       9.329   1.328   0.575  0.00  0.00    +0.045 A 
ATOM     17  S   UNL     1       8.708  -0.300   0.966  0.00  0.00    -0.100 S 
ENDBRANCH   4  13
BRANCH   1  18
ATOM     18  C   UNL     1       4.920  -2.925   0.105  0.00  0.00    +0.183 C 
BRANCH  18  27
ATOM     19  C   UNL     1       0.166   1.389  -0.215  0.00  0.00    +0.000 A 
ATOM     20  C   UNL     1       1.307   2.017   0.249  0.00  0.00    +0.000 A 
ATOM     21  C   UNL     1       2.455   1.283   0.465  0.00  0.00    +0.005 A 
ATOM     22  C   UNL     1       2.473  -0.082   0.218  0.00  0.00    -0.030 A 
ATOM     23  C   UNL     1       1.336  -0.707  -0.247  0.00  0.00    -0.041 A 
ATOM     24  C   UNL     1       0.181   0.030  -0.461  0.00  0.00    +0.004 A 
ATOM     25  C   UNL     1       1.310  -2.185  -0.540  0.00  0.00    +0.063 C 
ATOM     26  C   UNL     1       2.497  -2.873   0.134  0.00  0.00    +0.148 C 
ATOM     27  N   UNL     1       3.723  -2.135  -0.213  0.00  0.00    -0.278 NA
ATOM     28  C   UNL     1       3.749  -0.841   0.474  0.00  0.00    +0.121 C 
BRANCH  26  29
ATOM     29  C   UNL     1       2.602  -4.295  -0.352  0.00  0.00    +0.228 C 
ATOM     30  O   UNL     1       3.171  -4.539  -1.395  0.00  0.00    -0.274 OA
ATOM     31  N   UNL     1       2.064  -5.296   0.372  0.00  0.00    -0.328 N 
ATOM     32  H   UNL     1       1.609  -5.101   1.206  0.00  0.00    +0.145 HD
ATOM     33  H   UNL     1       2.131  -6.212   0.059  0.00  0.00    +0.145 HD
ENDBRANCH  26  29
ENDBRANCH  18  27
ENDBRANCH   1  18
TORSDOF 5
