REMARK  Name = ZINC45922198
REMARK  10 active torsions:
REMARK  status: ('A' for Active; 'I' for Inactive)
REMARK    1  A    between atoms: C_1  and  C_2
REMARK    2  A    between atoms: C_2  and  C_3
REMARK    3  A    between atoms: C_3  and  O_4
REMARK    4  A    between atoms: O_4  and  C_5
REMARK    5  A    between atoms: C_8  and  C_11
REMARK    6  A    between atoms: C_11  and  N_12
REMARK    7  A    between atoms: C_25  and  S_26
REMARK    8  A    between atoms: S_26  and  C_27
REMARK    9  A    between atoms: C_27  and  C_28
REMARK   10  A    between atoms: N_30  and  C_31
REMARK                            x       y       z     vdW  Elec       q    Type
REMARK                         _______ _______ _______ _____ _____    ______ ____
ROOT
ATOM      1  N   UNL     1       4.658  -4.636  -5.346  0.00  0.00    -0.282 N 
ATOM      2  C   UNL     1       5.572  -3.685  -5.653  0.00  0.00    +0.269 A 
ATOM      3  O   UNL     1       5.234  -2.640  -6.184  0.00  0.00    -0.266 OA
ATOM      4  C   UNL     1       6.913  -3.933  -5.345  0.00  0.00    +0.105 A 
ATOM      5  C   UNL     1       7.311  -5.123  -4.739  0.00  0.00    +0.095 A 
ATOM      6  C   UNL     1       8.752  -5.260  -4.467  0.00  0.00    +0.034 A 
ATOM      7  C   UNL     1       9.418  -6.354  -3.866  0.00  0.00    +0.014 A 
ATOM      8  C   UNL     1      10.783  -6.292  -3.698  0.00  0.00    +0.020 A 
ATOM      9  C   UNL     1      11.489  -5.174  -4.112  0.00  0.00    +0.112 A 
ATOM     10  N   UNL     1      10.862  -4.157  -4.671  0.00  0.00    -0.248 NA
ATOM     11  C   UNL     1       9.558  -4.172  -4.853  0.00  0.00    +0.111 A 
ATOM     12  S   UNL     1       8.413  -3.011  -5.555  0.00  0.00    -0.062 S 
ATOM     13  N   UNL     1       6.328  -6.025  -4.464  0.00  0.00    -0.222 NA
ATOM     14  C   UNL     1       5.073  -5.789  -4.747  0.00  0.00    +0.173 A 
ENDROOT
BRANCH   1  15
ATOM     15  C   UNL     1       3.240  -4.426  -5.648  0.00  0.00    +0.162 C 
BRANCH  15  19
ATOM     16  C   UNL     1       1.341  -2.529  -2.322  0.00  0.00    +0.121 A 
ATOM     17  C   UNL     1       1.909  -1.762  -3.329  0.00  0.00    +0.046 A 
ATOM     18  C   UNL     1       2.522  -2.377  -4.403  0.00  0.00    +0.009 A 
ATOM     19  C   UNL     1       2.571  -3.757  -4.475  0.00  0.00    -0.027 A 
ATOM     20  C   UNL     1       2.006  -4.524  -3.473  0.00  0.00    +0.009 A 
ATOM     21  C   UNL     1       1.397  -3.914  -2.394  0.00  0.00    +0.046 A 
BRANCH  16  22
ATOM     22  O   UNL     1       0.738  -1.926  -1.265  0.00  0.00    -0.492 OA
BRANCH  22  23
ATOM     23  C   UNL     1       0.718  -0.497  -1.257  0.00  0.00    +0.229 C 
BRANCH  23  25
ATOM     24  C   UNL     1      -0.019   1.526   0.010  0.00  0.00    +0.007 C 
ATOM     25  C   UNL     1       0.002  -0.004   0.002  0.00  0.00    +0.038 C 
ENDBRANCH  23  25
ENDBRANCH  22  23
ENDBRANCH  16  22
ENDBRANCH  15  19
ENDBRANCH   1  15
BRANCH  14  26
ATOM     26  S   UNL     1       3.872  -7.014  -4.347  0.00  0.00    -0.078 S 
BRANCH  26  27
ATOM     27  C   UNL     1       4.839  -8.346  -3.586  0.00  0.00    +0.173 C 
BRANCH  27  28
ATOM     28  C   UNL     1       3.919  -9.473  -3.191  0.00  0.00    +0.224 C 
ATOM     29  O   UNL     1       2.728  -9.386  -3.403  0.00  0.00    -0.275 OA
ATOM     30  N   UNL     1       4.420 -10.577  -2.603  0.00  0.00    -0.312 N 
ATOM     31  H   UNL     1       5.373 -10.647  -2.434  0.00  0.00    +0.149 HD
BRANCH  30  32
ATOM     32  C   UNL     1       3.526 -11.672  -2.219  0.00  0.00    +0.073 C 
ATOM     33  C   UNL     1       3.348 -12.648  -3.401  0.00  0.00    +0.022 C 
ATOM     34  C   UNL     1       4.388 -13.764  -3.134  0.00  0.00    +0.002 C 
ATOM     35  C   UNL     1       4.328 -13.924  -1.594  0.00  0.00    +0.002 C 
ATOM     36  C   UNL     1       4.150 -12.484  -1.070  0.00  0.00    +0.022 C 
ENDBRANCH  30  32
ENDBRANCH  27  28
ENDBRANCH  26  27
ENDBRANCH  14  26
TORSDOF 9
