REMARK  Name = ZINC41001237
REMARK  14 active torsions:
REMARK  status: ('A' for Active; 'I' for Inactive)
REMARK    1  A    between atoms: C_1  and  C_2
REMARK    2  A    between atoms: C_2  and  C_3
REMARK    3  A    between atoms: C_3  and  C_4
REMARK    4  A    between atoms: C_4  and  S_5
REMARK    5  A    between atoms: S_5  and  C_6
REMARK    6  A    between atoms: C_11  and  C_23
REMARK    7  A    between atoms: C_13  and  C_17
REMARK    8  A    between atoms: C_14  and  C_16
REMARK    9  A    between atoms: C_17  and  O_19
REMARK   10  A    between atoms: O_19  and  C_20
REMARK   11  A    between atoms: C_20  and  C_21
REMARK   12  A    between atoms: C_28  and  O_29
REMARK   13  A    between atoms: O_29  and  C_30
REMARK   14  A    between atoms: C_30  and  C_31
REMARK                            x       y       z     vdW  Elec       q    Type
REMARK                         _______ _______ _______ _____ _____    ______ ____
ROOT
ATOM      1  C   UNL     1       1.150  -4.409  -2.875  0.00  0.00    +0.210 A 
ATOM      2  N   UNL     1       0.626  -5.080  -1.839  0.00  0.00    -0.187 NA
ATOM      3  C   UNL     1       0.924  -6.346  -1.944  0.00  0.00    +0.219 A 
ATOM      4  N   UNL     1       1.665  -6.513  -3.068  0.00  0.00    -0.220 N 
ATOM      5  N   UNL     1       1.790  -5.255  -3.654  0.00  0.00    -0.141 NA
ATOM      6  C   UNL     1       2.189  -7.804  -3.506  0.00  0.00    +0.183 C 
ATOM      7  C   UNL     1       1.542  -8.905  -2.708  0.00  0.00    +0.082 C 
ATOM      8  C   UNL     1       0.815  -8.678  -1.603  0.00  0.00    +0.020 C 
ATOM      9  N   UNL     1       0.597  -7.413  -1.118  0.00  0.00    -0.287 N 
ATOM     10  C   UNL     1       0.220  -9.852  -0.869  0.00  0.00    +0.061 C 
ATOM     11  H   UNL     1       0.227  -7.269  -0.233  0.00  0.00    +0.155 HD
ENDROOT
BRANCH   6  12
ATOM     12  C   UNL     1       3.681  -7.838  -3.291  0.00  0.00    +0.024 A 
ATOM     13  C   UNL     1       4.200  -7.686  -2.020  0.00  0.00    +0.025 A 
ATOM     14  C   UNL     1       5.569  -7.718  -1.823  0.00  0.00    +0.018 A 
ATOM     15  C   UNL     1       6.421  -7.902  -2.898  0.00  0.00    +0.019 A 
ATOM     16  C   UNL     1       5.905  -8.055  -4.170  0.00  0.00    +0.047 A 
ATOM     17  C   UNL     1       4.532  -8.029  -4.370  0.00  0.00    +0.126 A 
ATOM     18 BR   UNL     1       6.278  -7.509  -0.083  0.00  0.00    -0.050 Br
BRANCH  17  19
ATOM     19  O   UNL     1       4.023  -8.184  -5.620  0.00  0.00    -0.492 OA
BRANCH  19  20
ATOM     20  C   UNL     1       4.959  -8.376  -6.683  0.00  0.00    +0.225 C 
ATOM     21  C   UNL     1       4.205  -8.530  -8.005  0.00  0.00    +0.048 C 
ENDBRANCH  19  20
ENDBRANCH  17  19
ENDBRANCH   6  12
BRANCH   7  22
ATOM     22  C   UNL     1       1.707 -10.238  -3.144  0.00  0.00    +0.339 C 
ATOM     23  O   UNL     1       1.099 -10.640  -4.118  0.00  0.00    -0.245 OA
BRANCH  22  24
ATOM     24  O   UNL     1       2.539 -11.067  -2.479  0.00  0.00    -0.457 OA
BRANCH  24  25
ATOM     25  C   UNL     1       2.658 -12.402  -2.975  0.00  0.00    +0.259 C 
BRANCH  25  26
ATOM     26  C   UNL     1       3.623 -13.175  -2.114  0.00  0.00    +0.006 C 
ATOM     27  C   UNL     1       3.325 -14.389  -1.724  0.00  0.00    +0.007 C 
ENDBRANCH  25  26
ENDBRANCH  24  25
ENDBRANCH  22  24
ENDBRANCH   7  22
BRANCH   1  28
ATOM     28  S   UNL     1       1.001  -2.675  -3.152  0.00  0.00    -0.084 S 
BRANCH  28  29
ATOM     29  C   UNL     1       0.019  -2.089  -1.744  0.00  0.00    +0.077 C 
BRANCH  29  30
ATOM     30  C   UNL     1      -0.188  -0.577  -1.861  0.00  0.00    +0.011 C 
BRANCH  30  32
ATOM     31  C   UNL     1      -1.223   1.429  -0.790  0.00  0.00    +0.004 C 
ATOM     32  C   UNL     1      -1.016  -0.083  -0.673  0.00  0.00    -0.003 C 
ENDBRANCH  30  32
ENDBRANCH  29  30
ENDBRANCH  28  29
ENDBRANCH   1  28
TORSDOF 11
