REMARK  Name = ZINC00888461
REMARK  9 active torsions:
REMARK  status: ('A' for Active; 'I' for Inactive)
REMARK    1  A    between atoms: C_1  and  C_2
REMARK    2  A    between atoms: C_5  and  C_7
REMARK    3  A    between atoms: C_7  and  C_9
REMARK    4  A    between atoms: C_7  and  N_18
REMARK    5  A    between atoms: N_11  and  C_12
REMARK    6  A    between atoms: N_18  and  C_19
REMARK    7  A    between atoms: C_29  and  C_31
REMARK    8  A    between atoms: C_31  and  N_32
REMARK    9  A    between atoms: C_34  and  C_37
REMARK                            x       y       z     vdW  Elec       q    Type
REMARK                         _______ _______ _______ _____ _____    ______ ____
ROOT
ATOM      1  N   UNL     1       3.000  -3.635   0.240  0.00  0.00    -0.251 N 
ATOM      2  C   UNL     1       3.303  -3.993   1.504  0.00  0.00    +0.244 C 
ATOM      3  O   UNL     1       2.425  -4.351   2.260  0.00  0.00    -0.273 OA
ENDROOT
BRANCH   1   4
ATOM      4  C   UNL     1       3.837  -2.756  -0.458  0.00  0.00    +0.041 A 
ATOM      5  C   UNL     1       4.886  -2.126   0.198  0.00  0.00    +0.027 A 
ATOM      6  C   UNL     1       5.711  -1.258  -0.490  0.00  0.00    +0.051 A 
ATOM      7  C   UNL     1       5.495  -1.012  -1.838  0.00  0.00    +0.162 A 
ATOM      8  C   UNL     1       4.447  -1.643  -2.499  0.00  0.00    +0.164 A 
ATOM      9  C   UNL     1       3.621  -2.517  -1.808  0.00  0.00    +0.073 A 
ATOM     10  O   UNL     1       4.223  -1.420  -3.823  0.00  0.00    -0.485 OA
ATOM     11  C   UNL     1       4.840  -0.261  -4.394  0.00  0.00    +0.270 C 
ATOM     12  C   UNL     1       6.302  -0.217  -3.929  0.00  0.00    +0.270 C 
ATOM     13  O   UNL     1       6.316  -0.150  -2.499  0.00  0.00    -0.485 OA
ENDBRANCH   1   4
BRANCH   1  14
ATOM     14  C   UNL     1       1.796  -4.167  -0.402  0.00  0.00    +0.233 C 
BRANCH  14  19
ATOM     15  C   UNL     1       0.200   0.257  -2.226  0.00  0.00    +0.086 C 
ATOM     16  C   UNL     1       0.193  -1.104  -1.579  0.00  0.00    +0.102 A 
ATOM     17  C   UNL     1      -0.889  -1.737  -1.090  0.00  0.00    +0.045 A 
ATOM     18  C   UNL     1      -0.441  -2.977  -0.579  0.00  0.00    +0.047 A 
ATOM     19  C   UNL     1       0.887  -3.028  -0.786  0.00  0.00    +0.135 A 
ATOM     20  O   UNL     1       1.265  -1.893  -1.397  0.00  0.00    -0.462 OA
ENDBRANCH  14  19
BRANCH  14  21
ATOM     21  C   UNL     1       2.184  -4.938  -1.638  0.00  0.00    +0.242 C 
ATOM     22  O   UNL     1       3.352  -5.033  -1.951  0.00  0.00    -0.273 OA
ATOM     23  N   UNL     1       1.234  -5.520  -2.395  0.00  0.00    -0.311 N 
ATOM     24  H   UNL     1       0.300  -5.444  -2.145  0.00  0.00    +0.149 HD
BRANCH  23  25
ATOM     25  C   UNL     1       1.612  -6.269  -3.596  0.00  0.00    +0.073 C 
ATOM     26  C   UNL     1       1.753  -5.305  -4.776  0.00  0.00    +0.022 C 
ATOM     27  C   UNL     1       2.147  -6.087  -6.030  0.00  0.00    +0.002 C 
ATOM     28  C   UNL     1       1.067  -7.123  -6.345  0.00  0.00    +0.000 C 
ATOM     29  C   UNL     1       0.926  -8.088  -5.166  0.00  0.00    +0.002 C 
ATOM     30  C   UNL     1       0.531  -7.306  -3.912  0.00  0.00    +0.022 C 
ENDBRANCH  23  25
ENDBRANCH  14  21
ENDBRANCH   1  14
BRANCH   2  31
ATOM     31  C   UNL     1       4.733  -3.948   1.978  0.00  0.00    +0.264 C 
BRANCH  31  32
ATOM     32  N   UNL     1       5.070  -5.214   2.633  0.00  0.00    -0.154 N 
ATOM     33  N   UNL     1       4.920  -5.467   3.888  0.00  0.00    -0.130 NA
ATOM     34  C   UNL     1       5.330  -6.701   4.102  0.00  0.00    +0.207 A 
ATOM     35  N   UNL     1       5.736  -7.182   2.919  0.00  0.00    -0.108 NA
ATOM     36  N   UNL     1       5.559  -6.250   2.045  0.00  0.00    -0.045 NA
BRANCH  34  37
ATOM     37  C   UNL     1       5.341  -7.419   5.402  0.00  0.00    +0.058 A 
ATOM     38  C   UNL     1       4.879  -6.786   6.554  0.00  0.00    +0.014 A 
ATOM     39  C   UNL     1       4.891  -7.458   7.759  0.00  0.00    +0.001 A 
ATOM     40  C   UNL     1       5.360  -8.758   7.827  0.00  0.00    +0.003 A 
ATOM     41  C   UNL     1       5.820  -9.392   6.688  0.00  0.00    +0.039 A 
ATOM     42  C   UNL     1       5.808  -8.732   5.473  0.00  0.00    +0.134 A 
ATOM     43  F   UNL     1       6.252  -9.354   4.359  0.00  0.00    -0.205 F 
ENDBRANCH  34  37
ENDBRANCH  31  32
ENDBRANCH   2  31
TORSDOF 8
