REMARK  Name = ZINC21529238
REMARK  7 active torsions:
REMARK  status: ('A' for Active; 'I' for Inactive)
REMARK    1  A    between atoms: C_1  and  C_2
REMARK    2  A    between atoms: C_7  and  C_9
REMARK    3  A    between atoms: C_7  and  C_10
REMARK    4  A    between atoms: N_13  and  C_17
REMARK    5  A    between atoms: C_17  and  C_18
REMARK    6  A    between atoms: N_27  and  C_30
REMARK    7  A    between atoms: C_30  and  C_31
REMARK                            x       y       z     vdW  Elec       q    Type
REMARK                         _______ _______ _______ _____ _____    ______ ____
ROOT
ATOM      1  C   UNL     1       0.970  -4.657  -4.537  0.00  0.00    +0.237 C 
ATOM      2  O   UNL     1       1.179  -5.175  -3.461  0.00  0.00    -0.274 OA
ATOM      3  N   UNL     1       1.197  -5.348  -5.673  0.00  0.00    -0.263 N 
ATOM      4  C   UNL     1       1.669  -6.653  -5.609  0.00  0.00    +0.165 A 
ATOM      5  N   UNL     1       1.944  -7.373  -4.542  0.00  0.00    -0.229 NA
ATOM      6  C   UNL     1       2.392  -8.618  -4.635  0.00  0.00    +0.050 A 
ATOM      7  C   UNL     1       2.543  -9.082  -5.904  0.00  0.00    -0.002 A 
ATOM      8  S   UNL     1       2.022  -7.702  -6.881  0.00  0.00    -0.059 S 
ATOM      9  C   UNL     1       3.030 -10.429  -6.313  0.00  0.00    -0.033 C 
ATOM     10  N   UNL     1       3.674 -11.061  -5.144  0.00  0.00    +0.386 N 
ATOM     11  C   UNL     1       2.782 -10.968  -3.982  0.00  0.00    -0.072 C 
ATOM     12  C   UNL     1       2.730  -9.528  -3.461  0.00  0.00    +0.038 C 
ATOM     13  H   UNL     1       1.030  -4.933  -6.534  0.00  0.00    +0.157 HD
ATOM     14  H   UNL     1       4.541 -10.587  -4.941  0.00  0.00    -0.081 HD
ENDROOT
BRANCH   1  15
ATOM     15  C   UNL     1       0.458  -3.241  -4.606  0.00  0.00    +0.214 C 
BRANCH  15  27
ATOM     16  C   UNL     1      -0.061   1.649   0.498  0.00  0.00    +0.007 C 
ATOM     17  C   UNL     1      -0.046   0.132   0.299  0.00  0.00    -0.011 C 
ATOM     18  C   UNL     1       0.612  -0.200  -1.042  0.00  0.00    +0.038 C 
ATOM     19  C   UNL     1       0.646  -1.713  -1.232  0.00  0.00    +0.113 C 
ATOM     20  C   UNL     1       1.417  -2.381  -0.099  0.00  0.00    +0.041 C 
ATOM     21  C   UNL     1       0.756  -2.041   1.240  0.00  0.00    -0.032 C 
ATOM     22  C   UNL     1       0.748  -0.523   1.431  0.00  0.00    +0.009 C 
ATOM     23  C   UNL     1      -0.682  -2.564   1.246  0.00  0.00    +0.011 C 
ATOM     24  C   UNL     1       1.542  -2.695   2.378  0.00  0.00    +0.011 C 
ATOM     25  C   UNL     1       1.261  -2.063  -2.567  0.00  0.00    +0.247 C 
ATOM     26  O   UNL     1       2.385  -1.813  -2.946  0.00  0.00    -0.273 OA
ATOM     27  N   UNL     1       0.296  -2.715  -3.249  0.00  0.00    -0.215 N 
ATOM     28  C   UNL     1      -0.829  -2.819  -2.531  0.00  0.00    +0.310 C 
ATOM     29  O   UNL     1      -1.838  -3.366  -2.931  0.00  0.00    -0.252 OA
ATOM     30  N   UNL     1      -0.717  -2.252  -1.315  0.00  0.00    -0.285 N 
ATOM     31  H   UNL     1      -1.402  -2.208  -0.629  0.00  0.00    +0.151 HD
ENDBRANCH  15  27
ENDBRANCH   1  15
BRANCH  10  32
ATOM     32  C   UNL     1       3.947 -12.474  -5.440  0.00  0.00    -0.043 C 
BRANCH  32  33
ATOM     33  C   UNL     1       4.959 -12.568  -6.553  0.00  0.00    -0.064 A 
ATOM     34  C   UNL     1       4.538 -12.607  -7.869  0.00  0.00    +0.002 A 
ATOM     35  C   UNL     1       5.466 -12.693  -8.889  0.00  0.00    +0.000 A 
ATOM     36  C   UNL     1       6.816 -12.739  -8.594  0.00  0.00    +0.000 A 
ATOM     37  C   UNL     1       7.237 -12.699  -7.278  0.00  0.00    +0.000 A 
ATOM     38  C   UNL     1       6.309 -12.608  -6.257  0.00  0.00    +0.002 A 
ENDBRANCH  32  33
ENDBRANCH  10  32
TORSDOF 4
