REMARK  Name = ZINC03438576
REMARK  11 active torsions:
REMARK  status: ('A' for Active; 'I' for Inactive)
REMARK    1  A    between atoms: C_1  and  C_2
REMARK    2  A    between atoms: C_2  and  C_3
REMARK    3  A    between atoms: C_3  and  C_5
REMARK    4  A    between atoms: C_3  and  N_64
REMARK    5  A    between atoms: C_8  and  S_18
REMARK    6  A    between atoms: N_9  and  C_10
REMARK    7  A    between atoms: C_13  and  O_16
REMARK    8  A    between atoms: O_16  and  C_17
REMARK    9  A    between atoms: S_18  and  C_19
REMARK   10  A    between atoms: C_33  and  N_64
REMARK   11  A    between atoms: C_34  and  N_64
REMARK                            x       y       z     vdW  Elec       q    Type
REMARK                         _______ _______ _______ _____ _____    ______ ____
ROOT
ATOM      1  C   UNL     1       2.821   6.198   0.241  0.00  0.00    +0.125 A 
ATOM      2  N   UNL     1       1.692   5.550   0.184  0.00  0.00    -0.135 NA
ATOM      3  N   UNL     1       1.887   4.300   0.413  0.00  0.00    -0.122 NA
ATOM      4  C   UNL     1       3.161   4.081   0.640  0.00  0.00    +0.202 A 
ATOM      5  N   UNL     1       3.799   5.286   0.534  0.00  0.00    -0.275 N 
ENDROOT
BRANCH   5   6
ATOM      6  C   UNL     1       5.171   5.535   0.691  0.00  0.00    +0.050 A 
ATOM      7  C   UNL     1       5.617   6.332   1.736  0.00  0.00    +0.030 A 
ATOM      8  C   UNL     1       6.968   6.572   1.894  0.00  0.00    +0.047 A 
ATOM      9  C   UNL     1       7.878   6.026   1.001  0.00  0.00    +0.120 A 
ATOM     10  C   UNL     1       7.433   5.235  -0.047  0.00  0.00    +0.047 A 
ATOM     11  C   UNL     1       6.083   4.989  -0.202  0.00  0.00    +0.030 A 
BRANCH   9  12
ATOM     12  O   UNL     1       9.208   6.268   1.154  0.00  0.00    -0.495 OA
ATOM     13  C   UNL     1       9.595   7.091   2.255  0.00  0.00    +0.277 C 
ENDBRANCH   9  12
ENDBRANCH   5   6
BRANCH   1  14
ATOM     14  C   UNL     1       3.015   7.676   0.025  0.00  0.00    +0.000 C 
BRANCH  14  17
ATOM     15  C   UNL     1       0.732   8.033   0.748  0.00  0.00    -0.096 C 
ATOM     16  C   UNL     1       2.550   8.245   2.332  0.00  0.00    -0.096 C 
ATOM     17  N   UNL     1       2.138   8.451   0.928  0.00  0.00    +0.383 N 
ATOM     18  H   UNL     1       2.221   9.449   0.699  0.00  0.00    -0.082 HD
ENDBRANCH  14  17
BRANCH  14  20
ATOM     19  C   UNL     1       2.937   9.517  -1.662  0.00  0.00    +0.002 C 
ATOM     20  C   UNL     1       2.670   8.030  -1.423  0.00  0.00    -0.011 C 
ENDBRANCH  14  20
ENDBRANCH   1  14
BRANCH   4  21
ATOM     21  S   UNL     1       3.908   2.528   1.005  0.00  0.00    -0.029 S 
BRANCH  21  22
ATOM     22  C   UNL     1       2.486   1.488   0.971  0.00  0.00    +0.116 A 
ATOM     23  C   UNL     1       2.606   0.092   1.219  0.00  0.00    +0.043 A 
ATOM     24  C   UNL     1       3.816  -0.680   1.525  0.00  0.00    -0.025 A 
ATOM     25  C   UNL     1       3.656  -2.005   1.714  0.00  0.00    -0.004 A 
ATOM     26  S   UNL     1       1.918  -2.300   1.508  0.00  0.00    -0.073 S 
ATOM     27  C   UNL     1       1.404  -0.639   1.163  0.00  0.00    +0.113 A 
ATOM     28  N   UNL     1       0.252  -0.053   0.899  0.00  0.00    -0.228 NA
ATOM     29  C   UNL     1       0.202   1.247   0.678  0.00  0.00    +0.223 A 
ATOM     30  N   UNL     1       1.290   1.995   0.713  0.00  0.00    -0.228 NA
ATOM     31  C   UNL     1       4.713  -3.022   2.017  0.00  0.00    +0.043 C 
ATOM     32  C   UNL     1       5.590  -2.515   3.169  0.00  0.00    +0.005 C 
ATOM     33  C   UNL     1       6.744  -1.713   2.575  0.00  0.00    +0.001 C 
ATOM     34  C   UNL     1       6.285  -0.998   1.306  0.00  0.00    +0.005 C 
ATOM     35  C   UNL     1       5.178  -0.001   1.627  0.00  0.00    +0.037 C 
ENDBRANCH  21  22
ENDBRANCH   4  21
TORSDOF 7
