REMARK  Name = ZINC08837685
REMARK  10 active torsions:
REMARK  status: ('A' for Active; 'I' for Inactive)
REMARK    1  A    between atoms: C_1  and  C_2
REMARK    2  A    between atoms: C_2  and  C_23
REMARK    3  A    between atoms: N_3  and  N_4
REMARK    4  A    between atoms: C_5  and  C_7
REMARK    5  A    between atoms: C_7  and  S_8
REMARK    6  A    between atoms: S_8  and  C_9
REMARK    7  A    between atoms: C_12  and  S_14
REMARK    8  A    between atoms: S_14  and  C_15
REMARK    9  A    between atoms: C_15  and  C_16
REMARK   10  A    between atoms: C_26  and  N_29
REMARK                            x       y       z     vdW  Elec       q    Type
REMARK                         _______ _______ _______ _____ _____    ______ ____
ROOT
ATOM      1  N   UNL     1      -0.011   0.966   0.007  0.00  0.00    -0.206 N 
ATOM      2  C   UNL     1      -1.187   1.624   0.017  0.00  0.00    +0.242 C 
ATOM      3  O   UNL     1      -1.204   2.837   0.023  0.00  0.00    -0.273 OA
ATOM      4  H   UNL     1       0.002  -0.004   0.002  0.00  0.00    +0.177 HD
ENDROOT
BRANCH   1   7
ATOM      5  C   UNL     1       2.345  -0.458  -0.023  0.00  0.00    +0.068 C 
ATOM      6  C   UNL     1       2.325   1.049  -0.015  0.00  0.00    +0.063 C 
ATOM      7  N   UNL     1       1.193   1.683  -0.000  0.00  0.00    -0.185 NA
BRANCH   6   8
ATOM      8  C   UNL     1       3.592   1.804  -0.022  0.00  0.00    -0.002 A 
ATOM      9  C   UNL     1       4.813   1.125  -0.032  0.00  0.00    +0.012 A 
ATOM     10  C   UNL     1       5.994   1.838  -0.045  0.00  0.00    +0.033 A 
ATOM     11  C   UNL     1       5.971   3.221  -0.037  0.00  0.00    +0.126 A 
ATOM     12  C   UNL     1       4.766   3.900  -0.022  0.00  0.00    +0.033 A 
ATOM     13  C   UNL     1       3.577   3.201  -0.015  0.00  0.00    +0.012 A 
BRANCH  11  14
ATOM     14  N   UNL     1       7.243   3.979  -0.045  0.00  0.00    +0.056 N 
ATOM     15  O   UNL     1       7.227   5.197  -0.038  0.00  0.00    -0.126 OA
ATOM     16  O   UNL     1       8.306   3.384  -0.059  0.00  0.00    -0.126 OA
ENDBRANCH  11  14
ENDBRANCH   6   8
ENDBRANCH   1   7
BRANCH   2  17
ATOM     17  C   UNL     1      -2.482   0.853   0.018  0.00  0.00    +0.173 C 
BRANCH  17  18
ATOM     18  S   UNL     1      -3.877   2.013   0.031  0.00  0.00    -0.088 S 
BRANCH  18  19
ATOM     19  C   UNL     1      -5.298   0.971   0.033  0.00  0.00    +0.160 A 
ATOM     20  N   UNL     1      -5.368  -0.347   0.026  0.00  0.00    -0.134 NA
ATOM     21  N   UNL     1      -6.597  -0.966   0.029  0.00  0.00    -0.134 NA
ATOM     22  C   UNL     1      -7.698  -0.240   0.038  0.00  0.00    +0.160 A 
ATOM     23  S   UNL     1      -7.027   1.416   0.050  0.00  0.00    -0.033 S 
BRANCH  22  24
ATOM     24  S   UNL     1      -9.380  -0.763   0.044  0.00  0.00    -0.092 S 
BRANCH  24  25
ATOM     25  C   UNL     1      -9.277  -2.574   0.034  0.00  0.00    +0.111 C 
BRANCH  25  26
ATOM     26  C   UNL     1     -10.667  -3.157   0.038  0.00  0.00    -0.037 A 
ATOM     27  C   UNL     1     -11.295  -3.436   1.237  0.00  0.00    +0.006 A 
ATOM     28  C   UNL     1     -12.572  -3.965   1.242  0.00  0.00    +0.020 A 
ATOM     29  C   UNL     1     -13.217  -4.226   0.046  0.00  0.00    +0.041 A 
ATOM     30  C   UNL     1     -12.585  -3.952  -1.154  0.00  0.00    +0.020 A 
ATOM     31  C   UNL     1     -11.310  -3.418  -1.157  0.00  0.00    +0.006 A 
ATOM     32 CL   UNL     1     -14.818  -4.897   0.051  0.00  0.00    -0.084 Cl
ENDBRANCH  25  26
ENDBRANCH  24  25
ENDBRANCH  22  24
ENDBRANCH  18  19
ENDBRANCH  17  18
ENDBRANCH   2  17
TORSDOF 9
