REMARK  Name = ZINC53113290
REMARK  7 active torsions:
REMARK  status: ('A' for Active; 'I' for Inactive)
REMARK    1  A    between atoms: C_1  and  C_2
REMARK    2  A    between atoms: C_7  and  C_9
REMARK    3  A    between atoms: C_7  and  N_11
REMARK    4  A    between atoms: C_9  and  O_10
REMARK    5  A    between atoms: N_11  and  S_12
REMARK    6  A    between atoms: S_12  and  C_15
REMARK    7  A    between atoms: C_20  and  N_21
REMARK                            x       y       z     vdW  Elec       q    Type
REMARK                         _______ _______ _______ _____ _____    ______ ____
ROOT
ATOM      1  S   UNL     1       1.714  -3.911  -0.510  0.00  0.00    +0.061 S 
ATOM      2  O   UNL     1       0.616  -4.492   0.180  0.00  0.00    -0.153 OA
ATOM      3  O   UNL     1       1.931  -4.109  -1.900  0.00  0.00    -0.153 OA
ENDROOT
BRANCH   1   4
ATOM      4  C   UNL     1       3.173  -4.463   0.311  0.00  0.00    +0.126 A 
ATOM      5  C   UNL     1       3.086  -5.410   1.312  0.00  0.00    +0.033 A 
ATOM      6  C   UNL     1       4.229  -5.845   1.957  0.00  0.00    +0.040 A 
ATOM      7  C   UNL     1       5.465  -5.332   1.601  0.00  0.00    +0.125 A 
ATOM      8  C   UNL     1       5.558  -4.383   0.599  0.00  0.00    +0.063 A 
ATOM      9  C   UNL     1       4.411  -3.950  -0.053  0.00  0.00    +0.054 A 
ATOM     10  F   UNL     1       6.580  -5.758   2.233  0.00  0.00    -0.205 F 
BRANCH   9  11
ATOM     11  N   UNL     1       4.502  -2.996  -1.070  0.00  0.00    -0.356 N 
ATOM     12  H   UNL     1       3.696  -2.633  -1.468  0.00  0.00    +0.142 HD
ATOM     13  H   UNL     1       5.372  -2.697  -1.377  0.00  0.00    +0.142 HD
ENDBRANCH   9  11
ENDBRANCH   1   4
BRANCH   1  14
ATOM     14  N   UNL     1       1.610  -2.276  -0.275  0.00  0.00    -0.182 NA
ATOM     15  H   UNL     1       1.954  -1.666  -0.947  0.00  0.00    +0.149 HD
BRANCH  14  21
ATOM     16  C   UNL     1       0.496   1.875  -0.256  0.00  0.00    +0.007 C 
ATOM     17  C   UNL     1       0.385   0.349  -0.265  0.00  0.00    -0.012 C 
ATOM     18  C   UNL     1      -1.090  -0.055  -0.219  0.00  0.00    +0.003 C 
ATOM     19  C   UNL     1      -1.202  -1.581  -0.229  0.00  0.00    +0.002 C 
ATOM     20  C   UNL     1      -0.478  -2.152   0.992  0.00  0.00    +0.026 C 
ATOM     21  C   UNL     1       0.997  -1.749   0.947  0.00  0.00    +0.063 C 
ATOM     22  C   UNL     1       1.108  -0.223   0.956  0.00  0.00    +0.029 C 
BRANCH  21  23
ATOM     23  C   UNL     1       1.720  -2.320   2.167  0.00  0.00    +0.179 C 
BRANCH  23  24
ATOM     24  O   UNL     1       1.476  -3.726   2.251  0.00  0.00    -0.393 OA
ATOM     25  H   UNL     1       1.905  -4.156   3.003  0.00  0.00    +0.209 HD
ENDBRANCH  23  24
ENDBRANCH  21  23
ENDBRANCH  14  21
ENDBRANCH   1  14
TORSDOF 6
