REMARK  Name = ZINC12752168
REMARK  11 active torsions:
REMARK  status: ('A' for Active; 'I' for Inactive)
REMARK    1  A    between atoms: C_1  and  C_2
REMARK    2  A    between atoms: C_2  and  O_3
REMARK    3  A    between atoms: O_3  and  C_4
REMARK    4  A    between atoms: C_7  and  C_13
REMARK    5  A    between atoms: C_9  and  O_10
REMARK    6  A    between atoms: O_10  and  C_11
REMARK    7  A    between atoms: C_11  and  C_12
REMARK    8  A    between atoms: C_13  and  C_15
REMARK    9  A    between atoms: C_20  and  C_21
REMARK   10  A    between atoms: N_23  and  C_24
REMARK   11  A    between atoms: C_24  and  C_25
REMARK                            x       y       z     vdW  Elec       q    Type
REMARK                         _______ _______ _______ _____ _____    ______ ____
ROOT
ATOM      1  C   UNL     1       3.222  -1.180   5.052  0.00  0.00    +0.034 A 
ATOM      2  C   UNL     1       2.517  -0.764   6.179  0.00  0.00    +0.012 A 
ATOM      3  C   UNL     1       2.976  -1.093   7.441  0.00  0.00    +0.001 A 
ATOM      4  C   UNL     1       4.140  -1.825   7.593  0.00  0.00    +0.001 A 
ATOM      5  C   UNL     1       4.856  -2.241   6.486  0.00  0.00    +0.014 A 
ATOM      6  C   UNL     1       4.406  -1.924   5.208  0.00  0.00    +0.047 A 
ENDROOT
BRANCH   6   7
ATOM      7  C   UNL     1       5.168  -2.367   4.020  0.00  0.00    +0.245 C 
ATOM      8  O   UNL     1       4.832  -2.000   2.911  0.00  0.00    -0.270 OA
ATOM      9  N   UNL     1       6.236  -3.176   4.167  0.00  0.00    -0.307 N 
ATOM     10  H   UNL     1       6.504  -3.469   5.053  0.00  0.00    +0.149 HD
BRANCH   9  11
ATOM     11  C   UNL     1       6.991  -3.615   2.991  0.00  0.00    +0.140 C 
BRANCH  11  12
ATOM     12  C   UNL     1       8.126  -4.505   3.426  0.00  0.00    -0.026 A 
ATOM     13  C   UNL     1       7.951  -5.879   3.530  0.00  0.00    +0.023 A 
ATOM     14  C   UNL     1       9.011  -6.667   3.931  0.00  0.00    +0.084 A 
ATOM     15  C   UNL     1      10.390  -4.827   4.127  0.00  0.00    +0.099 A 
ATOM     16  C   UNL     1       9.367  -3.974   3.724  0.00  0.00    +0.047 A 
ATOM     17  N   UNL     1      11.641  -4.305   4.434  0.00  0.00    -0.317 N 
ATOM     18  C   UNL     1      11.563  -3.385   5.598  0.00  0.00    +0.106 C 
ATOM     19  C   UNL     1      13.025  -3.335   6.109  0.00  0.00    +0.020 C 
ATOM     20  C   UNL     1      13.513  -4.787   5.904  0.00  0.00    +0.020 C 
ATOM     21  C   UNL     1      12.579  -5.378   4.831  0.00  0.00    +0.106 C 
ATOM     22  N   UNL     1      10.243  -6.179   4.237  0.00  0.00    -0.350 N 
ATOM     23  H   UNL     1      11.014  -6.789   4.533  0.00  0.00    +0.166 HD
ENDBRANCH  11  12
ENDBRANCH   9  11
ENDBRANCH   6   7
BRANCH   1  24
ATOM     24  C   UNL     1       2.732  -0.835   3.700  0.00  0.00    +0.194 C 
ATOM     25  O   UNL     1       2.885   0.291   3.267  0.00  0.00    -0.287 OA
BRANCH  24  29
ATOM     26  C   UNL     1       0.788  -3.781   1.336  0.00  0.00    +0.162 A 
ATOM     27  C   UNL     1       1.340  -4.129   2.562  0.00  0.00    +0.050 A 
ATOM     28  C   UNL     1       1.970  -3.176   3.332  0.00  0.00    +0.015 A 
ATOM     29  C   UNL     1       2.059  -1.857   2.877  0.00  0.00    +0.026 A 
ATOM     30  C   UNL     1       1.508  -1.508   1.639  0.00  0.00    +0.061 A 
ATOM     31  C   UNL     1       0.878  -2.469   0.873  0.00  0.00    +0.163 A 
BRANCH  26  32
ATOM     32  O   UNL     1       0.164  -4.723   0.583  0.00  0.00    -0.489 OA
BRANCH  32  34
ATOM     33  C   UNL     1      -0.628  -6.962   0.135  0.00  0.00    +0.048 C 
ATOM     34  C   UNL     1       0.107  -6.048   1.117  0.00  0.00    +0.226 C 
ENDBRANCH  32  34
ENDBRANCH  26  32
BRANCH  31  35
ATOM     35  O   UNL     1       0.340  -2.133  -0.330  0.00  0.00    -0.489 OA
BRANCH  35  36
ATOM     36  C   UNL     1       0.464  -0.770  -0.739  0.00  0.00    +0.226 C 
ATOM     37  C   UNL     1      -0.195  -0.585  -2.107  0.00  0.00    +0.048 C 
ENDBRANCH  35  36
ENDBRANCH  31  35
ENDBRANCH  24  29
ENDBRANCH   1  24
TORSDOF 9
