REMARK  Name = ZINC09946370
REMARK  8 active torsions:
REMARK  status: ('A' for Active; 'I' for Inactive)
REMARK    1  A    between atoms: C_7  and  C_11
REMARK    2  A    between atoms: C_11  and  C_13
REMARK    3  A    between atoms: C_13  and  S_14
REMARK    4  A    between atoms: S_14  and  C_15
REMARK    5  A    between atoms: C_18  and  C_30
REMARK    6  A    between atoms: N_19  and  C_20
REMARK    7  A    between atoms: C_25  and  C_26
REMARK    8  A    between atoms: C_30  and  N_59
REMARK                            x       y       z     vdW  Elec       q    Type
REMARK                         _______ _______ _______ _____ _____    ______ ____
ROOT
ATOM      1  C   UNL     1       1.367   2.649   0.091  0.00  0.00    +0.196 A 
ATOM      2  N   UNL     1       2.175   1.659  -0.211  0.00  0.00    -0.122 NA
ATOM      3  N   UNL     1       3.394   2.063  -0.176  0.00  0.00    -0.135 NA
ATOM      4  C   UNL     1       3.440   3.322   0.155  0.00  0.00    +0.122 A 
ATOM      5  N   UNL     1       2.150   3.743   0.338  0.00  0.00    -0.275 N 
ENDROOT
BRANCH   5   6
ATOM      6  C   UNL     1       1.720   5.027   0.702  0.00  0.00    +0.062 A 
ATOM      7  C   UNL     1       1.634   5.378   2.043  0.00  0.00    +0.027 A 
ATOM      8  C   UNL     1       1.211   6.643   2.399  0.00  0.00    +0.002 A 
ATOM      9  C   UNL     1       0.874   7.561   1.421  0.00  0.00    +0.001 A 
ATOM     10  C   UNL     1       0.959   7.215   0.086  0.00  0.00    +0.014 A 
ATOM     11  C   UNL     1       1.386   5.953  -0.277  0.00  0.00    +0.079 A 
BRANCH  11  12
ATOM     12  C   UNL     1       1.485   5.579  -1.733  0.00  0.00    +0.419 C 
ATOM     13  F   UNL     1       1.099   6.668  -2.522  0.00  0.00    -0.166 F 
ATOM     14  F   UNL     1       2.805   5.228  -2.036  0.00  0.00    -0.166 F 
ATOM     15  F   UNL     1       0.643   4.493  -1.994  0.00  0.00    -0.166 F 
ENDBRANCH  11  12
ENDBRANCH   5   6
BRANCH   1  16
ATOM     16  S   UNL     1      -0.392   2.579   0.169  0.00  0.00    -0.078 S 
BRANCH  16  17
ATOM     17  C   UNL     1      -0.659   0.845  -0.276  0.00  0.00    +0.157 C 
BRANCH  17  18
ATOM     18  C   UNL     1      -2.136   0.547  -0.274  0.00  0.00    +0.175 C 
ATOM     19  O   UNL     1      -2.931   1.422   0.002  0.00  0.00    -0.291 OA
BRANCH  18  26
ATOM     20  C   UNL     1      -6.389  -1.322  -0.534  0.00  0.00    +0.001 A 
ATOM     21  C   UNL     1      -6.342  -2.661  -0.893  0.00  0.00    +0.002 A 
ATOM     22  C   UNL     1      -5.135  -3.284  -1.125  0.00  0.00    +0.026 A 
ATOM     23  C   UNL     1      -3.949  -2.567  -1.001  0.00  0.00    +0.047 A 
ATOM     24  C   UNL     1      -3.999  -1.212  -0.638  0.00  0.00    +0.010 A 
ATOM     25  C   UNL     1      -5.226  -0.596  -0.406  0.00  0.00    +0.011 A 
ATOM     26  C   UNL     1      -2.597  -0.754  -0.594  0.00  0.00    +0.043 A 
ATOM     27  C   UNL     1      -1.825  -1.846  -0.933  0.00  0.00    +0.095 A 
ATOM     28  N   UNL     1      -2.621  -2.907  -1.165  0.00  0.00    -0.360 N 
ATOM     29  H   UNL     1      -2.305  -3.789  -1.416  0.00  0.00    +0.165 HD
ENDBRANCH  18  26
ENDBRANCH  17  18
ENDBRANCH  16  17
ENDBRANCH   1  16
BRANCH   4  30
ATOM     30  C   UNL     1       4.683   4.160   0.309  0.00  0.00    -0.001 C 
BRANCH  30  36
ATOM     31  C   UNL     1       5.634   3.611  -1.849  0.00  0.00    -0.078 C 
ATOM     32  C   UNL     1       5.909   4.156  -3.252  0.00  0.00    -0.019 C 
ATOM     33  C   UNL     1       6.904   5.316  -3.158  0.00  0.00    -0.004 C 
ATOM     34  C   UNL     1       6.333   6.395  -2.234  0.00  0.00    -0.019 C 
ATOM     35  C   UNL     1       6.046   5.784  -0.860  0.00  0.00    -0.078 C 
ATOM     36  N   UNL     1       5.063   4.691  -1.017  0.00  0.00    +0.384 N 
ATOM     37  H   UNL     1       4.225   5.061  -1.481  0.00  0.00    -0.081 HD
ENDBRANCH  30  36
ENDBRANCH   4  30
TORSDOF 8
