REMARK  Name = ZINC04173447
REMARK  5 active torsions:
REMARK  status: ('A' for Active; 'I' for Inactive)
REMARK    1  A    between atoms: C_1  and  C_2
REMARK    2  A    between atoms: C_9  and  N_14
REMARK    3  A    between atoms: C_10  and  C_11
REMARK    4  A    between atoms: C_15  and  C_17
REMARK    5  A    between atoms: C_23  and  C_25
REMARK                            x       y       z     vdW  Elec       q    Type
REMARK                         _______ _______ _______ _____ _____    ______ ____
ROOT
ATOM      1  C   UNL     1       0.137   1.129  -2.453  0.00  0.00    +0.008 C 
ATOM      2  C   UNL     1      -0.640   1.301  -1.147  0.00  0.00    -0.009 C 
ATOM      3  C   UNL     1       0.006   0.452  -0.049  0.00  0.00    +0.008 C 
ATOM      4  C   UNL     1      -0.607   0.804   1.308  0.00  0.00    +0.037 C 
ATOM      5  C   UNL     1      -2.122   0.708   1.203  0.00  0.00    -0.023 A 
ATOM      6  C   UNL     1      -2.738   0.724   0.001  0.00  0.00    -0.004 A 
ATOM      7  S   UNL     1      -4.463   0.589   0.374  0.00  0.00    -0.077 S 
ATOM      8  C   UNL     1      -4.370   0.512   2.103  0.00  0.00    +0.084 A 
ATOM      9  C   UNL     1      -3.007   0.593   2.350  0.00  0.00    +0.068 A 
ATOM     10  C   UNL     1      -2.089   0.833  -1.345  0.00  0.00    +0.046 C 
ENDROOT
BRANCH   9  11
ATOM     11  C   UNL     1      -2.479   0.563   3.717  0.00  0.00    +0.244 C 
ATOM     12  O   UNL     1      -2.330   1.601   4.335  0.00  0.00    -0.270 OA
ATOM     13  N   UNL     1      -2.158  -0.614   4.290  0.00  0.00    -0.325 N 
ATOM     14  H   UNL     1      -2.276  -1.441   3.797  0.00  0.00    +0.145 HD
ATOM     15  H   UNL     1      -1.808  -0.634   5.195  0.00  0.00    +0.145 HD
ENDBRANCH   9  11
BRANCH   8  16
ATOM     16  N   UNL     1      -5.406   0.399   3.017  0.00  0.00    -0.279 N 
ATOM     17  C   UNL     1      -6.681   0.334   2.586  0.00  0.00    +0.222 C 
ATOM     18  O   UNL     1      -6.923   0.373   1.398  0.00  0.00    -0.275 OA
ATOM     19  H   UNL     1      -5.213   0.368   3.967  0.00  0.00    +0.155 HD
BRANCH  17  20
ATOM     20  C   UNL     1      -7.807   0.210   3.580  0.00  0.00    +0.093 C 
ATOM     21  C   UNL     1      -8.875  -0.739   3.033  0.00  0.00    +0.040 C 
ATOM     22  C   UNL     1      -9.594  -0.099   1.881  0.00  0.00    -0.030 C 
ATOM     23  C   UNL     1      -9.571   1.170   1.627  0.00  0.00    -0.030 C 
ATOM     24  C   UNL     1      -8.815   2.177   2.442  0.00  0.00    +0.042 C 
ATOM     25  C   UNL     1      -8.449   1.585   3.805  0.00  0.00    +0.118 C 
BRANCH  25  26
ATOM     26  C   UNL     1      -7.471   2.493   4.505  0.00  0.00    +0.360 C 
ATOM     27  O   UNL     1      -6.372   2.086   4.797  0.00  0.00    -0.246 OA
ATOM     28  O   UNL     1      -7.822   3.753   4.805  0.00  0.00    -0.246 OA
ENDBRANCH  25  26
ENDBRANCH  17  20
ENDBRANCH   8  16
TORSDOF 4
