REMARK  Name = ZINC40755648
REMARK  6 active torsions:
REMARK  status: ('A' for Active; 'I' for Inactive)
REMARK    1  A    between atoms: C_1  and  C_2
REMARK    2  A    between atoms: C_2  and  C_4
REMARK    3  A    between atoms: C_2  and  N_10
REMARK    4  A    between atoms: C_12  and  N_28
REMARK    5  A    between atoms: C_13  and  N_17
REMARK    6  A    between atoms: N_17  and  C_18
REMARK                            x       y       z     vdW  Elec       q    Type
REMARK                         _______ _______ _______ _____ _____    ______ ____
ROOT
ATOM      1  N   UNL     1       0.711  -0.489   1.189  0.00  0.00    -0.321 N 
ATOM      2  C   UNL     1       2.096  -0.603   1.173  0.00  0.00    +0.145 A 
ATOM      3  C   UNL     1       2.781  -1.070   2.296  0.00  0.00    +0.105 A 
ATOM      4  C   UNL     1       4.172  -1.165   2.227  0.00  0.00    +0.145 A 
ATOM      5  N   UNL     1       4.787  -0.810   1.101  0.00  0.00    -0.219 NA
ATOM      6  C   UNL     1       4.102  -0.375   0.063  0.00  0.00    +0.225 A 
ATOM      7  N   UNL     1       2.788  -0.274   0.086  0.00  0.00    -0.219 NA
ATOM      8  H   UNL     1       0.213  -0.731   1.986  0.00  0.00    +0.148 HD
ENDROOT
BRANCH   3   9
ATOM      9  N   UNL     1       2.091  -1.433   3.464  0.00  0.00    -0.353 N 
ATOM     10  H   UNL     1       1.124  -1.361   3.498  0.00  0.00    +0.143 HD
ATOM     11  H   UNL     1       2.580  -1.756   4.237  0.00  0.00    +0.143 HD
ENDBRANCH   3   9
BRANCH   1  13
ATOM     12  C   UNL     1      -0.019   1.526   0.010  0.00  0.00    +0.033 C 
ATOM     13  C   UNL     1       0.002  -0.004   0.002  0.00  0.00    +0.099 C 
BRANCH  13  14
ATOM     14  C   UNL     1      -1.412  -0.526   0.013  0.00  0.00    -0.028 A 
ATOM     15  C   UNL     1      -2.123  -0.571   1.197  0.00  0.00    +0.005 A 
ATOM     16  C   UNL     1      -3.420  -1.049   1.207  0.00  0.00    +0.000 A 
ATOM     17  C   UNL     1      -4.006  -1.482   0.032  0.00  0.00    +0.000 A 
ATOM     18  C   UNL     1      -3.295  -1.436  -1.153  0.00  0.00    +0.000 A 
ATOM     19  C   UNL     1      -2.000  -0.954  -1.163  0.00  0.00    +0.005 A 
ENDBRANCH  13  14
ENDBRANCH   1  13
BRANCH   4  20
ATOM     20  N   UNL     1       4.903  -1.623   3.316  0.00  0.00    -0.322 N 
ATOM     21  H   UNL     1       4.447  -1.880   4.133  0.00  0.00    +0.148 HD
BRANCH  20  22
ATOM     22  C   UNL     1       6.363  -1.719   3.231  0.00  0.00    +0.034 C 
ATOM     23  C   UNL     1       6.949  -0.334   2.949  0.00  0.00    +0.029 C 
ATOM     24  C   UNL     1       8.473  -0.434   2.860  0.00  0.00    -0.008 C 
ATOM     25  C   UNL     1       9.028  -0.962   4.184  0.00  0.00    +0.007 C 
ATOM     26  C   UNL     1       8.441  -2.347   4.467  0.00  0.00    -0.008 C 
ATOM     27  C   UNL     1       6.917  -2.247   4.556  0.00  0.00    +0.029 C 
ATOM     28  C   UNL     1       8.825  -3.304   3.336  0.00  0.00    +0.007 C 
ATOM     29  C   UNL     1       8.270  -2.776   2.011  0.00  0.00    -0.008 C 
ATOM     30  C   UNL     1       8.856  -1.391   1.729  0.00  0.00    +0.007 C 
ATOM     31  C   UNL     1       6.746  -2.676   2.100  0.00  0.00    +0.029 C 
ENDBRANCH  20  22
ENDBRANCH   4  20
TORSDOF 5
