REMARK  Name = ZINC35694936
REMARK  11 active torsions:
REMARK  status: ('A' for Active; 'I' for Inactive)
REMARK    1  A    between atoms: C_1  and  C_2
REMARK    2  A    between atoms: C_5  and  N_8
REMARK    3  A    between atoms: C_10  and  C_31
REMARK    4  A    between atoms: C_14  and  C_16
REMARK    5  A    between atoms: C_16  and  N_17
REMARK    6  A    between atoms: N_17  and  C_18
REMARK    7  A    between atoms: C_18  and  C_19
REMARK    8  A    between atoms: C_19  and  N_20
REMARK    9  A    between atoms: N_20  and  C_21
REMARK   10  A    between atoms: N_20  and  C_22
REMARK   11  A    between atoms: C_23  and  C_25
REMARK                            x       y       z     vdW  Elec       q    Type
REMARK                         _______ _______ _______ _____ _____    ______ ____
ROOT
ATOM      1  N   UNL     1       2.908  -1.745  -0.822  0.00  0.00    -0.287 N 
ATOM      2  C   UNL     1       2.372  -2.163  -2.016  0.00  0.00    +0.122 A 
ATOM      3  C   UNL     1       2.306  -3.517  -1.964  0.00  0.00    +0.091 A 
ATOM      4  N   UNL     1       2.791  -3.914  -0.768  0.00  0.00    -0.214 NA
ATOM      5  C   UNL     1       3.159  -2.862  -0.080  0.00  0.00    +0.207 A 
ATOM      6  N   UNL     1       3.709  -2.880   1.195  0.00  0.00    -0.254 N 
ATOM      7  C   UNL     1       3.907  -4.054   1.826  0.00  0.00    +0.237 C 
ATOM      8  O   UNL     1       3.606  -5.095   1.281  0.00  0.00    -0.274 OA
ATOM      9  H   UNL     1       3.950  -2.048   1.631  0.00  0.00    +0.158 HD
ENDROOT
BRANCH   1  14
ATOM     10  C   UNL     1       3.917   3.622   0.723  0.00  0.00    +0.044 C 
ATOM     11  C   UNL     1       3.649   2.197   0.313  0.00  0.00    -0.050 A 
ATOM     12  C   UNL     1       4.091   1.737  -0.914  0.00  0.00    +0.005 A 
ATOM     13  C   UNL     1       3.848   0.432  -1.293  0.00  0.00    +0.026 A 
ATOM     14  C   UNL     1       3.158  -0.420  -0.440  0.00  0.00    +0.049 A 
ATOM     15  C   UNL     1       2.715   0.044   0.791  0.00  0.00    +0.026 A 
ATOM     16  C   UNL     1       2.966   1.350   1.167  0.00  0.00    +0.005 A 
ENDBRANCH   1  14
BRANCH   3  17
ATOM     17  C   UNL     1       1.791  -4.406  -3.035  0.00  0.00    +0.002 A 
ATOM     18  C   UNL     1       1.323  -3.862  -4.230  0.00  0.00    +0.011 A 
ATOM     19  C   UNL     1       0.846  -4.694  -5.223  0.00  0.00    +0.020 A 
ATOM     20  C   UNL     1       0.831  -6.065  -5.033  0.00  0.00    +0.041 A 
ATOM     21  C   UNL     1       1.296  -6.609  -3.848  0.00  0.00    +0.020 A 
ATOM     22  C   UNL     1       1.780  -5.787  -2.851  0.00  0.00    +0.011 A 
ATOM     23 CL   UNL     1       0.229  -7.105  -6.286  0.00  0.00    -0.084 Cl
ENDBRANCH   3  17
BRANCH   7  24
ATOM     24  C   UNL     1       4.504  -4.074   3.209  0.00  0.00    +0.204 C 
BRANCH  24  25
ATOM     25  N   UNL     1       4.617  -5.459   3.673  0.00  0.00    -0.290 N 
ATOM     26  C   UNL     1       3.699  -5.963   4.521  0.00  0.00    +0.247 C 
ATOM     27  O   UNL     1       3.808  -7.104   4.928  0.00  0.00    -0.270 OA
BRANCH  26  28
ATOM     28  C   UNL     1       2.559  -5.128   4.958  0.00  0.00    +0.037 A 
ATOM     29  C   UNL     1       2.145  -4.046   4.180  0.00  0.00    +0.013 A 
ATOM     30  C   UNL     1       1.080  -3.272   4.593  0.00  0.00    +0.001 A 
ATOM     31  C   UNL     1       0.424  -3.565   5.775  0.00  0.00    +0.000 A 
ATOM     32  C   UNL     1       0.831  -4.636   6.551  0.00  0.00    +0.001 A 
ATOM     33  C   UNL     1       1.890  -5.423   6.146  0.00  0.00    +0.013 A 
ENDBRANCH  26  28
BRANCH  25  34
ATOM     34  C   UNL     1       5.728  -6.297   3.214  0.00  0.00    +0.090 C 
BRANCH  34  35
ATOM     35  C   UNL     1       6.865  -6.241   4.236  0.00  0.00    -0.060 C 
BRANCH  35  36
ATOM     36  N   UNL     1       7.939  -7.154   3.823  0.00  0.00    +0.377 N 
ATOM     37  C   UNL     1       9.089  -6.996   4.724  0.00  0.00    -0.097 C 
ATOM     38  C   UNL     1       7.456  -8.540   3.884  0.00  0.00    -0.097 C 
ATOM     39  H   UNL     1       8.220  -6.937   2.879  0.00  0.00    -0.083 HD
ENDBRANCH  35  36
ENDBRANCH  34  35
ENDBRANCH  25  34
ENDBRANCH  24  25
ENDBRANCH   7  24
TORSDOF 8
