REMARK  Name = ZINC15418316
REMARK  8 active torsions:
REMARK  status: ('A' for Active; 'I' for Inactive)
REMARK    1  A    between atoms: C_4  and  C_7
REMARK    2  A    between atoms: C_7  and  N_8
REMARK    3  A    between atoms: C_9  and  C_11
REMARK    4  A    between atoms: C_16  and  N_17
REMARK    5  A    between atoms: C_18  and  C_20
REMARK    6  A    between atoms: C_20  and  N_62
REMARK    7  A    between atoms: N_23  and  C_26
REMARK    8  A    between atoms: C_29  and  N_32
REMARK                            x       y       z     vdW  Elec       q    Type
REMARK                         _______ _______ _______ _____ _____    ______ ____
ROOT
ATOM      1  N   UNL     1      -1.191   1.867   0.017  0.00  0.00    -0.286 N 
ATOM      2  C   UNL     1      -0.015   1.209   0.013  0.00  0.00    +0.201 C 
ATOM      3  O   UNL     1       0.002  -0.004   0.020  0.00  0.00    -0.278 OA
ATOM      4  H   UNL     1      -1.205   2.834   0.092  0.00  0.00    +0.155 HD
ENDROOT
BRANCH   1  10
ATOM      5  C   UNL     1      -3.574   1.703   0.423  0.00  0.00    +0.058 A 
ATOM      6  C   UNL     1      -4.766   0.982   0.314  0.00  0.00    +0.015 A 
ATOM      7  C   UNL     1      -4.767  -0.255  -0.292  0.00  0.00    +0.001 A 
ATOM      8  C   UNL     1      -3.591  -0.790  -0.794  0.00  0.00    +0.002 A 
ATOM      9  C   UNL     1      -2.407  -0.088  -0.698  0.00  0.00    +0.024 A 
ATOM     10  C   UNL     1      -2.386   1.159  -0.086  0.00  0.00    +0.045 A 
BRANCH   5  12
ATOM     11  N   UNL     1      -4.687   3.505   1.647  0.00  0.00    -0.307 N 
ATOM     12  C   UNL     1      -3.565   3.029   1.070  0.00  0.00    +0.246 C 
ATOM     13  O   UNL     1      -2.546   3.692   1.083  0.00  0.00    -0.270 OA
ATOM     14  H   UNL     1      -5.499   2.975   1.636  0.00  0.00    +0.149 HD
BRANCH  11  15
ATOM     15  C   UNL     1      -4.678   4.821   2.289  0.00  0.00    +0.139 C 
BRANCH  15  19
ATOM     16  C   UNL     1      -8.553   5.653   3.884  0.00  0.00    +0.000 A 
ATOM     17  C   UNL     1      -7.608   5.011   4.662  0.00  0.00    +0.000 A 
ATOM     18  C   UNL     1      -6.354   4.742   4.146  0.00  0.00    +0.005 A 
ATOM     19  C   UNL     1      -6.045   5.115   2.852  0.00  0.00    -0.030 A 
ATOM     20  C   UNL     1      -6.988   5.762   2.075  0.00  0.00    +0.005 A 
ATOM     21  C   UNL     1      -8.243   6.027   2.589  0.00  0.00    +0.000 A 
ENDBRANCH  15  19
ENDBRANCH  11  15
ENDBRANCH   5  12
ENDBRANCH   1  10
BRANCH   2  22
ATOM     22  C   UNL     1       1.280   1.979  -0.008  0.00  0.00    +0.019 C 
BRANCH  22  28
ATOM     23  C   UNL     1       2.476   0.285   1.243  0.00  0.00    -0.059 C 
ATOM     24  C   UNL     1       3.613  -0.736   1.164  0.00  0.00    +0.086 C 
ATOM     25  N   UNL     1       4.879  -0.035   0.905  0.00  0.00    -0.333 N 
ATOM     26  C   UNL     1       4.813   0.719  -0.354  0.00  0.00    +0.086 C 
ATOM     27  C   UNL     1       3.675   1.740  -0.275  0.00  0.00    -0.059 C 
ATOM     28  N   UNL     1       2.406   1.021  -0.037  0.00  0.00    +0.387 N 
ATOM     29  H   UNL     1       2.254   0.351  -0.799  0.00  0.00    -0.081 HD
BRANCH  25  30
ATOM     30  C   UNL     1       5.953  -0.929   0.898  0.00  0.00    +0.030 A 
ATOM     31  C   UNL     1       6.781  -1.012  -0.214  0.00  0.00    +0.025 A 
ATOM     32  C   UNL     1       7.845  -1.892  -0.216  0.00  0.00    +0.034 A 
ATOM     33  C   UNL     1       8.080  -2.699   0.883  0.00  0.00    +0.126 A 
ATOM     34  C   UNL     1       7.254  -2.622   1.989  0.00  0.00    +0.034 A 
ATOM     35  C   UNL     1       6.191  -1.740   2.000  0.00  0.00    +0.025 A 
BRANCH  33  36
ATOM     36  N   UNL     1       9.218  -3.645   0.875  0.00  0.00    +0.056 N 
ATOM     37  O   UNL     1       9.426  -4.355   1.842  0.00  0.00    -0.126 OA
ATOM     38  O   UNL     1       9.946  -3.713  -0.099  0.00  0.00    -0.126 OA
ENDBRANCH  33  36
ENDBRANCH  25  30
ENDBRANCH  22  28
ENDBRANCH   2  22
TORSDOF 8
