REMARK  Name = ZINC16020093
REMARK  9 active torsions:
REMARK  status: ('A' for Active; 'I' for Inactive)
REMARK    1  A    between atoms: C_1  and  C_2
REMARK    2  A    between atoms: C_2  and  C_4
REMARK    3  A    between atoms: C_2  and  N_15
REMARK    4  A    between atoms: N_6  and  C_7
REMARK    5  A    between atoms: C_7  and  C_8
REMARK    6  A    between atoms: C_8  and  C_9
REMARK    7  A    between atoms: C_16  and  C_18
REMARK    8  A    between atoms: C_20  and  C_33
REMARK    9  A    between atoms: C_20  and  C_34
REMARK                            x       y       z     vdW  Elec       q    Type
REMARK                         _______ _______ _______ _____ _____    ______ ____
ROOT
ATOM      1  N   UNL     1       1.377   6.627  -7.045  0.00  0.00    -0.303 N 
ATOM      2  C   UNL     1       1.366   7.699  -7.862  0.00  0.00    +0.236 C 
ATOM      3  O   UNL     1       0.344   8.333  -8.018  0.00  0.00    -0.274 OA
ATOM      4  H   UNL     1       2.195   6.121  -6.920  0.00  0.00    +0.149 HD
ENDROOT
BRANCH   2   5
ATOM      5  C   UNL     1       2.625   8.111  -8.581  0.00  0.00    +0.179 C 
ATOM      6  C   UNL     1       2.880   7.119  -9.741  0.00  0.00    +0.040 C 
ATOM      7  S   UNL     1       3.119   8.269 -11.165  0.00  0.00    -0.125 S 
ATOM      8  C   UNL     1       3.386   9.798 -10.171  0.00  0.00    +0.167 C 
ATOM      9  N   UNL     1       2.480   9.500  -9.023  0.00  0.00    -0.269 N 
ATOM     10  C   UNL     1       1.789  10.635  -8.788  0.00  0.00    +0.249 C 
ATOM     11  O   UNL     1       1.218  10.903  -7.748  0.00  0.00    -0.270 OA
ATOM     12  C   UNL     1       1.829  11.503  -9.981  0.00  0.00    +0.043 A 
ATOM     13  C   UNL     1       2.782  10.985 -10.864  0.00  0.00    -0.005 A 
ATOM     14  C   UNL     1       2.990  11.582 -12.086  0.00  0.00    +0.007 A 
ATOM     15  C   UNL     1       2.266  12.709 -12.438  0.00  0.00    +0.000 A 
ATOM     16  C   UNL     1       1.333  13.239 -11.565  0.00  0.00    +0.001 A 
ATOM     17  C   UNL     1       1.110  12.643 -10.340  0.00  0.00    +0.013 A 
ATOM     18  C   UNL     1       4.142   6.291  -9.487  0.00  0.00    +0.025 C 
ATOM     19  C   UNL     1       1.668   6.213  -9.965  0.00  0.00    +0.025 C 
ENDBRANCH   2   5
BRANCH   1  21
ATOM     20  C   UNL     1      -0.690   5.337  -7.261  0.00  0.00    +0.038 C 
ATOM     21  C   UNL     1       0.154   6.227  -6.346  0.00  0.00    +0.156 C 
BRANCH  21  22
ATOM     22  C   UNL     1       0.515   5.464  -5.098  0.00  0.00    +0.233 C 
ATOM     23  O   UNL     1       1.680   5.273  -4.820  0.00  0.00    -0.274 OA
ATOM     24  N   UNL     1      -0.456   4.993  -4.290  0.00  0.00    -0.313 N 
ATOM     25  H   UNL     1      -1.388   5.146  -4.513  0.00  0.00    +0.149 HD
BRANCH  24  26
ATOM     26  C   UNL     1      -0.104   4.251  -3.077  0.00  0.00    +0.108 C 
BRANCH  26  27
ATOM     27  C   UNL     1      -1.382   3.833  -2.347  0.00  0.00    +0.049 C 
BRANCH  27  28
ATOM     28  C   UNL     1      -1.020   3.070  -1.099  0.00  0.00    -0.072 C 
ATOM     29  C   UNL     1      -0.952   3.725   0.015  0.00  0.00    -0.028 C 
ATOM     30  C   UNL     1      -0.595   3.106   1.335  0.00  0.00    +0.027 C 
ATOM     31  C   UNL     1      -0.739   1.585   1.264  0.00  0.00    +0.004 C 
ATOM     32  C   UNL     1      -0.013   1.086   0.008  0.00  0.00    +0.005 C 
ATOM     33  C   UNL     1      -0.761   1.597  -1.225  0.00  0.00    +0.030 C 
ENDBRANCH  27  28
ENDBRANCH  26  27
ENDBRANCH  24  26
ENDBRANCH  21  22
ENDBRANCH   1  21
TORSDOF 6
