REMARK  Name = ZINC21079594
REMARK  9 active torsions:
REMARK  status: ('A' for Active; 'I' for Inactive)
REMARK    1  A    between atoms: C_1  and  C_2
REMARK    2  A    between atoms: C_2  and  C_28
REMARK    3  A    between atoms: N_3  and  N_4
REMARK    4  A    between atoms: C_7  and  S_10
REMARK    5  A    between atoms: S_10  and  C_11
REMARK    6  A    between atoms: C_11  and  C_12
REMARK    7  A    between atoms: C_12  and  C_13
REMARK    8  A    between atoms: N_15  and  C_16
REMARK    9  A    between atoms: N_15  and  C_22
REMARK                            x       y       z     vdW  Elec       q    Type
REMARK                         _______ _______ _______ _____ _____    ______ ____
ROOT
ATOM      1  N   UNL     1       3.567  -0.699  -0.371  0.00  0.00    -0.205 N 
ATOM      2  C   UNL     1       2.860   0.495  -0.340  0.00  0.00    +0.232 A 
ATOM      3  N   UNL     1       1.520   0.629  -0.104  0.00  0.00    -0.186 NA
ATOM      4  C   UNL     1       1.213   1.959  -0.158  0.00  0.00    +0.210 A 
ATOM      5  N   UNL     1       2.316   2.620  -0.417  0.00  0.00    -0.144 NA
ATOM      6  N   UNL     1       3.359   1.692  -0.532  0.00  0.00    -0.245 N 
ATOM      7  H   UNL     1       3.045  -1.651  -0.196  0.00  0.00    +0.177 HD
ATOM      8  H   UNL     1       4.433   1.813  -0.741  0.00  0.00    +0.192 HD
ENDROOT
BRANCH   1  11
ATOM      9  C   UNL     1       4.892  -3.113  -0.416  0.00  0.00    +0.068 C 
ATOM     10  C   UNL     1       5.606  -1.808  -0.656  0.00  0.00    +0.063 C 
ATOM     11  N   UNL     1       4.944  -0.690  -0.626  0.00  0.00    -0.184 NA
BRANCH  10  12
ATOM     12  C   UNL     1       7.055  -1.799  -0.924  0.00  0.00    +0.001 A 
ATOM     13  C   UNL     1       7.769  -3.000  -0.956  0.00  0.00    +0.013 A 
ATOM     14  C   UNL     1       9.125  -2.989  -1.208  0.00  0.00    +0.050 A 
ATOM     15  C   UNL     1       9.784  -1.789  -1.430  0.00  0.00    +0.166 A 
ATOM     16  C   UNL     1       9.078  -0.587  -1.399  0.00  0.00    +0.167 A 
ATOM     17  C   UNL     1       7.718  -0.591  -1.153  0.00  0.00    +0.059 A 
ATOM     18  O   UNL     1       9.948   0.436  -1.645  0.00  0.00    -0.453 OA
ATOM     19  C   UNL     1      11.111  -0.180  -2.230  0.00  0.00    +0.466 C 
ATOM     20  O   UNL     1      11.096  -1.516  -1.695  0.00  0.00    -0.453 OA
ENDBRANCH  10  12
ENDBRANCH   1  11
BRANCH   4  21
ATOM     21  S   UNL     1      -0.386   2.663   0.072  0.00  0.00    -0.084 S 
BRANCH  21  22
ATOM     22  C   UNL     1      -0.113   4.446  -0.124  0.00  0.00    +0.087 C 
BRANCH  22  23
ATOM     23  C   UNL     1      -1.439   5.188   0.053  0.00  0.00    +0.108 C 
BRANCH  23  24
ATOM     24  C   UNL     1      -1.212   6.668  -0.110  0.00  0.00    +0.225 C 
ATOM     25  O   UNL     1      -0.092   7.093  -0.297  0.00  0.00    -0.275 OA
ATOM     26  N   UNL     1      -2.254   7.521  -0.048  0.00  0.00    -0.240 N 
BRANCH  26  27
ATOM     27  C   UNL     1      -2.061   8.883  -0.308  0.00  0.00    +0.041 A 
ATOM     28  C   UNL     1      -1.317   9.661   0.569  0.00  0.00    +0.024 A 
ATOM     29  C   UNL     1      -1.124  11.003   0.307  0.00  0.00    +0.002 A 
ATOM     30  C   UNL     1      -1.681  11.575  -0.823  0.00  0.00    +0.000 A 
ATOM     31  C   UNL     1      -2.427  10.804  -1.696  0.00  0.00    +0.002 A 
ATOM     32  C   UNL     1      -2.619   9.460  -1.442  0.00  0.00    +0.024 A 
ENDBRANCH  26  27
BRANCH  26  33
ATOM     33  C   UNL     1      -3.530   7.044   0.278  0.00  0.00    +0.041 A 
ATOM     34  C   UNL     1      -4.225   6.245  -0.622  0.00  0.00    +0.024 A 
ATOM     35  C   UNL     1      -5.481   5.773  -0.296  0.00  0.00    +0.002 A 
ATOM     36  C   UNL     1      -6.052   6.103   0.920  0.00  0.00    +0.000 A 
ATOM     37  C   UNL     1      -5.365   6.902   1.815  0.00  0.00    +0.002 A 
ATOM     38  C   UNL     1      -4.106   7.374   1.497  0.00  0.00    +0.024 A 
ENDBRANCH  26  33
ENDBRANCH  23  24
ENDBRANCH  22  23
ENDBRANCH  21  22
ENDBRANCH   4  21
TORSDOF 8
