REMARK  Name = ZINC21777073
REMARK  13 active torsions:
REMARK  status: ('A' for Active; 'I' for Inactive)
REMARK    1  A    between atoms: C_1  and  C_2
REMARK    2  A    between atoms: C_2  and  O_3
REMARK    3  A    between atoms: O_3  and  C_4
REMARK    4  A    between atoms: C_5  and  C_35
REMARK    5  A    between atoms: C_7  and  S_11
REMARK    6  A    between atoms: C_9  and  C_10
REMARK    7  A    between atoms: S_11  and  N_14
REMARK    8  A    between atoms: N_14  and  C_15
REMARK    9  A    between atoms: C_15  and  C_16
REMARK   10  A    between atoms: C_16  and  C_18
REMARK   11  A    between atoms: C_16  and  N_28
REMARK   12  A    between atoms: N_26  and  C_27
REMARK   13  A    between atoms: N_31  and  C_34
REMARK                            x       y       z     vdW  Elec       q    Type
REMARK                         _______ _______ _______ _____ _____    ______ ____
ROOT
ATOM      1  C   UNL     1      -2.090   8.338   5.740  0.00  0.00    +0.102 C 
ENDROOT
BRANCH   1   2
ATOM      2  C   UNL     1      -1.291   7.953   6.959  0.00  0.00    -0.029 A 
ATOM      3  C   UNL     1       0.032   7.572   6.828  0.00  0.00    +0.007 A 
ATOM      4  C   UNL     1       0.768   7.221   7.940  0.00  0.00    +0.024 A 
ATOM      5  C   UNL     1       0.179   7.238   9.204  0.00  0.00    +0.033 A 
ATOM      6  C   UNL     1      -1.151   7.621   9.325  0.00  0.00    -0.025 A 
ATOM      7  C   UNL     1      -1.881   7.975   8.209  0.00  0.00    +0.010 A 
ATOM      8  C   UNL     1      -1.523   7.560  10.793  0.00  0.00    +0.056 C 
ATOM      9  C   UNL     1      -0.147   7.503  11.494  0.00  0.00    +0.109 C 
ATOM     10  N   UNL     1       0.722   6.912  10.453  0.00  0.00    -0.332 N 
ATOM     11  C   UNL     1       2.100   7.408  10.574  0.00  0.00    +0.129 C 
ENDBRANCH   1   2
BRANCH   1  12
ATOM     12  N   UNL     1      -1.614   9.631   5.231  0.00  0.00    -0.298 NA
ATOM     13  C   UNL     1      -0.182   9.574   4.906  0.00  0.00    +0.066 C 
ATOM     14  C   UNL     1       0.256  10.913   4.306  0.00  0.00    -0.064 C 
ATOM     15  N   UNL     1      -0.021  11.991   5.266  0.00  0.00    +0.379 N 
ATOM     16  C   UNL     1      -1.453  12.047   5.591  0.00  0.00    -0.064 C 
ATOM     17  C   UNL     1      -1.891  10.709   6.191  0.00  0.00    +0.066 C 
ATOM     18  C   UNL     1       0.455  13.284   4.756  0.00  0.00    -0.096 C 
ATOM     19  H   UNL     1       0.529  11.770   6.192  0.00  0.00    -0.082 HD
ENDBRANCH   1  12
BRANCH   1  20
ATOM     20  C   UNL     1      -1.917   7.269   4.659  0.00  0.00    +0.129 C 
BRANCH  20  21
ATOM     21  N   UNL     1      -2.595   7.700   3.434  0.00  0.00    -0.188 NA
ATOM     22  H   UNL     1      -3.433   8.411   3.490  0.00  0.00    +0.148 HD
BRANCH  21  23
ATOM     23  S   UNL     1      -2.274   6.939   1.998  0.00  0.00    +0.058 S 
ATOM     24  O   UNL     1      -0.860   6.878   1.879  0.00  0.00    -0.153 OA
ATOM     25  O   UNL     1      -3.096   7.559   1.018  0.00  0.00    -0.153 OA
BRANCH  23  29
ATOM     26  C   UNL     1      -3.726   2.668   2.393  0.00  0.00    +0.126 A 
ATOM     27  C   UNL     1      -2.427   2.997   2.753  0.00  0.00    -0.007 A 
ATOM     28  C   UNL     1      -1.985   4.299   2.626  0.00  0.00    +0.035 A 
ATOM     29  C   UNL     1      -2.839   5.277   2.152  0.00  0.00    +0.106 A 
ATOM     30  C   UNL     1      -4.136   4.954   1.798  0.00  0.00    +0.035 A 
ATOM     31  C   UNL     1      -4.581   3.652   1.917  0.00  0.00    -0.007 A 
ATOM     32  C   UNL     1      -5.995   3.300   1.532  0.00  0.00    +0.047 C 
ATOM     33  C   UNL     1      -1.497   1.932   3.275  0.00  0.00    +0.047 C 
BRANCH  26  34
ATOM     34  O   UNL     1      -4.162   1.386   2.511  0.00  0.00    -0.492 OA
BRANCH  34  36
ATOM     35  C   UNL     1      -4.532  -0.859   1.697  0.00  0.00    +0.048 C 
ATOM     36  C   UNL     1      -3.985   0.534   1.378  0.00  0.00    +0.226 C 
ENDBRANCH  34  36
ENDBRANCH  26  34
ENDBRANCH  23  29
ENDBRANCH  21  23
ENDBRANCH  20  21
ENDBRANCH   1  20
TORSDOF 8
