REMARK  Name = ZINC37929628
REMARK  6 active torsions:
REMARK  status: ('A' for Active; 'I' for Inactive)
REMARK    1  A    between atoms: C_1  and  C_2
REMARK    2  A    between atoms: C_3  and  N_9
REMARK    3  A    between atoms: C_4  and  C_8
REMARK    4  A    between atoms: N_9  and  S_10
REMARK    5  A    between atoms: S_10  and  C_13
REMARK    6  A    between atoms: C_18  and  N_19
REMARK                            x       y       z     vdW  Elec       q    Type
REMARK                         _______ _______ _______ _____ _____    ______ ____
ROOT
ATOM      1  S   UNL     1      -0.137  -1.593  -3.502  0.00  0.00    +0.074 S 
ATOM      2  O   UNL     1      -0.168  -0.868  -4.724  0.00  0.00    -0.150 OA
ATOM      3  O   UNL     1       0.817  -2.615  -3.247  0.00  0.00    -0.150 OA
ENDROOT
BRANCH   1   4
ATOM      4  C   UNL     1      -1.726  -2.330  -3.313  0.00  0.00    +0.130 A 
ATOM      5  C   UNL     1      -2.687  -2.163  -4.292  0.00  0.00    +0.046 A 
ATOM      6  C   UNL     1      -3.935  -2.740  -4.144  0.00  0.00    +0.020 A 
ATOM      7  C   UNL     1      -4.225  -3.488  -3.016  0.00  0.00    +0.017 A 
ATOM      8  C   UNL     1      -3.269  -3.659  -2.035  0.00  0.00    +0.026 A 
ATOM      9  C   UNL     1      -2.013  -3.085  -2.183  0.00  0.00    +0.052 A 
ATOM     10 BR   UNL     1      -5.247  -2.508  -5.486  0.00  0.00    -0.050 Br
BRANCH   9  11
ATOM     11  N   UNL     1      -1.042  -3.261  -1.194  0.00  0.00    -0.356 N 
ATOM     12  H   UNL     1      -0.195  -2.792  -1.257  0.00  0.00    +0.142 HD
ATOM     13  H   UNL     1      -1.214  -3.853  -0.445  0.00  0.00    +0.142 HD
ENDBRANCH   9  11
ENDBRANCH   1   4
BRANCH   1  14
ATOM     14  N   UNL     1       0.031  -0.475  -2.292  0.00  0.00    -0.213 N 
ATOM     15  H   UNL     1       0.729  -0.582  -1.627  0.00  0.00    +0.174 HD
BRANCH  14  18
ATOM     16  C   UNL     1      -1.759   0.206   0.117  0.00  0.00    +0.067 C 
ATOM     17  C   UNL     1      -1.639   0.958  -1.184  0.00  0.00    +0.056 A 
ATOM     18  C   UNL     1      -0.838   0.630  -2.229  0.00  0.00    +0.091 A 
ATOM     19  C   UNL     1      -1.030   1.588  -3.235  0.00  0.00    +0.082 A 
ATOM     20  N   UNL     1      -1.911   2.458  -2.813  0.00  0.00    -0.177 NA
ATOM     21  N   UNL     1      -2.319   2.085  -1.526  0.00  0.00    -0.280 N 
ATOM     22  H   UNL     1      -2.968   2.550  -0.975  0.00  0.00    +0.189 HD
ATOM     23  C   UNL     1      -0.338   1.611  -4.574  0.00  0.00    +0.069 C 
ENDBRANCH  14  18
ENDBRANCH   1  14
TORSDOF 4
