REMARK  Name = ZINC40003708
REMARK  16 active torsions:
REMARK  status: ('A' for Active; 'I' for Inactive)
REMARK    1  A    between atoms: C_1  and  C_2
REMARK    2  A    between atoms: C_2  and  C_3
REMARK    3  A    between atoms: C_3  and  C_4
REMARK    4  A    between atoms: C_4  and  C_5
REMARK    5  A    between atoms: C_5  and  O_6
REMARK    6  A    between atoms: O_6  and  C_7
REMARK    7  A    between atoms: C_10  and  C_13
REMARK    8  A    between atoms: C_15  and  C_26
REMARK    9  A    between atoms: N_19  and  C_20
REMARK   10  A    between atoms: C_20  and  C_21
REMARK   11  A    between atoms: C_21  and  N_22
REMARK   12  A    between atoms: N_22  and  C_23
REMARK   13  A    between atoms: N_22  and  C_24
REMARK   14  A    between atoms: C_26  and  C_28
REMARK   15  A    between atoms: C_29  and  C_38
REMARK   16  A    between atoms: C_36  and  C_37
REMARK                            x       y       z     vdW  Elec       q    Type
REMARK                         _______ _______ _______ _____ _____    ______ ____
ROOT
ATOM      1  C   UNL     1      -7.891  -6.582   0.104  0.00  0.00    +0.145 C 
ATOM      2  C   UNL     1      -8.188  -6.980  -1.323  0.00  0.00    +0.078 C 
ATOM      3  C   UNL     1      -8.215  -8.332  -1.353  0.00  0.00    +0.249 C 
ATOM      4  C   UNL     1      -7.947  -8.854   0.001  0.00  0.00    +0.288 C 
ATOM      5  O   UNL     1      -7.904 -10.032   0.298  0.00  0.00    -0.266 OA
ATOM      6  N   UNL     1      -7.757  -7.834   0.859  0.00  0.00    -0.285 N 
ATOM      7  O   UNL     1      -8.451  -9.087  -2.452  0.00  0.00    -0.282 OA
ENDROOT
BRANCH   1  11
ATOM      8  C   UNL     1      -4.245  -4.361   0.282  0.00  0.00    +0.121 A 
ATOM      9  C   UNL     1      -5.463  -3.698   0.287  0.00  0.00    +0.046 A 
ATOM     10  C   UNL     1      -6.640  -4.418   0.229  0.00  0.00    +0.009 A 
ATOM     11  C   UNL     1      -6.605  -5.799   0.167  0.00  0.00    -0.022 A 
ATOM     12  C   UNL     1      -5.392  -6.462   0.162  0.00  0.00    +0.009 A 
ATOM     13  C   UNL     1      -4.212  -5.746   0.214  0.00  0.00    +0.046 A 
BRANCH   8  14
ATOM     14  O   UNL     1      -3.085  -3.655   0.339  0.00  0.00    -0.492 OA
BRANCH  14  15
ATOM     15  C   UNL     1      -3.195  -2.232   0.408  0.00  0.00    +0.229 C 
BRANCH  15  16
ATOM     16  C   UNL     1      -1.796  -1.614   0.464  0.00  0.00    +0.041 C 
BRANCH  16  17
ATOM     17  C   UNL     1      -1.914  -0.090   0.538  0.00  0.00    +0.003 C 
BRANCH  17  19
ATOM     18  C   UNL     1      -0.633   2.051   0.668  0.00  0.00    +0.004 C 
ATOM     19  C   UNL     1      -0.515   0.527   0.594  0.00  0.00    -0.003 C 
ENDBRANCH  17  19
ENDBRANCH  16  17
ENDBRANCH  15  16
ENDBRANCH  14  15
ENDBRANCH   8  14
ENDBRANCH   1  11
BRANCH   2  20
ATOM     20  C   UNL     1      -8.406  -6.074  -2.457  0.00  0.00    +0.213 C 
ATOM     21  O   UNL     1      -7.452  -5.600  -3.051  0.00  0.00    -0.285 OA
BRANCH  20  22
ATOM     22  C   UNL     1      -9.725  -5.752  -2.863  0.00  0.00    +0.116 A 
ATOM     23  C   UNL     1     -10.904  -6.111  -2.223  0.00  0.00    +0.068 A 
ATOM     24  N   UNL     1     -11.916  -5.617  -2.914  0.00  0.00    -0.232 NA
ATOM     25  C   UNL     1     -11.458  -4.952  -3.975  0.00  0.00    +0.141 A 
ATOM     26  N   UNL     1     -10.093  -5.011  -3.971  0.00  0.00    -0.296 N 
ATOM     27  C   UNL     1      -9.370  -4.404  -4.949  0.00  0.00    +0.093 A 
ATOM     28  C   UNL     1      -9.988  -3.726  -5.944  0.00  0.00    +0.018 A 
ATOM     29  C   UNL     1     -11.386  -3.643  -5.975  0.00  0.00    +0.008 A 
ATOM     30  C   UNL     1     -12.119  -4.257  -5.002  0.00  0.00    -0.008 A 
ATOM     31  C   UNL     1     -13.624  -4.176  -5.019  0.00  0.00    +0.047 C 
ATOM     32  C   UNL     1     -11.011  -6.924  -0.958  0.00  0.00    +0.068 C 
ENDBRANCH  20  22
ENDBRANCH   2  20
BRANCH   6  33
ATOM     33  C   UNL     1      -7.468  -7.951   2.291  0.00  0.00    +0.090 C 
BRANCH  33  34
ATOM     34  C   UNL     1      -8.781  -7.970   3.076  0.00  0.00    -0.060 C 
BRANCH  34  35
ATOM     35  N   UNL     1      -8.492  -8.088   4.511  0.00  0.00    +0.377 N 
ATOM     36  C   UNL     1      -9.744  -7.986   5.273  0.00  0.00    -0.097 C 
ATOM     37  C   UNL     1      -7.860  -9.387   4.778  0.00  0.00    -0.097 C 
ATOM     38  H   UNL     1      -7.867  -7.347   4.790  0.00  0.00    -0.083 HD
ENDBRANCH  34  35
ENDBRANCH  33  34
ENDBRANCH   6  33
TORSDOF 11
