REMARK  Name = ZINC34749435
REMARK  9 active torsions:
REMARK  status: ('A' for Active; 'I' for Inactive)
REMARK    1  A    between atoms: C_1  and  C_2
REMARK    2  A    between atoms: C_2  and  C_3
REMARK    3  A    between atoms: C_4  and  C_37
REMARK    4  A    between atoms: N_10  and  C_29
REMARK    5  A    between atoms: N_16  and  C_19
REMARK    6  A    between atoms: C_19  and  C_20
REMARK    7  A    between atoms: N_22  and  C_23
REMARK    8  A    between atoms: C_29  and  C_30
REMARK    9  A    between atoms: C_30  and  C_31
REMARK                            x       y       z     vdW  Elec       q    Type
REMARK                         _______ _______ _______ _____ _____    ______ ____
ROOT
ATOM      1  C   UNL     1       0.864  -0.522   1.238  0.00  0.00    -0.023 A 
ATOM      2  C   UNL     1       2.184  -0.756   1.215  0.00  0.00    -0.007 A 
ATOM      3  S   UNL     1       2.530  -1.340   2.864  0.00  0.00    -0.073 S 
ATOM      4  C   UNL     1       0.891  -1.254   3.536  0.00  0.00    +0.117 A 
ATOM      5  C   UNL     1       0.121  -0.767   2.463  0.00  0.00    +0.076 A 
ATOM      6  C   UNL     1      -1.273  -0.590   2.727  0.00  0.00    +0.264 A 
ATOM      7  O   UNL     1      -2.019  -0.178   1.856  0.00  0.00    -0.267 OA
ATOM      8  N   UNL     1      -1.751  -0.885   3.950  0.00  0.00    -0.280 N 
ATOM      9  C   UNL     1      -0.931  -1.347   4.937  0.00  0.00    +0.202 A 
ATOM     10  N   UNL     1       0.354  -1.530   4.719  0.00  0.00    -0.208 NA
ATOM     11  N   UNL     1      -1.456  -1.636   6.172  0.00  0.00    -0.304 N 
ATOM     12  C   UNL     1      -1.872  -3.005   6.516  0.00  0.00    +0.089 C 
ATOM     13  C   UNL     1      -1.236  -3.383   7.858  0.00  0.00    -0.059 C 
ATOM     14  N   UNL     1      -1.583  -2.373   8.865  0.00  0.00    +0.387 N 
ATOM     15  C   UNL     1      -0.994  -1.079   8.500  0.00  0.00    -0.059 C 
ATOM     16  C   UNL     1      -1.613  -0.587   7.192  0.00  0.00    +0.089 C 
ATOM     17  C   UNL     1       3.146  -0.570   0.070  0.00  0.00    +0.052 C 
ATOM     18  H   UNL     1      -2.587  -2.282   8.916  0.00  0.00    -0.081 HD
ENDROOT
BRANCH   1  20
ATOM     19  C   UNL     1       0.175   1.524   0.019  0.00  0.00    +0.009 C 
ATOM     20  C   UNL     1       0.160  -0.006   0.010  0.00  0.00    +0.033 C 
ENDBRANCH   1  20
BRANCH  14  21
ATOM     21  C   UNL     1      -1.066  -2.792  10.175  0.00  0.00    +0.019 C 
BRANCH  21  22
ATOM     22  C   UNL     1      -1.526  -1.821  11.231  0.00  0.00    +0.201 C 
ATOM     23  O   UNL     1      -2.216  -0.872  10.923  0.00  0.00    -0.278 OA
ATOM     24  N   UNL     1      -1.170  -2.006  12.518  0.00  0.00    -0.287 N 
ATOM     25  H   UNL     1      -0.550  -2.714  12.752  0.00  0.00    +0.155 HD
BRANCH  24  26
ATOM     26  C   UNL     1      -1.694  -1.176  13.515  0.00  0.00    +0.033 A 
ATOM     27  C   UNL     1      -2.924  -0.558  13.330  0.00  0.00    +0.023 A 
ATOM     28  C   UNL     1      -3.439   0.260  14.317  0.00  0.00    +0.002 A 
ATOM     29  C   UNL     1      -2.731   0.465  15.487  0.00  0.00    +0.000 A 
ATOM     30  C   UNL     1      -1.506  -0.148  15.673  0.00  0.00    +0.002 A 
ATOM     31  C   UNL     1      -0.988  -0.973  14.693  0.00  0.00    +0.023 A 
ENDBRANCH  24  26
ENDBRANCH  21  22
ENDBRANCH  14  21
BRANCH   8  32
ATOM     32  C   UNL     1      -3.178  -0.705   4.226  0.00  0.00    +0.133 C 
BRANCH  32  33
ATOM     33  C   UNL     1      -3.945  -1.952   3.781  0.00  0.00    +0.057 C 
BRANCH  33  34
ATOM     34  C   UNL     1      -5.424  -1.719   3.951  0.00  0.00    -0.046 A 
ATOM     35  C   UNL     1      -6.023  -1.945   5.177  0.00  0.00    +0.004 A 
ATOM     36  C   UNL     1      -7.380  -1.732   5.333  0.00  0.00    +0.000 A 
ATOM     37  C   UNL     1      -8.138  -1.293   4.264  0.00  0.00    +0.000 A 
ATOM     38  C   UNL     1      -7.539  -1.066   3.039  0.00  0.00    +0.000 A 
ATOM     39  C   UNL     1      -6.182  -1.275   2.884  0.00  0.00    +0.004 A 
ENDBRANCH  33  34
ENDBRANCH  32  33
ENDBRANCH   8  32
TORSDOF 7
