REMARK  Name = ZINC41116753
REMARK  5 active torsions:
REMARK  status: ('A' for Active; 'I' for Inactive)
REMARK    1  A    between atoms: C_3  and  C_9
REMARK    2  A    between atoms: C_4  and  O_8
REMARK    3  A    between atoms: C_5  and  O_7
REMARK    4  A    between atoms: C_9  and  N_10
REMARK    5  A    between atoms: N_10  and  C_11
REMARK                            x       y       z     vdW  Elec       q    Type
REMARK                         _______ _______ _______ _____ _____    ______ ____
ROOT
ATOM      1  C   UNL     1      -0.017   1.378   0.010  0.00  0.00    +0.004 A 
ATOM      2  C   UNL     1       1.169   2.089   0.002  0.00  0.00    +0.009 A 
ATOM      3  C   UNL     1       2.379   1.420  -0.013  0.00  0.00    +0.015 A 
ATOM      4  C   UNL     1       2.405   0.035  -0.021  0.00  0.00    +0.163 A 
ATOM      5  C   UNL     1       1.211  -0.680  -0.013  0.00  0.00    +0.159 A 
ATOM      6  C   UNL     1       0.002  -0.004   0.002  0.00  0.00    +0.049 A 
ENDROOT
BRANCH   5   7
ATOM      7  O   UNL     1       1.232  -2.040  -0.021  0.00  0.00    -0.503 OA
ATOM      8  H   UNL     1       1.246  -2.438   0.860  0.00  0.00    +0.292 HD
ENDBRANCH   5   7
BRANCH   4   9
ATOM      9  O   UNL     1       3.594  -0.625  -0.037  0.00  0.00    -0.503 OA
ATOM     10  H   UNL     1       3.947  -0.820   0.842  0.00  0.00    +0.292 HD
ENDBRANCH   4   9
BRANCH   3  11
ATOM     11  C   UNL     1       3.670   2.198  -0.023  0.00  0.00    +0.140 C 
BRANCH  11  12
ATOM     12  N   UNL     1       4.198   2.251  -1.388  0.00  0.00    -0.340 N 
ATOM     13  H   UNL     1       3.717   1.820  -2.111  0.00  0.00    +0.146 HD
BRANCH  12  14
ATOM     14  C   UNL     1       5.395   2.924  -1.648  0.00  0.00    +0.027 A 
ATOM     15  C   UNL     1       6.088   3.537  -0.612  0.00  0.00    +0.024 A 
ATOM     16  C   UNL     1       7.271   4.201  -0.873  0.00  0.00    +0.016 A 
ATOM     17  C   UNL     1       7.765   4.256  -2.164  0.00  0.00    +0.013 A 
ATOM     18  C   UNL     1       7.077   3.646  -3.197  0.00  0.00    +0.016 A 
ATOM     19  C   UNL     1       5.897   2.975  -2.942  0.00  0.00    +0.024 A 
ATOM     20  I   UNL     1       9.559   5.265  -2.554  0.00  0.00    -0.044 I 
ENDBRANCH  12  14
ENDBRANCH  11  12
ENDBRANCH   3  11
TORSDOF 5
