REMARK  Name = ZINC40559124
REMARK  4 active torsions:
REMARK  status: ('A' for Active; 'I' for Inactive)
REMARK    1  A    between atoms: C_6  and  C_7
REMARK    2  A    between atoms: C_7  and  O_8
REMARK    3  A    between atoms: C_13  and  O_21
REMARK    4  A    between atoms: C_16  and  C_18
REMARK                            x       y       z     vdW  Elec       q    Type
REMARK                         _______ _______ _______ _____ _____    ______ ____
ROOT
ATOM      1  C   UNL     1       0.280   1.639   0.395  0.00  0.00    +0.025 C 
ATOM      2  C   UNL     1       1.740   2.049   0.177  0.00  0.00    +0.109 C 
ATOM      3  N   UNL     1       2.209   1.470  -1.089  0.00  0.00    -0.285 N 
ATOM      4  C   UNL     1       2.062   0.024  -1.303  0.00  0.00    +0.109 C 
ATOM      5  C   UNL     1       0.598  -0.362  -1.069  0.00  0.00    +0.025 C 
ATOM      6  C   UNL     1       0.164   0.115   0.319  0.00  0.00    +0.017 C 
ATOM      7  C   UNL     1       2.764   2.251  -2.037  0.00  0.00    +0.306 C 
ATOM      8  O   UNL     1       2.605   3.456  -2.001  0.00  0.00    -0.252 OA
ATOM      9  N   UNL     1       3.495   1.697  -3.024  0.00  0.00    -0.269 N 
ATOM     10  C   UNL     1       4.325   2.432  -3.995  0.00  0.00    +0.141 C 
ATOM     11  C   UNL     1       4.430   1.490  -5.221  0.00  0.00    +0.134 C 
ATOM     12  C   UNL     1       4.518   0.100  -4.538  0.00  0.00    +0.067 C 
ATOM     13  C   UNL     1       3.602   0.258  -3.307  0.00  0.00    +0.193 C 
ENDROOT
BRANCH  13  14
ATOM     14  C   UNL     1       4.202  -0.454  -2.122  0.00  0.00    +0.376 C 
ATOM     15  O   UNL     1       4.208  -1.673  -2.082  0.00  0.00    -0.244 OA
ATOM     16  O   UNL     1       4.683   0.189  -1.204  0.00  0.00    -0.244 OA
ENDBRANCH  13  14
BRANCH  11  17
ATOM     17  O   UNL     1       5.610   1.766  -5.979  0.00  0.00    -0.390 OA
ATOM     18  H   UNL     1       5.643   2.661  -6.344  0.00  0.00    +0.210 HD
ENDBRANCH  11  17
BRANCH   6  19
ATOM     19  C   UNL     1      -1.287  -0.299   0.571  0.00  0.00    +0.159 C 
BRANCH  19  20
ATOM     20  O   UNL     1      -1.374  -1.725   0.616  0.00  0.00    -0.395 OA
ATOM     21  H   UNL     1      -2.268  -2.060   0.772  0.00  0.00    +0.209 HD
ENDBRANCH  19  20
ENDBRANCH   6  19
TORSDOF 4
