REMARK  Name = ZINC67239202
REMARK  6 active torsions:
REMARK  status: ('A' for Active; 'I' for Inactive)
REMARK    1  A    between atoms: C_5  and  C_7
REMARK    2  A    between atoms: C_7  and  C_8
REMARK    3  A    between atoms: C_8  and  C_9
REMARK    4  A    between atoms: N_11  and  C_12
REMARK    5  A    between atoms: C_15  and  C_18
REMARK    6  A    between atoms: C_18  and  N_19
REMARK                            x       y       z     vdW  Elec       q    Type
REMARK                         _______ _______ _______ _____ _____    ______ ____
ROOT
ATOM      1  C   UNL     1       1.432  -6.285   2.564  0.00  0.00    +0.033 A 
ATOM      2  C   UNL     1       0.840  -6.942   3.635  0.00  0.00    +0.023 A 
ATOM      3  C   UNL     1       0.757  -8.321   3.636  0.00  0.00    +0.007 A 
ATOM      4  C   UNL     1       1.261  -9.047   2.573  0.00  0.00    -0.030 A 
ATOM      5  C   UNL     1       1.851  -8.395   1.505  0.00  0.00    +0.007 A 
ATOM      6  C   UNL     1       1.932  -7.016   1.495  0.00  0.00    +0.023 A 
ENDROOT
BRANCH   1   9
ATOM      7  C   UNL     1       1.394  -4.209   1.402  0.00  0.00    +0.218 C 
ATOM      8  O   UNL     1       1.292  -4.811   0.354  0.00  0.00    -0.275 OA
ATOM      9  N   UNL     1       1.518  -4.888   2.560  0.00  0.00    -0.285 N 
ATOM     10  H   UNL     1       1.667  -4.409   3.390  0.00  0.00    +0.155 HD
BRANCH   7  11
ATOM     11  C   UNL     1       1.382  -2.702   1.410  0.00  0.00    +0.101 C 
BRANCH  11  12
ATOM     12  C   UNL     1       1.232  -2.186  -0.022  0.00  0.00    +0.045 C 
BRANCH  12  17
ATOM     13  C   UNL     1       0.006   1.385   0.014  0.00  0.00    +0.000 A 
ATOM     14  C   UNL     1       1.198   2.087   0.000  0.00  0.00    +0.001 A 
ATOM     15  C   UNL     1       2.401   1.406  -0.021  0.00  0.00    +0.015 A 
ATOM     16  C   UNL     1       2.412   0.022  -0.028  0.00  0.00    +0.021 A 
ATOM     17  C   UNL     1       1.220  -0.679  -0.014  0.00  0.00    -0.033 A 
ATOM     18  C   UNL     1       0.017   0.003   0.007  0.00  0.00    +0.005 A 
ATOM     19 BR   UNL     1       4.057  -0.910  -0.056  0.00  0.00    -0.050 Br
ENDBRANCH  12  17
ENDBRANCH  11  12
ENDBRANCH   7  11
ENDBRANCH   1   9
BRANCH   4  20
ATOM     20  C   UNL     1       1.169 -10.551   2.578  0.00  0.00    +0.141 C 
BRANCH  20  21
ATOM     21  N   UNL     1      -0.087 -10.964   1.947  0.00  0.00    -0.295 N 
ATOM     22  C   UNL     1      -0.388 -12.274   1.839  0.00  0.00    +0.297 C 
ATOM     23  O   UNL     1       0.384 -13.112   2.264  0.00  0.00    -0.253 OA
ATOM     24  N   UNL     1      -1.543 -12.655   1.259  0.00  0.00    -0.313 N 
ATOM     25  H   UNL     1      -0.703 -10.296   1.608  0.00  0.00    +0.151 HD
ATOM     26  H   UNL     1      -2.159 -11.986   0.920  0.00  0.00    +0.146 HD
ATOM     27  H   UNL     1      -1.759 -13.597   1.181  0.00  0.00    +0.146 HD
ENDBRANCH  20  21
ENDBRANCH   4  20
TORSDOF 6
