REMARK  Name = ZINC08686722
REMARK  18 active torsions:
REMARK  status: ('A' for Active; 'I' for Inactive)
REMARK    1  A    between atoms: C_1  and  C_2
REMARK    2  A    between atoms: C_6  and  C_8
REMARK    3  A    between atoms: C_8  and  C_9
REMARK    4  A    between atoms: C_9  and  N_10
REMARK    5  A    between atoms: N_10  and  C_11
REMARK    6  A    between atoms: C_11  and  C_12
REMARK    7  A    between atoms: C_16  and  O_25
REMARK    8  A    between atoms: C_17  and  O_23
REMARK    9  A    between atoms: C_21  and  O_22
REMARK   10  A    between atoms: O_23  and  C_24
REMARK   11  A    between atoms: O_25  and  C_26
REMARK   12  A    between atoms: C_27  and  S_34
REMARK   13  A    between atoms: N_28  and  C_29
REMARK   14  A    between atoms: C_29  and  C_30
REMARK   15  A    between atoms: C_30  and  C_31
REMARK   16  A    between atoms: C_31  and  N_71
REMARK   17  A    between atoms: C_32  and  N_71
REMARK   18  A    between atoms: C_33  and  N_71
REMARK                            x       y       z     vdW  Elec       q    Type
REMARK                         _______ _______ _______ _____ _____    ______ ____
ROOT
ATOM      1  N   UNL     1      -0.151   7.381  -1.442  0.00  0.00    -0.306 N 
ATOM      2  C   UNL     1      -1.343   8.065  -1.376  0.00  0.00    +0.149 C 
ATOM      3  N   UNL     1      -2.469   7.409  -1.322  0.00  0.00    -0.264 NA
ENDROOT
BRANCH   2   4
ATOM      4  S   UNL     1      -1.348   9.827  -1.364  0.00  0.00    -0.108 S 
ATOM      5  H   UNL     1      -1.159  10.063   0.013  0.00  0.00    +0.110 HD
ENDBRANCH   2   4
BRANCH   1   6
ATOM      6  C   UNL     1      -0.147   5.916  -1.452  0.00  0.00    +0.112 C 
BRANCH   6   7
ATOM      7  C   UNL     1       0.023   5.397  -0.022  0.00  0.00    +0.054 C 
BRANCH   7  13
ATOM      8  C   UNL     1      -2.451   1.054   0.229  0.00  0.00    +0.044 C 
ATOM      9  C   UNL     1      -1.156   1.812   0.088  0.00  0.00    -0.050 A 
ATOM     10  C   UNL     1       0.036   1.125  -0.051  0.00  0.00    +0.003 A 
ATOM     11  C   UNL     1       1.222   1.821  -0.186  0.00  0.00    +0.001 A 
ATOM     12  C   UNL     1       1.218   3.203  -0.177  0.00  0.00    +0.004 A 
ATOM     13  C   UNL     1       0.027   3.890  -0.032  0.00  0.00    -0.046 A 
ATOM     14  C   UNL     1      -1.160   3.194   0.103  0.00  0.00    +0.007 A 
ENDBRANCH   7  13
ENDBRANCH   6   7
ENDBRANCH   1   6
BRANCH   1  15
ATOM     15  C   UNL     1       1.113   8.117  -1.503  0.00  0.00    +0.147 C 
BRANCH  15  16
ATOM     16  C   UNL     1       1.480   8.368  -2.943  0.00  0.00    +0.032 A 
ATOM     17  C   UNL     1       0.642   7.966  -3.941  0.00  0.00    +0.020 A 
ATOM     18  C   UNL     1       1.021   8.220  -5.273  0.00  0.00    +0.005 A 
ATOM     19  C   UNL     1       0.204   7.832  -6.348  0.00  0.00    +0.059 A 
ATOM     20  C   UNL     1       0.601   8.094  -7.627  0.00  0.00    +0.162 A 
ATOM     21  C   UNL     1       1.817   8.746  -7.880  0.00  0.00    +0.164 A 
ATOM     22  C   UNL     1       2.630   9.134  -6.854  0.00  0.00    +0.077 A 
ATOM     23  C   UNL     1       2.249   8.879  -5.527  0.00  0.00    +0.079 A 
ATOM     24  N   UNL     1       3.029   9.250  -4.505  0.00  0.00    -0.213 NA
ATOM     25  C   UNL     1       2.677   9.020  -3.258  0.00  0.00    +0.218 A 
BRANCH  25  26
ATOM     26  O   UNL     1       3.498   9.419  -2.254  0.00  0.00    -0.492 OA
ATOM     27  H   UNL     1       4.103   8.731  -1.945  0.00  0.00    +0.294 HD
ENDBRANCH  25  26
BRANCH  21  28
ATOM     28  O   UNL     1       2.190   8.995  -9.162  0.00  0.00    -0.491 OA
ATOM     29  C   UNL     1       3.439   9.662  -9.357  0.00  0.00    +0.277 C 
ENDBRANCH  21  28
BRANCH  20  30
ATOM     30  O   UNL     1      -0.190   7.718  -8.667  0.00  0.00    -0.491 OA
ATOM     31  C   UNL     1      -1.416   7.058  -8.345  0.00  0.00    +0.277 C 
ENDBRANCH  20  30
ENDBRANCH  15  16
ENDBRANCH   1  15
BRANCH   3  32
ATOM     32  C   UNL     1      -3.742   8.134  -1.351  0.00  0.00    +0.142 C 
BRANCH  32  33
ATOM     33  C   UNL     1      -4.502   7.779  -2.631  0.00  0.00    +0.005 C 
BRANCH  33  34
ATOM     34  C   UNL     1      -5.831   8.536  -2.662  0.00  0.00    -0.078 C 
BRANCH  34  37
ATOM     35  C   UNL     1      -6.964   6.782  -3.887  0.00  0.00    -0.097 C 
ATOM     36  C   UNL     1      -7.723   9.074  -4.073  0.00  0.00    -0.097 C 
ATOM     37  N   UNL     1      -6.543   8.199  -3.912  0.00  0.00    +0.376 N 
ATOM     38  H   UNL     1      -5.909   8.345  -4.707  0.00  0.00    -0.083 HD
ENDBRANCH  34  37
ENDBRANCH  33  34
ENDBRANCH  32  33
ENDBRANCH   3  32
TORSDOF 13
