REMARK  Name = ZINC12402270
REMARK  9 active torsions:
REMARK  status: ('A' for Active; 'I' for Inactive)
REMARK    1  A    between atoms: C_1  and  C_2
REMARK    2  A    between atoms: C_2  and  C_36
REMARK    3  A    between atoms: N_16  and  C_19
REMARK    4  A    between atoms: C_19  and  C_20
REMARK    5  A    between atoms: C_27  and  C_34
REMARK    6  A    between atoms: C_28  and  N_33
REMARK    7  A    between atoms: N_29  and  N_30
REMARK    8  A    between atoms: N_30  and  C_31
REMARK    9  A    between atoms: N_30  and  C_32
REMARK                            x       y       z     vdW  Elec       q    Type
REMARK                         _______ _______ _______ _____ _____    ______ ____
ROOT
ATOM      1  C   UNL     1       0.629   1.885  -0.951  0.00  0.00    +0.011 C 
ATOM      2  C   UNL     1      -0.287   2.042   0.264  0.00  0.00    -0.023 C 
ATOM      3  C   UNL     1      -0.425   3.525   0.616  0.00  0.00    +0.059 C 
ATOM      4  C   UNL     1      -1.368   3.683   1.783  0.00  0.00    +0.038 C 
ATOM      5  C   UNL     1      -2.381   2.812   1.982  0.00  0.00    +0.038 C 
ATOM      6  C   UNL     1      -2.589   1.730   1.109  0.00  0.00    +0.163 C 
ATOM      7  O   UNL     1      -3.521   0.976   1.305  0.00  0.00    -0.292 OA
ATOM      8  C   UNL     1      -1.677   1.485  -0.063  0.00  0.00    +0.086 C 
ATOM      9  C   UNL     1      -3.316   2.973   3.152  0.00  0.00    +0.141 C 
ATOM     10  C   UNL     1      -3.026   1.943   4.200  0.00  0.00    -0.001 A 
ATOM     11  C   UNL     1      -1.902   1.711   4.964  0.00  0.00    +0.007 A 
ATOM     12  C   UNL     1      -1.959   0.652   5.864  0.00  0.00    +0.000 A 
ATOM     13  C   UNL     1      -3.091  -0.128   5.985  0.00  0.00    +0.002 A 
ATOM     14  C   UNL     1      -4.225   0.100   5.221  0.00  0.00    +0.024 A 
ATOM     15  C   UNL     1      -4.180   1.159   4.313  0.00  0.00    +0.041 A 
ATOM     16  N   UNL     1      -5.152   1.607   3.436  0.00  0.00    -0.265 N 
ATOM     17  C   UNL     1      -4.734   2.666   2.714  0.00  0.00    +0.240 C 
ATOM     18  O   UNL     1      -5.373   3.262   1.873  0.00  0.00    -0.274 OA
ATOM     19  C   UNL     1      -3.246   4.356   3.727  0.00  0.00    +0.090 C 
ATOM     20  C   UNL     1      -2.193   5.172   3.453  0.00  0.00    +0.117 C 
ATOM     21  N   UNL     1      -1.178   4.736   2.636  0.00  0.00    -0.223 N 
ATOM     22  C   UNL     1       0.303   1.284   1.455  0.00  0.00    +0.011 C 
ENDROOT
BRANCH  21  23
ATOM     23  N   UNL     1       0.036   5.362   2.675  0.00  0.00    -0.227 NA
ATOM     24  C   UNL     1       1.114   4.402   2.948  0.00  0.00    +0.128 C 
ATOM     25  C   UNL     1       0.290   6.099   1.430  0.00  0.00    +0.128 C 
ENDBRANCH  21  23
BRANCH  20  26
ATOM     26  N   UNL     1      -2.145   6.434   3.994  0.00  0.00    -0.344 N 
ATOM     27  H   UNL     1      -2.907   6.782   4.484  0.00  0.00    +0.144 HD
ATOM     28  H   UNL     1      -1.348   6.977   3.887  0.00  0.00    +0.144 HD
ENDBRANCH  20  26
BRANCH  19  29
ATOM     29  C   UNL     1      -4.301   4.824   4.574  0.00  0.00    +0.100 C 
ATOM     30  N   UNL     1      -5.138   5.194   5.247  0.00  0.00    -0.191 NA
ENDBRANCH  19  29
BRANCH  16  31
ATOM     31  C   UNL     1      -6.480   1.000   3.307  0.00  0.00    +0.151 C 
BRANCH  31  32
ATOM     32  C   UNL     1      -6.437  -0.085   2.263  0.00  0.00    +0.005 A 
ATOM     33  C   UNL     1      -6.444  -1.413   2.645  0.00  0.00    +0.008 A 
ATOM     34  C   UNL     1      -6.405  -2.409   1.687  0.00  0.00    +0.000 A 
ATOM     35  C   UNL     1      -6.359  -2.078   0.346  0.00  0.00    +0.003 A 
ATOM     36  C   UNL     1      -6.351  -0.751  -0.039  0.00  0.00    +0.038 A 
ATOM     37  C   UNL     1      -6.396   0.247   0.919  0.00  0.00    +0.128 A 
ATOM     38  F   UNL     1      -6.394   1.545   0.544  0.00  0.00    -0.205 F 
ENDBRANCH  31  32
ENDBRANCH  16  31
TORSDOF 5
