REMARK  Name = ZINC44452668
REMARK  12 active torsions:
REMARK  status: ('A' for Active; 'I' for Inactive)
REMARK    1  A    between atoms: C_1  and  C_2
REMARK    2  A    between atoms: C_2  and  O_3
REMARK    3  A    between atoms: O_3  and  C_4
REMARK    4  A    between atoms: C_6  and  C_16
REMARK    5  A    between atoms: C_8  and  O_13
REMARK    6  A    between atoms: C_9  and  O_10
REMARK    7  A    between atoms: O_10  and  C_11
REMARK    8  A    between atoms: C_11  and  C_12
REMARK    9  A    between atoms: O_13  and  C_14
REMARK   10  A    between atoms: C_14  and  C_15
REMARK   11  A    between atoms: N_18  and  C_19
REMARK   12  A    between atoms: C_20  and  C_27
REMARK                            x       y       z     vdW  Elec       q    Type
REMARK                         _______ _______ _______ _____ _____    ______ ____
ROOT
ATOM      1  C   UNL     1      -0.204  -4.956  -0.510  0.00  0.00    +0.249 C 
ATOM      2  O   UNL     1      -0.777  -4.496  -1.478  0.00  0.00    -0.270 OA
ATOM      3  N   UNL     1      -0.095  -6.292  -0.363  0.00  0.00    -0.275 N 
ATOM      4  H   UNL     1       0.363  -6.659   0.409  0.00  0.00    +0.156 HD
ENDROOT
BRANCH   3   5
ATOM      5  C   UNL     1      -0.636  -7.139  -1.316  0.00  0.00    +0.085 A 
ATOM      6  C   UNL     1      -0.626  -8.523  -1.328  0.00  0.00    +0.069 A 
ATOM      7  C   UNL     1      -1.274  -9.187  -2.458  0.00  0.00    -0.023 A 
ATOM      8  C   UNL     1      -1.806  -8.343  -3.359  0.00  0.00    -0.004 A 
ATOM      9  S   UNL     1      -1.462  -6.725  -2.715  0.00  0.00    -0.077 S 
ATOM     10  C   UNL     1      -2.454  -9.077  -4.501  0.00  0.00    +0.043 C 
ATOM     11  C   UNL     1      -1.886 -10.511  -4.417  0.00  0.00    +0.010 C 
ATOM     12  C   UNL     1      -1.528 -10.620  -2.921  0.00  0.00    +0.037 C 
BRANCH   6  13
ATOM     13  C   UNL     1       0.008  -9.290  -0.253  0.00  0.00    +0.254 C 
ATOM     14  O   UNL     1      -0.640  -9.621   0.722  0.00  0.00    -0.270 OA
ATOM     15  N   UNL     1       1.309  -9.630  -0.345  0.00  0.00    -0.236 N 
ATOM     16  C   UNL     1       1.893 -10.336   0.644  0.00  0.00    +0.304 C 
ATOM     17  O   UNL     1       1.245 -10.667   1.618  0.00  0.00    -0.253 OA
ATOM     18  N   UNL     1       3.193 -10.676   0.552  0.00  0.00    -0.313 N 
ATOM     19  H   UNL     1       1.826  -9.367  -1.123  0.00  0.00    +0.159 HD
ATOM     20  H   UNL     1       3.710 -10.413  -0.226  0.00  0.00    +0.146 HD
ATOM     21  H   UNL     1       3.613 -11.185   1.264  0.00  0.00    +0.146 HD
ENDBRANCH   6  13
ENDBRANCH   3   5
BRANCH   1  24
ATOM     22  C   UNL     1       0.802  -1.825   1.306  0.00  0.00    +0.166 A 
ATOM     23  C   UNL     1       0.261  -2.669   0.354  0.00  0.00    +0.062 A 
ATOM     24  C   UNL     1       0.373  -4.053   0.504  0.00  0.00    +0.044 A 
ATOM     25  C   UNL     1       1.032  -4.582   1.618  0.00  0.00    +0.062 A 
ATOM     26  C   UNL     1       1.571  -3.733   2.567  0.00  0.00    +0.166 A 
ATOM     27  C   UNL     1       1.463  -2.354   2.411  0.00  0.00    +0.204 A 
BRANCH  22  28
ATOM     28  O   UNL     1       0.693  -0.477   1.160  0.00  0.00    -0.488 OA
BRANCH  28  30
ATOM     29  C   UNL     1      -0.019   1.526   0.010  0.00  0.00    +0.048 C 
ATOM     30  C   UNL     1       0.002  -0.004   0.002  0.00  0.00    +0.226 C 
ENDBRANCH  28  30
ENDBRANCH  22  28
BRANCH  27  31
ATOM     31  O   UNL     1       1.999  -1.522   3.343  0.00  0.00    -0.485 OA
BRANCH  31  32
ATOM     32  C   UNL     1       1.158  -1.144   4.435  0.00  0.00    +0.226 C 
ATOM     33  C   UNL     1       1.929  -0.212   5.373  0.00  0.00    +0.048 C 
ENDBRANCH  31  32
ENDBRANCH  27  31
BRANCH  26  34
ATOM     34  O   UNL     1       2.213  -4.247   3.651  0.00  0.00    -0.488 OA
BRANCH  34  35
ATOM     35  C   UNL     1       2.292  -5.670   3.744  0.00  0.00    +0.226 C 
ATOM     36  C   UNL     1       3.042  -6.057   5.019  0.00  0.00    +0.048 C 
ENDBRANCH  34  35
ENDBRANCH  26  34
ENDBRANCH   1  24
TORSDOF 9
