REMARK  Name = ZINC38893895
REMARK  9 active torsions:
REMARK  status: ('A' for Active; 'I' for Inactive)
REMARK    1  A    between atoms: C_5  and  C_7
REMARK    2  A    between atoms: C_7  and  S_8
REMARK    3  A    between atoms: S_8  and  C_9
REMARK    4  A    between atoms: C_9  and  C_10
REMARK    5  A    between atoms: C_10  and  N_11
REMARK    6  A    between atoms: C_12  and  C_14
REMARK    7  A    between atoms: N_19  and  C_21
REMARK    8  A    between atoms: C_21  and  C_22
REMARK    9  A    between atoms: C_24  and  C_27
REMARK                            x       y       z     vdW  Elec       q    Type
REMARK                         _______ _______ _______ _____ _____    ______ ____
ROOT
ATOM      1  C   UNL     1       1.358  -9.003   3.678  0.00  0.00    +0.058 C 
ATOM      2  C   UNL     1       2.607  -9.422   2.897  0.00  0.00    +0.009 C 
ATOM      3  C   UNL     1       2.657 -10.950   2.816  0.00  0.00    -0.018 C 
ATOM      4  C   UNL     1       2.635 -11.532   4.231  0.00  0.00    -0.078 C 
ATOM      5  N   UNL     1       1.404 -11.117   4.915  0.00  0.00    +0.386 N 
ATOM      6  C   UNL     1       1.383  -9.656   5.061  0.00  0.00    -0.065 C 
ATOM      7  H   UNL     1       0.605 -11.412   4.375  0.00  0.00    -0.081 HD
ENDROOT
BRANCH   1   9
ATOM      8  N   UNL     1       1.317  -6.715   2.737  0.00  0.00    -0.314 N 
ATOM      9  C   UNL     1       1.339  -7.503   3.830  0.00  0.00    +0.214 C 
ATOM     10  O   UNL     1       1.343  -7.006   4.936  0.00  0.00    -0.276 OA
ATOM     11  H   UNL     1       1.314  -7.113   1.852  0.00  0.00    +0.149 HD
BRANCH   8  12
ATOM     12  C   UNL     1       1.299  -5.258   2.885  0.00  0.00    +0.115 C 
BRANCH  12  13
ATOM     13  C   UNL     1       1.276  -4.605   1.502  0.00  0.00    +0.088 C 
BRANCH  13  14
ATOM     14  S   UNL     1       1.254  -2.800   1.685  0.00  0.00    -0.154 S 
BRANCH  14  15
ATOM     15  C   UNL     1       1.229  -2.186  -0.022  0.00  0.00    +0.105 C 
BRANCH  15  20
ATOM     16  C   UNL     1      -0.017   1.378   0.010  0.00  0.00    +0.000 A 
ATOM     17  C   UNL     1       1.171   2.086   0.002  0.00  0.00    +0.001 A 
ATOM     18  C   UNL     1       2.377   1.412  -0.013  0.00  0.00    +0.020 A 
ATOM     19  C   UNL     1       2.397   0.029  -0.021  0.00  0.00    +0.045 A 
ATOM     20  C   UNL     1       1.208  -0.679  -0.013  0.00  0.00    -0.019 A 
ATOM     21  C   UNL     1       0.002  -0.004   0.002  0.00  0.00    +0.006 A 
ATOM     22 CL   UNL     1       3.912  -0.818  -0.041  0.00  0.00    -0.083 Cl
ENDBRANCH  15  20
ENDBRANCH  14  15
ENDBRANCH  13  14
ENDBRANCH  12  13
ENDBRANCH   8  12
ENDBRANCH   1   9
BRANCH   5  23
ATOM     23  C   UNL     1       1.351 -11.741   6.244  0.00  0.00    +0.022 C 
BRANCH  23  24
ATOM     24  C   UNL     1       1.239 -13.236   6.093  0.00  0.00    +0.211 A 
ATOM     25  N   UNL     1       2.236 -14.071   6.027  0.00  0.00    -0.193 NA
ATOM     26  C   UNL     1       1.777 -15.328   5.894  0.00  0.00    +0.202 A 
ATOM     27  N   UNL     1       0.467 -15.295   5.874  0.00  0.00    -0.056 NA
ATOM     28  O   UNL     1       0.097 -13.931   6.009  0.00  0.00    -0.340 OA
BRANCH  26  29
ATOM     29  C   UNL     1       2.613 -16.549   5.786  0.00  0.00    +0.023 A 
ATOM     30  C   UNL     1       4.003 -16.450   5.826  0.00  0.00    +0.014 A 
ATOM     31  C   UNL     1       4.777 -17.587   5.727  0.00  0.00    +0.039 A 
ATOM     32  C   UNL     1       4.175 -18.827   5.587  0.00  0.00    +0.123 A 
ATOM     33  C   UNL     1       2.793 -18.931   5.546  0.00  0.00    +0.039 A 
ATOM     34  C   UNL     1       2.011 -17.799   5.651  0.00  0.00    +0.014 A 
ATOM     35  F   UNL     1       4.936 -19.939   5.490  0.00  0.00    -0.205 F 
ENDBRANCH  26  29
ENDBRANCH  23  24
ENDBRANCH   5  23
TORSDOF 9
