REMARK  Name = ZINC45139172
REMARK  6 active torsions:
REMARK  status: ('A' for Active; 'I' for Inactive)
REMARK    1  A    between atoms: C_1  and  C_2
REMARK    2  A    between atoms: C_7  and  C_9
REMARK    3  A    between atoms: C_7  and  N_12
REMARK    4  A    between atoms: N_15  and  C_16
REMARK    5  A    between atoms: C_19  and  C_20
REMARK    6  A    between atoms: C_19  and  C_21
REMARK                            x       y       z     vdW  Elec       q    Type
REMARK                         _______ _______ _______ _____ _____    ______ ____
ROOT
ATOM      1  N   UNL     1      -0.612  -2.548   1.244  0.00  0.00    -0.284 N 
ATOM      2  C   UNL     1      -0.840  -3.876   1.239  0.00  0.00    +0.301 C 
ATOM      3  O   UNL     1       0.095  -4.654   1.226  0.00  0.00    -0.253 OA
ATOM      4  N   UNL     1      -2.104  -4.343   1.248  0.00  0.00    -0.296 N 
ATOM      5  H   UNL     1      -1.357  -1.928   1.254  0.00  0.00    +0.151 HD
ATOM      6  H   UNL     1      -2.850  -3.722   1.259  0.00  0.00    +0.151 HD
ENDROOT
BRANCH   1  12
ATOM      7  C   UNL     1      -0.019   1.526   0.010  0.00  0.00    +0.007 C 
ATOM      8  C   UNL     1       0.002  -0.004   0.002  0.00  0.00    -0.012 C 
ATOM      9  C   UNL     1       0.718  -0.497  -1.257  0.00  0.00    +0.003 C 
ATOM     10  C   UNL     1       0.739  -2.027  -1.265  0.00  0.00    +0.003 C 
ATOM     11  C   UNL     1       1.479  -2.534  -0.026  0.00  0.00    +0.037 C 
ATOM     12  C   UNL     1       0.763  -2.041   1.233  0.00  0.00    +0.137 C 
ATOM     13  C   UNL     1       0.742  -0.511   1.242  0.00  0.00    +0.040 C 
BRANCH  12  14
ATOM     14  C   UNL     1       1.492  -2.540   2.454  0.00  0.00    +0.379 C 
ATOM     15  O   UNL     1       2.657  -2.231   2.638  0.00  0.00    -0.244 OA
ATOM     16  O   UNL     1       0.916  -3.253   3.258  0.00  0.00    -0.244 OA
ENDBRANCH  12  14
ENDBRANCH   1  12
BRANCH   4  17
ATOM     17  C   UNL     1      -2.352  -5.786   1.243  0.00  0.00    +0.081 C 
ATOM     18  C   UNL     1      -3.447  -6.312   0.312  0.00  0.00    +0.031 C 
ATOM     19  C   UNL     1      -3.680  -6.277   1.825  0.00  0.00    -0.015 C 
ATOM     20  C   UNL     1      -3.673  -7.613   2.571  0.00  0.00    +0.013 C 
ATOM     21  C   UNL     1      -4.646  -5.223   2.367  0.00  0.00    +0.013 C 
ENDBRANCH   4  17
TORSDOF 3
