REMARK  Name = ZINC30499377
REMARK  13 active torsions:
REMARK  status: ('A' for Active; 'I' for Inactive)
REMARK    1  A    between atoms: C_1  and  C_2
REMARK    2  A    between atoms: C_2  and  C_3
REMARK    3  A    between atoms: C_3  and  C_4
REMARK    4  A    between atoms: C_4  and  N_5
REMARK    5  A    between atoms: C_9  and  C_11
REMARK    6  A    between atoms: C_11  and  C_13
REMARK    7  A    between atoms: C_11  and  N_14
REMARK    8  A    between atoms: N_14  and  C_15
REMARK    9  A    between atoms: C_15  and  C_17
REMARK   10  A    between atoms: C_15  and  C_18
REMARK   11  A    between atoms: C_21  and  N_24
REMARK   12  A    between atoms: C_25  and  C_27
REMARK   13  A    between atoms: C_27  and  C_28
REMARK                            x       y       z     vdW  Elec       q    Type
REMARK                         _______ _______ _______ _____ _____    ______ ____
ROOT
ATOM      1  N   UNL     1      -5.733  -2.317   1.347  0.00  0.00    +0.391 N 
ATOM      2  H   UNL     1      -5.072  -1.964   2.153  0.00  0.00    -0.084 HD
ATOM      3  H   UNL     1      -5.255  -3.158   0.824  0.00  0.00    -0.084 HD
ENDROOT
BRANCH   1   4
ATOM      4  C   UNL     1      -7.011  -2.759   1.920  0.00  0.00    +0.014 C 
ATOM      5  C   UNL     1      -7.370  -1.870   3.113  0.00  0.00    -0.004 C 
BRANCH   4  10
ATOM      6  N   UNL     1      -8.892  -6.709   3.911  0.00  0.00    -0.299 N 
ATOM      7  C   UNL     1      -7.836  -6.089   3.349  0.00  0.00    +0.306 C 
ATOM      8  O   UNL     1      -6.785  -6.683   3.211  0.00  0.00    -0.252 OA
ATOM      9  N   UNL     1      -7.945  -4.810   2.939  0.00  0.00    -0.242 N 
ATOM     10  C   UNL     1      -6.889  -4.189   2.377  0.00  0.00    +0.206 C 
ATOM     11  O   UNL     1      -5.840  -4.782   2.240  0.00  0.00    -0.277 OA
ATOM     12  H   UNL     1      -9.844  -6.171   4.036  0.00  0.00    +0.150 HD
ATOM     13  H   UNL     1      -8.896  -4.272   3.064  0.00  0.00    +0.159 HD
BRANCH   6  14
ATOM     14  C   UNL     1      -8.773  -8.100   4.356  0.00  0.00    +0.106 C 
BRANCH  14  15
ATOM     15  C   UNL     1     -10.105  -8.560   4.952  0.00  0.00    +0.018 C 
BRANCH  15  17
ATOM     16  C   UNL     1     -11.312 -10.473   6.013  0.00  0.00    +0.004 C 
ATOM     17  C   UNL     1      -9.981 -10.013   5.417  0.00  0.00    -0.002 C 
ENDBRANCH  15  17
ENDBRANCH  14  15
ENDBRANCH   6  14
ENDBRANCH   4  10
ENDBRANCH   1   4
BRANCH   1  18
ATOM     18  C   UNL     1      -5.935  -1.221   0.390  0.00  0.00    -0.043 C 
ATOM     19  C   UNL     1      -6.276  -1.801  -0.985  0.00  0.00    -0.009 C 
BRANCH  18  20
ATOM     20  C   UNL     1      -4.675  -0.401   0.291  0.00  0.00    -0.062 A 
ATOM     21  C   UNL     1      -4.753   0.977   0.204  0.00  0.00    +0.004 A 
ATOM     22  C   UNL     1      -3.600   1.732   0.113  0.00  0.00    +0.023 A 
ATOM     23  C   UNL     1      -2.361   1.105   0.110  0.00  0.00    +0.033 A 
ATOM     24  C   UNL     1      -2.286  -0.279   0.192  0.00  0.00    +0.023 A 
ATOM     25  C   UNL     1      -3.442  -1.028   0.287  0.00  0.00    +0.004 A 
BRANCH  23  26
ATOM     26  N   UNL     1      -1.191   1.867   0.018  0.00  0.00    -0.286 N 
ATOM     27  C   UNL     1      -1.125   3.076   0.609  0.00  0.00    +0.217 C 
ATOM     28  O   UNL     1      -2.107   3.541   1.149  0.00  0.00    -0.275 OA
ATOM     29  H   UNL     1      -0.324   1.478  -0.537  0.00  0.00    +0.155 HD
BRANCH  27  30
ATOM     30  C   UNL     1       0.169   3.848   0.605  0.00  0.00    +0.093 C 
ATOM     31  C   UNL     1      -0.026   5.174   1.343  0.00  0.00    +0.013 C 
ENDBRANCH  27  30
ENDBRANCH  23  26
ENDBRANCH  18  20
ENDBRANCH   1  18
TORSDOF 9
