REMARK  Name = ZINC38546391
REMARK  9 active torsions:
REMARK  status: ('A' for Active; 'I' for Inactive)
REMARK    1  A    between atoms: C_1  and  C_2
REMARK    2  A    between atoms: C_2  and  O_3
REMARK    3  A    between atoms: O_3  and  C_4
REMARK    4  A    between atoms: C_4  and  C_6
REMARK    5  A    between atoms: N_9  and  C_12
REMARK    6  A    between atoms: C_12  and  C_14
REMARK    7  A    between atoms: C_12  and  C_20
REMARK    8  A    between atoms: C_24  and  N_25
REMARK    9  A    between atoms: C_26  and  C_28
REMARK                            x       y       z     vdW  Elec       q    Type
REMARK                         _______ _______ _______ _____ _____    ______ ____
ROOT
ATOM      1  C   UNL     1      -6.128  -4.658  -1.314  0.00  0.00    -0.003 C 
ENDROOT
BRANCH   1   2
ATOM      2  C   UNL     1      -6.304  -6.155  -1.296  0.00  0.00    -0.025 A 
ATOM      3  C   UNL     1      -7.174  -6.745  -0.379  0.00  0.00    -0.033 A 
ATOM      4  C   UNL     1      -7.280  -8.100  -0.424  0.00  0.00    -0.005 A 
ATOM      5  S   UNL     1      -6.181  -8.569  -1.734  0.00  0.00    -0.078 S 
ATOM      6  C   UNL     1      -5.621  -6.932  -2.178  0.00  0.00    +0.074 A 
ATOM      7  C   UNL     1      -8.129  -8.977   0.437  0.00  0.00    +0.043 C 
ATOM      8  C   UNL     1      -8.605  -8.154   1.644  0.00  0.00    +0.005 C 
ATOM      9  C   UNL     1      -9.138  -6.809   1.142  0.00  0.00    +0.005 C 
ATOM     10  C   UNL     1      -7.983  -5.944   0.638  0.00  0.00    +0.036 C 
BRANCH   6  11
ATOM     11  N   UNL     1      -4.715  -6.551  -3.170  0.00  0.00    -0.273 N 
ATOM     12  C   UNL     1      -4.032  -7.488  -3.855  0.00  0.00    +0.284 C 
ATOM     13  O   UNL     1      -4.203  -8.668  -3.609  0.00  0.00    -0.266 OA
ATOM     14  H   UNL     1      -4.579  -5.610  -3.366  0.00  0.00    +0.156 HD
BRANCH  12  15
ATOM     15  C   UNL     1      -3.081  -7.087  -4.897  0.00  0.00    +0.189 A 
ATOM     16  C   UNL     1      -2.331  -7.930  -5.666  0.00  0.00    +0.054 A 
ATOM     17  C   UNL     1      -1.569  -7.123  -6.524  0.00  0.00    +0.042 A 
ATOM     18  C   UNL     1      -1.883  -5.838  -6.245  0.00  0.00    +0.196 A 
ATOM     19  O   UNL     1      -2.798  -5.821  -5.267  0.00  0.00    -0.458 OA
ENDBRANCH  12  15
ENDBRANCH   6  11
ENDBRANCH   1   2
BRANCH   1  23
ATOM     20  C   UNL     1      -2.233  -3.209  -0.372  0.00  0.00    +0.094 C 
ATOM     21  C   UNL     1      -3.039  -2.533  -1.484  0.00  0.00    -0.004 C 
ATOM     22  C   UNL     1      -4.520  -2.880  -1.317  0.00  0.00    -0.077 C 
ATOM     23  N   UNL     1      -4.697  -4.335  -1.397  0.00  0.00    +0.387 N 
ATOM     24  C   UNL     1      -3.985  -4.986  -0.291  0.00  0.00    -0.077 C 
ATOM     25  C   UNL     1      -2.483  -4.719  -0.419  0.00  0.00    -0.004 C 
ATOM     26  H   UNL     1      -4.329  -4.670  -2.276  0.00  0.00    -0.080 HD
BRANCH  20  27
ATOM     27  C   UNL     1      -0.765  -2.935  -0.576  0.00  0.00    +0.310 C 
ATOM     28  O   UNL     1       0.003  -3.853  -0.742  0.00  0.00    -0.251 OA
BRANCH  27  29
ATOM     29  O   UNL     1      -0.311  -1.672  -0.573  0.00  0.00    -0.465 OA
BRANCH  29  31
ATOM     30  C   UNL     1       1.418   0.008  -0.737  0.00  0.00    +0.048 C 
ATOM     31  C   UNL     1       1.092  -1.486  -0.772  0.00  0.00    +0.229 C 
ENDBRANCH  29  31
ENDBRANCH  27  29
ENDBRANCH  20  27
ENDBRANCH   1  23
BRANCH   1  32
ATOM     32  C   UNL     1      -6.843  -4.082  -2.509  0.00  0.00    -0.038 A 
ATOM     33  C   UNL     1      -8.175  -3.707  -2.416  0.00  0.00    +0.005 A 
ATOM     34  C   UNL     1      -8.792  -3.182  -3.541  0.00  0.00    +0.020 A 
ATOM     35  C   UNL     1      -8.065  -3.050  -4.709  0.00  0.00    +0.111 A 
ATOM     36  N   UNL     1      -6.800  -3.418  -4.761  0.00  0.00    -0.263 NA
ATOM     37  C   UNL     1      -6.179  -3.916  -3.709  0.00  0.00    +0.113 A 
ENDBRANCH   1  32
TORSDOF 8
