REMARK  Name = ZINC38845285
REMARK  13 active torsions:
REMARK  status: ('A' for Active; 'I' for Inactive)
REMARK    1  A    between atoms: C_1  and  C_2
REMARK    2  A    between atoms: C_2  and  N_3
REMARK    3  A    between atoms: N_3  and  C_4
REMARK    4  A    between atoms: N_3  and  C_6
REMARK    5  A    between atoms: C_4  and  C_5
REMARK    6  A    between atoms: C_6  and  C_7
REMARK    7  A    between atoms: C_7  and  N_8
REMARK    8  A    between atoms: C_17  and  S_18
REMARK    9  A    between atoms: S_18  and  C_21
REMARK   10  A    between atoms: C_22  and  C_24
REMARK   11  A    between atoms: C_24  and  C_25
REMARK   12  A    between atoms: C_25  and  S_26
REMARK   13  A    between atoms: S_26  and  C_27
REMARK                            x       y       z     vdW  Elec       q    Type
REMARK                         _______ _______ _______ _____ _____    ______ ____
ROOT
ATOM      1  N   UNL     1       2.336  -3.538  -0.352  0.00  0.00    -0.252 N 
ATOM      2  C   UNL     1       1.496  -4.393  -1.047  0.00  0.00    +0.168 A 
ATOM      3  N   UNL     1       1.619  -5.683  -1.250  0.00  0.00    -0.222 NA
ATOM      4  C   UNL     1       0.714  -6.397  -1.954  0.00  0.00    +0.105 A 
ATOM      5  C   UNL     1      -0.382  -5.665  -2.462  0.00  0.00    +0.043 A 
ATOM      6  S   UNL     1      -0.036  -4.019  -1.889  0.00  0.00    -0.052 S 
ATOM      7  C   UNL     1      -1.385  -6.246  -3.197  0.00  0.00    +0.017 A 
ATOM      8  C   UNL     1      -1.339  -7.603  -3.461  0.00  0.00    +0.003 A 
ATOM      9  C   UNL     1      -0.278  -8.354  -2.977  0.00  0.00    +0.029 A 
ATOM     10  C   UNL     1       0.728  -7.781  -2.243  0.00  0.00    +0.114 A 
ATOM     11  C   UNL     1       3.458  -4.015   0.221  0.00  0.00    +0.222 C 
ATOM     12  O   UNL     1       3.733  -5.193   0.128  0.00  0.00    -0.275 OA
ENDROOT
BRANCH  10  13
ATOM     13  S   UNL     1       2.054  -8.781  -1.653  0.00  0.00    -0.004 S 
ATOM     14  O   UNL     1       2.141  -8.486  -0.266  0.00  0.00    -0.170 OA
ATOM     15  O   UNL     1       1.741 -10.095  -2.095  0.00  0.00    -0.170 OA
ATOM     16  C   UNL     1       3.524  -8.164  -2.517  0.00  0.00    +0.200 C 
ENDBRANCH  10  13
BRANCH   1  17
ATOM     17  C   UNL     1       2.004  -2.115  -0.240  0.00  0.00    +0.097 C 
BRANCH  17  18
ATOM     18  C   UNL     1       1.156  -1.887   1.013  0.00  0.00    -0.059 C 
BRANCH  18  19
ATOM     19  N   UNL     1       0.823  -0.461   1.126  0.00  0.00    +0.380 N 
ATOM     20  H   UNL     1       1.671   0.085   1.109  0.00  0.00    -0.082 HD
BRANCH  19  22
ATOM     21  C   UNL     1      -0.264   1.445   0.037  0.00  0.00    -0.017 C 
ATOM     22  C   UNL     1      -0.034  -0.067  -0.001  0.00  0.00    -0.082 C 
ENDBRANCH  19  22
BRANCH  19  23
ATOM     23  C   UNL     1       0.111  -0.222   2.389  0.00  0.00    -0.082 C 
ATOM     24  C   UNL     1       1.053  -0.495   3.563  0.00  0.00    -0.017 C 
ENDBRANCH  19  23
ENDBRANCH  18  19
ENDBRANCH  17  18
ENDBRANCH   1  17
BRANCH  11  25
ATOM     25  C   UNL     1       4.372  -3.086   0.977  0.00  0.00    +0.107 C 
BRANCH  25  26
ATOM     26  C   UNL     1       5.564  -3.875   1.523  0.00  0.00    +0.083 C 
BRANCH  26  27
ATOM     27  S   UNL     1       6.664  -2.756   2.434  0.00  0.00    -0.125 S 
BRANCH  27  28
ATOM     28  C   UNL     1       7.968  -3.801   2.991  0.00  0.00    +0.008 A 
ATOM     29  C   UNL     1       7.957  -5.155   2.680  0.00  0.00    +0.016 A 
ATOM     30  C   UNL     1       8.981  -5.971   3.119  0.00  0.00    +0.021 A 
ATOM     31  C   UNL     1      10.017  -5.442   3.868  0.00  0.00    +0.041 A 
ATOM     32  C   UNL     1      10.031  -4.094   4.179  0.00  0.00    +0.021 A 
ATOM     33  C   UNL     1       9.013  -3.271   3.739  0.00  0.00    +0.016 A 
ATOM     34 CL   UNL     1      11.302  -6.472   4.418  0.00  0.00    -0.084 Cl
ENDBRANCH  27  28
ENDBRANCH  26  27
ENDBRANCH  25  26
ENDBRANCH  11  25
TORSDOF 10
