REMARK  Name = ZINC15787862
REMARK  10 active torsions:
REMARK  status: ('A' for Active; 'I' for Inactive)
REMARK    1  A    between atoms: C_1  and  N_52
REMARK    2  A    between atoms: C_2  and  N_52
REMARK    3  A    between atoms: C_3  and  C_5
REMARK    4  A    between atoms: C_3  and  C_24
REMARK    5  A    between atoms: C_3  and  N_52
REMARK    6  A    between atoms: C_5  and  N_6
REMARK    7  A    between atoms: C_7  and  C_9
REMARK    8  A    between atoms: C_12  and  N_15
REMARK    9  A    between atoms: N_15  and  S_16
REMARK   10  A    between atoms: S_16  and  C_19
REMARK                            x       y       z     vdW  Elec       q    Type
REMARK                         _______ _______ _______ _____ _____    ______ ____
ROOT
ATOM      1  N   UNL     1      -3.284   8.628  -0.726  0.00  0.00    -0.313 N 
ATOM      2  C   UNL     1      -3.407   7.902  -1.855  0.00  0.00    +0.244 C 
ATOM      3  O   UNL     1      -3.194   8.418  -2.935  0.00  0.00    -0.270 OA
ATOM      4  H   UNL     1      -3.453   8.217   0.136  0.00  0.00    +0.149 HD
ENDROOT
BRANCH   2   5
ATOM      5  C   UNL     1      -3.799   6.482  -1.779  0.00  0.00    +0.037 A 
ATOM      6  C   UNL     1      -3.927   5.728  -2.949  0.00  0.00    +0.015 A 
ATOM      7  C   UNL     1      -4.293   4.403  -2.875  0.00  0.00    +0.025 A 
ATOM      8  C   UNL     1      -4.536   3.815  -1.637  0.00  0.00    +0.048 A 
ATOM      9  C   UNL     1      -4.415   4.565  -0.471  0.00  0.00    +0.025 A 
ATOM     10  C   UNL     1      -4.044   5.888  -0.538  0.00  0.00    +0.015 A 
BRANCH   8  11
ATOM     11  N   UNL     1      -4.906   2.476  -1.566  0.00  0.00    -0.216 N 
ATOM     12  H   UNL     1      -5.823   2.236  -1.361  0.00  0.00    +0.174 HD
BRANCH  11  13
ATOM     13  S   UNL     1      -3.780   1.291  -1.832  0.00  0.00    +0.079 S 
ATOM     14  O   UNL     1      -4.456   0.049  -1.689  0.00  0.00    -0.149 OA
ATOM     15  O   UNL     1      -3.087   1.649  -3.019  0.00  0.00    -0.149 OA
BRANCH  13  16
ATOM     16  C   UNL     1      -2.609   1.381  -0.518  0.00  0.00    +0.146 A 
ATOM     17  C   UNL     1      -2.577   0.687   0.646  0.00  0.00    +0.036 A 
ATOM     18  C   UNL     1      -1.550   0.925   1.540  0.00  0.00    +0.010 A 
ATOM     19  C   UNL     1      -0.604   1.843   1.225  0.00  0.00    +0.047 A 
ATOM     20  S   UNL     1      -1.152   2.403  -0.379  0.00  0.00    -0.077 S 
ENDBRANCH  13  16
ENDBRANCH  11  13
ENDBRANCH   8  11
ENDBRANCH   2   5
BRANCH   1  21
ATOM     21  C   UNL     1      -2.894  10.039  -0.801  0.00  0.00    +0.094 C 
BRANCH  21  22
ATOM     22  C   UNL     1      -2.652  10.576   0.611  0.00  0.00    -0.020 C 
BRANCH  22  23
ATOM     23  C   UNL     1      -2.370  12.055   0.543  0.00  0.00    -0.041 A 
ATOM     24  C   UNL     1      -1.075  12.520   0.680  0.00  0.00    +0.003 A 
ATOM     25  C   UNL     1      -0.816  13.876   0.614  0.00  0.00    +0.000 A 
ATOM     26  C   UNL     1      -1.853  14.769   0.421  0.00  0.00    +0.001 A 
ATOM     27  C   UNL     1      -3.149  14.307   0.289  0.00  0.00    +0.020 A 
ATOM     28  C   UNL     1      -3.408  12.949   0.350  0.00  0.00    +0.043 A 
ATOM     29 CL   UNL     1      -5.035  12.367   0.185  0.00  0.00    -0.083 Cl
ENDBRANCH  22  23
BRANCH  22  32
ATOM     30  C   UNL     1      -1.921   8.652   1.885  0.00  0.00    -0.096 C 
ATOM     31  C   UNL     1      -0.472   9.607   0.196  0.00  0.00    -0.096 C 
ATOM     32  N   UNL     1      -1.489   9.903   1.227  0.00  0.00    +0.382 N 
ATOM     33  H   UNL     1      -1.078  10.526   1.932  0.00  0.00    -0.082 HD
ENDBRANCH  22  32
ENDBRANCH  21  22
ENDBRANCH   1  21
TORSDOF 8
