REMARK  Name = ZINC04761123
REMARK  17 active torsions:
REMARK  status: ('A' for Active; 'I' for Inactive)
REMARK    1  A    between atoms: C_1  and  C_2
REMARK    2  A    between atoms: C_7  and  C_22
REMARK    3  A    between atoms: C_9  and  C_13
REMARK    4  A    between atoms: C_10  and  C_12
REMARK    5  A    between atoms: C_13  and  O_15
REMARK    6  A    between atoms: O_15  and  C_16
REMARK    7  A    between atoms: C_16  and  C_17
REMARK    8  A    between atoms: C_17  and  O_18
REMARK    9  A    between atoms: O_18  and  C_19
REMARK   10  A    between atoms: C_19  and  C_20
REMARK   11  A    between atoms: C_19  and  C_21
REMARK   12  A    between atoms: C_25  and  N_28
REMARK   13  A    between atoms: N_28  and  C_29
REMARK   14  A    between atoms: N_28  and  C_30
REMARK   15  A    between atoms: C_33  and  C_35
REMARK   16  A    between atoms: C_35  and  O_37
REMARK   17  A    between atoms: O_37  and  C_38
REMARK                            x       y       z     vdW  Elec       q    Type
REMARK                         _______ _______ _______ _____ _____    ______ ____
ROOT
ATOM      1  C   UNL     1      -0.744  -2.707   1.686  0.00  0.00    +0.009 C 
ATOM      2  C   UNL     1      -1.319  -2.306   0.326  0.00  0.00    +0.013 C 
ATOM      3  C   UNL     1      -2.627  -3.062   0.078  0.00  0.00    +0.055 C 
ATOM      4  C   UNL     1      -3.219  -2.629  -1.240  0.00  0.00    +0.016 C 
ATOM      5  C   UNL     1      -3.027  -1.379  -1.712  0.00  0.00    +0.025 C 
ATOM      6  C   UNL     1      -3.623  -0.953  -3.030  0.00  0.00    +0.092 C 
ATOM      7  C   UNL     1      -4.718  -1.887  -3.453  0.00  0.00    +0.065 C 
ATOM      8  C   UNL     1      -4.838  -3.112  -2.912  0.00  0.00    +0.016 C 
ATOM      9  N   UNL     1      -3.963  -3.533  -1.950  0.00  0.00    -0.321 N 
ATOM     10  C   UNL     1      -5.945  -4.027  -3.369  0.00  0.00    +0.061 C 
ATOM     11  C   UNL     1      -2.265  -0.442  -0.993  0.00  0.00    +0.176 C 
ATOM     12  O   UNL     1      -2.127   0.681  -1.437  0.00  0.00    -0.291 OA
ATOM     13  C   UNL     1      -1.618  -0.803   0.316  0.00  0.00    +0.171 C 
ATOM     14  H   UNL     1      -3.859  -4.610  -1.750  0.00  0.00    +0.152 HD
ENDROOT
BRANCH   6  15
ATOM     15  C   UNL     1      -2.544  -0.947  -4.082  0.00  0.00    -0.035 A 
ATOM     16  C   UNL     1      -1.859  -2.112  -4.374  0.00  0.00    +0.006 A 
ATOM     17  C   UNL     1      -0.873  -2.111  -5.341  0.00  0.00    +0.023 A 
ATOM     18  C   UNL     1      -0.562  -0.935  -6.013  0.00  0.00    +0.029 A 
ATOM     19  C   UNL     1      -1.249   0.235  -5.713  0.00  0.00    +0.023 A 
ATOM     20  C   UNL     1      -2.237   0.226  -4.748  0.00  0.00    +0.006 A 
BRANCH  18  21
ATOM     21  N   UNL     1       0.438  -0.929  -6.988  0.00  0.00    -0.336 N 
ATOM     22  C   UNL     1       0.764   0.311  -7.695  0.00  0.00    +0.129 C 
ATOM     23  C   UNL     1       1.160  -2.164  -7.303  0.00  0.00    +0.129 C 
ENDBRANCH  18  21
ENDBRANCH   6  15
BRANCH   7  24
ATOM     24  C   UNL     1      -5.642  -1.472  -4.441  0.00  0.00    +0.338 C 
ATOM     25  O   UNL     1      -6.508  -0.664  -4.162  0.00  0.00    -0.245 OA
BRANCH  24  26
ATOM     26  O   UNL     1      -5.562  -1.971  -5.692  0.00  0.00    -0.459 OA
BRANCH  26  27
ATOM     27  C   UNL     1      -6.527  -1.507  -6.638  0.00  0.00    +0.260 C 
BRANCH  27  28
ATOM     28  C   UNL     1      -6.279  -2.179  -7.990  0.00  0.00    +0.201 C 
BRANCH  28  29
ATOM     29  O   UNL     1      -6.510  -3.584  -7.873  0.00  0.00    -0.374 OA
BRANCH  29  30
ATOM     30  C   UNL     1      -6.306  -4.310  -9.087  0.00  0.00    +0.112 C 
ATOM     31  C   UNL     1      -5.840  -5.730  -8.760  0.00  0.00    +0.037 C 
ATOM     32  C   UNL     1      -7.617  -4.371  -9.872  0.00  0.00    +0.037 C 
ENDBRANCH  29  30
ENDBRANCH  28  29
ENDBRANCH  27  28
ENDBRANCH  26  27
ENDBRANCH  24  26
ENDBRANCH   7  24
BRANCH  13  33
ATOM     33  C   UNL     1      -0.333  -0.033   0.474  0.00  0.00    +0.318 C 
ATOM     34  O   UNL     1       0.716  -0.623   0.583  0.00  0.00    -0.250 OA
BRANCH  33  35
ATOM     35  O   UNL     1      -0.353   1.309   0.493  0.00  0.00    -0.467 OA
ATOM     36  C   UNL     1       0.923   1.986   0.647  0.00  0.00    +0.280 C 
ENDBRANCH  33  35
ENDBRANCH  13  33
TORSDOF 10
