REMARK  Name = ZINC63409384
REMARK  7 active torsions:
REMARK  status: ('A' for Active; 'I' for Inactive)
REMARK    1  A    between atoms: C_1  and  C_2
REMARK    2  A    between atoms: C_2  and  C_3
REMARK    3  A    between atoms: C_2  and  C_4
REMARK    4  A    between atoms: C_2  and  C_5
REMARK    5  A    between atoms: C_7  and  C_11
REMARK    6  A    between atoms: N_13  and  N_14
REMARK    7  A    between atoms: C_15  and  C_16
REMARK                            x       y       z     vdW  Elec       q    Type
REMARK                         _______ _______ _______ _____ _____    ______ ____
ROOT
ATOM      1  C   UNL     1       3.543  -1.292  -4.729  0.00  0.00    +0.262 C 
ATOM      2  O   UNL     1       4.124  -1.893  -3.849  0.00  0.00    -0.271 OA
ATOM      3  N   UNL     1       4.028  -0.117  -5.176  0.00  0.00    -0.205 N 
ATOM      4  H   UNL     1       3.527   0.398  -5.827  0.00  0.00    +0.177 HD
ENDROOT
BRANCH   1   7
ATOM      5  C   UNL     1       0.456  -2.345  -4.095  0.00  0.00    +0.067 C 
ATOM      6  C   UNL     1       1.056  -1.281  -4.633  0.00  0.00    +0.036 C 
ATOM      7  C   UNL     1       2.280  -1.860  -5.321  0.00  0.00    +0.240 C 
ATOM      8  N   UNL     1       2.168  -3.301  -5.036  0.00  0.00    -0.170 NA
ATOM      9  N   UNL     1       1.151  -3.473  -4.359  0.00  0.00    -0.158 NA
BRANCH   5  11
ATOM     10  C   UNL     1      -1.310  -0.847  -3.208  0.00  0.00    +0.017 C 
ATOM     11  C   UNL     1      -0.820  -2.293  -3.295  0.00  0.00    +0.006 C 
ATOM     12  C   UNL     1      -0.560  -2.829  -1.885  0.00  0.00    +0.017 C 
ATOM     13  C   UNL     1      -1.885  -3.153  -3.978  0.00  0.00    +0.017 C 
ENDBRANCH   5  11
ENDBRANCH   1   7
BRANCH   3  14
ATOM     14  N   UNL     1       5.257   0.360  -4.701  0.00  0.00    -0.188 NA
ATOM     15  C   UNL     1       5.670   1.542  -5.043  0.00  0.00    +0.139 C 
BRANCH  15  16
ATOM     16  C   UNL     1       4.761   2.466  -5.745  0.00  0.00    +0.008 A 
ATOM     17  C   UNL     1       3.379   2.369  -5.559  0.00  0.00    +0.010 A 
ATOM     18  C   UNL     1       2.535   3.237  -6.218  0.00  0.00    +0.001 A 
ATOM     19  C   UNL     1       3.052   4.203  -7.064  0.00  0.00    +0.001 A 
ATOM     20  C   UNL     1       4.418   4.306  -7.254  0.00  0.00    +0.016 A 
ATOM     21  C   UNL     1       5.276   3.448  -6.596  0.00  0.00    +0.027 A 
ATOM     22 BR   UNL     1       7.144   3.595  -6.850  0.00  0.00    -0.050 Br
ENDBRANCH  15  16
ENDBRANCH   3  14
TORSDOF 4
