REMARK  Name = ZINC00569421
REMARK  7 active torsions:
REMARK  status: ('A' for Active; 'I' for Inactive)
REMARK    1  A    between atoms: C_1  and  C_2
REMARK    2  A    between atoms: C_4  and  C_10
REMARK    3  A    between atoms: C_5  and  O_9
REMARK    4  A    between atoms: N_11  and  C_12
REMARK    5  A    between atoms: C_15  and  N_18
REMARK    6  A    between atoms: N_18  and  C_19
REMARK    7  A    between atoms: C_19  and  N_21
REMARK                            x       y       z     vdW  Elec       q    Type
REMARK                         _______ _______ _______ _____ _____    ______ ____
ROOT
ATOM      1  C   UNL     1       0.066  -4.837  -3.651  0.00  0.00    +0.064 A 
ATOM      2  C   UNL     1      -1.027  -4.724  -4.514  0.00  0.00    +0.029 A 
ATOM      3  C   UNL     1      -1.026  -5.397  -5.716  0.00  0.00    +0.025 A 
ATOM      4  C   UNL     1       0.061  -6.188  -6.071  0.00  0.00    +0.033 A 
ATOM      5  C   UNL     1       1.151  -6.303  -5.215  0.00  0.00    +0.025 A 
ATOM      6  C   UNL     1       1.159  -5.628  -4.013  0.00  0.00    +0.029 A 
ENDROOT
BRANCH   1   8
ATOM      7  C   UNL     1      -0.314  -2.924  -2.405  0.00  0.00    +0.123 C 
ATOM      8  N   UNL     1       0.068  -4.169  -2.456  0.00  0.00    -0.255 NA
BRANCH   7  12
ATOM      9  C   UNL     1      -1.157   1.235   0.209  0.00  0.00    +0.044 C 
ATOM     10  C   UNL     1      -0.716  -0.205   0.146  0.00  0.00    -0.048 A 
ATOM     11  C   UNL     1      -0.720  -0.871  -1.061  0.00  0.00    +0.016 A 
ATOM     12  C   UNL     1      -0.311  -2.207  -1.121  0.00  0.00    +0.036 A 
ATOM     13  C   UNL     1       0.101  -2.859   0.051  0.00  0.00    +0.144 A 
ATOM     14  C   UNL     1       0.099  -2.173   1.256  0.00  0.00    +0.083 A 
ATOM     15  C   UNL     1      -0.303  -0.850   1.299  0.00  0.00    +0.027 A 
ATOM     16 CL   UNL     1       0.608  -2.972   2.710  0.00  0.00    -0.080 Cl
BRANCH  13  17
ATOM     17  O   UNL     1       0.500  -4.156   0.006  0.00  0.00    -0.505 OA
ATOM     18  H   UNL     1       1.447  -4.271  -0.155  0.00  0.00    +0.292 HD
ENDBRANCH  13  17
ENDBRANCH   7  12
ENDBRANCH   1   8
BRANCH   4  19
ATOM     19  N   UNL     1       0.059  -6.870  -7.291  0.00  0.00    -0.297 N 
ATOM     20  H   UNL     1      -0.731  -7.359  -7.572  0.00  0.00    +0.154 HD
BRANCH  19  21
ATOM     21  C   UNL     1       1.153  -6.848  -8.077  0.00  0.00    +0.132 C 
ATOM     22  S   UNL     1       2.583  -6.078  -7.534  0.00  0.00    -0.019 S 
BRANCH  21  23
ATOM     23  N   UNL     1       1.123  -7.434  -9.291  0.00  0.00    -0.340 N 
ATOM     24  H   UNL     1       0.313  -7.870  -9.599  0.00  0.00    +0.144 HD
ATOM     25  H   UNL     1       1.911  -7.418  -9.857  0.00  0.00    +0.144 HD
ENDBRANCH  21  23
ENDBRANCH  19  21
ENDBRANCH   4  19
TORSDOF 6
