REMARK  Name = ZINC19973817
REMARK  2 active torsions:
REMARK  status: ('A' for Active; 'I' for Inactive)
REMARK    1  A    between atoms: C_3  and  C_8
REMARK    2  A    between atoms: C_5  and  O_7
REMARK                            x       y       z     vdW  Elec       q    Type
REMARK                         _______ _______ _______ _____ _____    ______ ____
ROOT
ATOM      1  C   UNL     1       2.309   0.087  -0.908  0.00  0.00    +0.089 C 
ATOM      2  C   UNL     1       1.096  -0.666  -0.429  0.00  0.00    +0.024 C 
ATOM      3  C   UNL     1       0.002  -0.004   0.002  0.00  0.00    +0.015 C 
ATOM      4  C   UNL     1      -1.218  -0.748   0.485  0.00  0.00    +0.051 C 
ATOM      5  C   UNL     1      -1.334  -2.080  -0.260  0.00  0.00    +0.014 C 
ATOM      6  C   UNL     1      -0.055  -2.888  -0.013  0.00  0.00    +0.080 C 
ATOM      7  C   UNL     1       1.131  -2.072  -0.450  0.00  0.00    +0.162 C 
ATOM      8  O   UNL     1       2.138  -2.638  -0.827  0.00  0.00    -0.292 OA
ATOM      9  N   UNL     1      -0.017   1.363   0.009  0.00  0.00    -0.320 N 
ATOM     10  C   UNL     1       1.147   2.082   0.002  0.00  0.00    +0.015 C 
ATOM     11  C   UNL     1       2.293   1.515  -0.429  0.00  0.00    +0.024 C 
ATOM     12  C   UNL     1       3.499   2.239  -0.447  0.00  0.00    +0.162 C 
ATOM     13  O   UNL     1       4.516   1.694  -0.827  0.00  0.00    -0.292 OA
ATOM     14  C   UNL     1       3.551   3.676  -0.006  0.00  0.00    +0.080 C 
ATOM     15  C   UNL     1       2.184   4.324  -0.254  0.00  0.00    +0.014 C 
ATOM     16  C   UNL     1       1.120   3.510   0.487  0.00  0.00    +0.051 C 
ATOM     17  H   UNL     1      -0.977   1.900   0.021  0.00  0.00    +0.152 HD
ENDROOT
BRANCH   1  20
ATOM     18  C   UNL     1       1.310   0.613  -4.512  0.00  0.00    +0.004 A 
ATOM     19  C   UNL     1       1.289   0.625  -3.129  0.00  0.00    +0.005 A 
ATOM     20  C   UNL     1       2.336   0.072  -2.415  0.00  0.00    -0.032 A 
ATOM     21  C   UNL     1       3.409  -0.487  -3.081  0.00  0.00    +0.050 A 
ATOM     22  C   UNL     1       3.430  -0.505  -4.468  0.00  0.00    +0.117 A 
ATOM     23  C   UNL     1       2.378   0.050  -5.183  0.00  0.00    +0.045 A 
BRANCH  22  24
ATOM     24  O   UNL     1       4.482  -1.060  -5.125  0.00  0.00    -0.507 OA
ATOM     25  H   UNL     1       4.498  -1.074  -6.225  0.00  0.00    +0.292 HD
ENDBRANCH  22  24
ENDBRANCH   1  20
TORSDOF 2
