REMARK  Name = ZINC12904954
REMARK  4 active torsions:
REMARK  status: ('A' for Active; 'I' for Inactive)
REMARK    1  A    between atoms: N_10  and  C_14
REMARK    2  A    between atoms: C_14  and  C_15
REMARK    3  A    between atoms: N_17  and  C_18
REMARK    4  A    between atoms: C_19  and  C_27
REMARK                            x       y       z     vdW  Elec       q    Type
REMARK                         _______ _______ _______ _____ _____    ______ ____
ROOT
ATOM      1  C   UNL     1      -2.366   2.062   0.026  0.00  0.00    +0.236 C 
ATOM      2  O   UNL     1      -2.527   0.860   0.020  0.00  0.00    -0.274 OA
ATOM      3  N   UNL     1      -1.119   2.575   0.022  0.00  0.00    -0.278 N 
ATOM      4  H   UNL     1      -0.991   3.537   0.026  0.00  0.00    +0.155 HD
ENDROOT
BRANCH   3   5
ATOM      5  C   UNL     1      -0.021   1.728   0.011  0.00  0.00    +0.084 A 
ATOM      6  C   UNL     1       1.325   2.063   0.001  0.00  0.00    +0.068 A 
ATOM      7  C   UNL     1       2.288   0.974  -0.014  0.00  0.00    -0.023 A 
ATOM      8  C   UNL     1       1.753  -0.266  -0.016  0.00  0.00    -0.004 A 
ATOM      9  S   UNL     1       0.002  -0.004   0.002  0.00  0.00    -0.077 S 
ATOM     10  C   UNL     1       2.492  -1.568  -0.031  0.00  0.00    +0.043 C 
ATOM     11  C   UNL     1       3.951  -1.292  -0.422  0.00  0.00    +0.005 C 
ATOM     12  C   UNL     1       4.473  -0.121   0.416  0.00  0.00    +0.005 C 
ATOM     13  C   UNL     1       3.798   1.178  -0.027  0.00  0.00    +0.037 C 
BRANCH   6  14
ATOM     14  C   UNL     1       1.761   3.463   0.004  0.00  0.00    +0.244 C 
ATOM     15  O   UNL     1       1.952   4.038   1.059  0.00  0.00    -0.270 OA
ATOM     16  N   UNL     1       1.950   4.113  -1.162  0.00  0.00    -0.325 N 
ATOM     17  H   UNL     1       1.797   3.654  -2.003  0.00  0.00    +0.145 HD
ATOM     18  H   UNL     1       2.238   5.039  -1.160  0.00  0.00    +0.145 HD
ENDBRANCH   6  14
ENDBRANCH   3   5
BRANCH   1  19
ATOM     19  C   UNL     1      -3.559   2.983   0.037  0.00  0.00    +0.214 C 
BRANCH  19  29
ATOM     20  C   UNL     1      -9.896   0.260   0.768  0.00  0.00    +0.000 C 
ATOM     21  C   UNL     1      -9.059  -0.857   1.420  0.00  0.00    +0.000 C 
ATOM     22  C   UNL     1      -7.832  -1.195   0.616  0.00  0.00    +0.003 C 
ATOM     23  C   UNL     1      -6.648  -0.380   1.169  0.00  0.00    +0.035 C 
ATOM     24  C   UNL     1      -6.634   0.993   0.679  0.00  0.00    +0.113 C 
ATOM     25  C   UNL     1      -7.895   1.778   1.105  0.00  0.00    +0.035 C 
ATOM     26  C   UNL     1      -9.031   1.399   0.195  0.00  0.00    +0.003 C 
ATOM     27  C   UNL     1      -5.418   1.771   1.155  0.00  0.00    +0.247 C 
ATOM     28  O   UNL     1      -5.084   1.974   2.302  0.00  0.00    -0.273 OA
ATOM     29  N   UNL     1      -4.789   2.187   0.039  0.00  0.00    -0.215 N 
ATOM     30  C   UNL     1      -5.429   1.790  -1.066  0.00  0.00    +0.310 C 
ATOM     31  O   UNL     1      -5.054   2.048  -2.193  0.00  0.00    -0.252 OA
ATOM     32  N   UNL     1      -6.530   1.070  -0.792  0.00  0.00    -0.285 N 
ATOM     33  H   UNL     1      -7.141   0.679  -1.436  0.00  0.00    +0.151 HD
ENDBRANCH  19  29
ENDBRANCH   1  19
TORSDOF 4
