REMARK  Name = ZINC27574640
REMARK  12 active torsions:
REMARK  status: ('A' for Active; 'I' for Inactive)
REMARK    1  A    between atoms: C_1  and  N_2
REMARK    2  A    between atoms: C_3  and  C_5
REMARK    3  A    between atoms: C_8  and  C_11
REMARK    4  A    between atoms: C_11  and  N_12
REMARK    5  A    between atoms: N_12  and  C_13
REMARK    6  A    between atoms: N_12  and  C_19
REMARK    7  A    between atoms: C_13  and  C_14
REMARK    8  A    between atoms: C_19  and  C_20
REMARK    9  A    between atoms: N_22  and  C_23
REMARK   10  A    between atoms: C_24  and  C_32
REMARK   11  A    between atoms: C_32  and  O_34
REMARK   12  A    between atoms: O_34  and  C_35
REMARK                            x       y       z     vdW  Elec       q    Type
REMARK                         _______ _______ _______ _____ _____    ______ ____
ROOT
ATOM      1  N   UNL     1      -5.348   4.213   1.475  0.00  0.00    +0.393 N 
ATOM      2  H   UNL     1      -4.484   4.717   1.934  0.00  0.00    -0.080 HD
ENDROOT
BRANCH   1   3
ATOM      3  C   UNL     1      -5.055   4.025   0.048  0.00  0.00    -0.042 C 
BRANCH   3   7
ATOM      4  C   UNL     1      -3.231   7.564  -1.512  0.00  0.00    +0.037 A 
ATOM      5  C   UNL     1      -4.608   7.372  -1.638  0.00  0.00    +0.013 A 
ATOM      6  C   UNL     1      -5.189   6.225  -1.137  0.00  0.00    +0.002 A 
ATOM      7  C   UNL     1      -4.412   5.272  -0.502  0.00  0.00    -0.064 A 
ATOM      8  C   UNL     1      -3.048   5.460  -0.370  0.00  0.00    +0.002 A 
ATOM      9  C   UNL     1      -2.453   6.599  -0.871  0.00  0.00    +0.013 A 
BRANCH   4  12
ATOM     10  C   UNL     1      -2.728  10.925  -3.214  0.00  0.00    +0.128 C 
ATOM     11  N   UNL     1      -3.354   9.716  -2.675  0.00  0.00    -0.314 N 
ATOM     12  C   UNL     1      -2.601   8.788  -2.051  0.00  0.00    +0.244 C 
ATOM     13  O   UNL     1      -1.402   8.956  -1.936  0.00  0.00    -0.270 OA
ATOM     14  H   UNL     1      -4.438   9.564  -2.779  0.00  0.00    +0.149 HD
ENDBRANCH   4  12
ENDBRANCH   3   7
ENDBRANCH   1   3
BRANCH   1  15
ATOM     15  C   UNL     1      -5.528   2.921   2.150  0.00  0.00    -0.002 C 
BRANCH  15  16
ATOM     16  C   UNL     1      -4.184   2.274   2.363  0.00  0.00    +0.089 A 
ATOM     17  C   UNL     1      -3.354   2.505   3.397  0.00  0.00    +0.042 A 
ATOM     18  C   UNL     1      -2.215   1.692   3.198  0.00  0.00    +0.041 A 
ATOM     19  C   UNL     1      -2.417   1.013   2.054  0.00  0.00    +0.195 A 
ATOM     20  O   UNL     1      -3.613   1.365   1.556  0.00  0.00    -0.470 OA
ENDBRANCH  15  16
ENDBRANCH   1  15
BRANCH   1  21
ATOM     21  C   UNL     1      -6.524   5.074   1.662  0.00  0.00    +0.020 C 
BRANCH  21  22
ATOM     22  C   UNL     1      -6.649   5.444   3.118  0.00  0.00    +0.201 C 
ATOM     23  O   UNL     1      -5.838   5.032   3.920  0.00  0.00    -0.278 OA
ATOM     24  N   UNL     1      -7.662   6.233   3.528  0.00  0.00    -0.281 N 
ATOM     25  H   UNL     1      -8.397   6.607   2.800  0.00  0.00    +0.155 HD
BRANCH  24  26
ATOM     26  C   UNL     1      -7.777   6.574   4.866  0.00  0.00    +0.086 A 
ATOM     27  C   UNL     1      -8.737   7.372   5.474  0.00  0.00    +0.091 A 
ATOM     28  C   UNL     1      -8.633   7.571   6.910  0.00  0.00    -0.021 A 
ATOM     29  C   UNL     1      -7.587   6.954   7.502  0.00  0.00    -0.004 A 
ATOM     30  S   UNL     1      -6.753   6.114   6.186  0.00  0.00    -0.077 S 
ATOM     31  C   UNL     1      -7.225   6.985   8.955  0.00  0.00    +0.043 C 
ATOM     32  C   UNL     1      -8.003   8.127   9.624  0.00  0.00    +0.005 C 
ATOM     33  C   UNL     1      -9.472   8.038   9.199  0.00  0.00    +0.005 C 
ATOM     34  C   UNL     1      -9.610   8.412   7.722  0.00  0.00    +0.037 C 
BRANCH  27  35
ATOM     35  C   UNL     1      -9.816   7.986   4.699  0.00  0.00    +0.342 C 
ATOM     36  O   UNL     1     -10.866   7.392   4.541  0.00  0.00    -0.245 OA
BRANCH  35  37
ATOM     37  O   UNL     1      -9.647   9.210   4.158  0.00  0.00    -0.464 OA
ATOM     38  C   UNL     1     -10.759   9.757   3.402  0.00  0.00    +0.280 C 
ENDBRANCH  35  37
ENDBRANCH  27  35
ENDBRANCH  24  26
ENDBRANCH  21  22
ENDBRANCH   1  21
TORSDOF 10
