REMARK  Name = ZINC40781458
REMARK  5 active torsions:
REMARK  status: ('A' for Active; 'I' for Inactive)
REMARK    1  A    between atoms: C_4  and  C_7
REMARK    2  A    between atoms: C_7  and  N_8
REMARK    3  A    between atoms: C_16  and  N_29
REMARK    4  A    between atoms: C_17  and  N_21
REMARK    5  A    between atoms: N_21  and  C_22
REMARK                            x       y       z     vdW  Elec       q    Type
REMARK                         _______ _______ _______ _____ _____    ______ ____
ROOT
ATOM      1  N   UNL     1       4.201  -1.078   1.415  0.00  0.00    -0.264 N 
ATOM      2  C   UNL     1       3.908  -2.230   2.138  0.00  0.00    +0.127 A 
ATOM      3  C   UNL     1       3.156  -3.241   1.547  0.00  0.00    +0.044 A 
ATOM      4  C   UNL     1       2.872  -4.381   2.277  0.00  0.00    +0.005 A 
ATOM      5  C   UNL     1       3.351  -4.473   3.577  0.00  0.00    +0.020 A 
ATOM      6  C   UNL     1       4.090  -3.431   4.100  0.00  0.00    +0.113 A 
ATOM      7  N   UNL     1       4.350  -2.357   3.379  0.00  0.00    -0.240 NA
ATOM      8  C   UNL     1       5.102  -0.148   1.925  0.00  0.00    +0.153 A 
ATOM      9  C   UNL     1       6.449  -0.193   1.559  0.00  0.00    +0.104 A 
ATOM     10  C   UNL     1       7.311   0.764   2.099  0.00  0.00    +0.126 A 
ATOM     11  N   UNL     1       6.819   1.676   2.936  0.00  0.00    -0.333 N 
ATOM     12  C   UNL     1       5.540   1.682   3.255  0.00  0.00    +0.200 A 
ATOM     13  N   UNL     1       4.693   0.800   2.763  0.00  0.00    -0.220 NA
ATOM     14  H   UNL     1       7.410   2.344   3.316  0.00  0.00    +0.168 HD
ENDROOT
BRANCH   9  15
ATOM     15  N   UNL     1       6.924  -1.173   0.674  0.00  0.00    -0.353 N 
ATOM     16  H   UNL     1       6.302  -1.782   0.246  0.00  0.00    +0.143 HD
ATOM     17  H   UNL     1       7.874  -1.241   0.490  0.00  0.00    +0.143 HD
ENDBRANCH   9  15
BRANCH  10  18
ATOM     18  N   UNL     1       8.661   0.765   1.769  0.00  0.00    -0.298 N 
ATOM     19  H   UNL     1       9.015   0.087   1.172  0.00  0.00    +0.154 HD
BRANCH  18  20
ATOM     20  C   UNL     1       9.509   1.743   2.297  0.00  0.00    +0.047 A 
ATOM     21  C   UNL     1       9.938   2.797   1.500  0.00  0.00    +0.024 A 
ATOM     22  C   UNL     1      10.775   3.761   2.024  0.00  0.00    +0.002 A 
ATOM     23  C   UNL     1      11.188   3.679   3.342  0.00  0.00    +0.001 A 
ATOM     24  C   UNL     1      10.764   2.632   4.138  0.00  0.00    +0.017 A 
ATOM     25  C   UNL     1       9.921   1.666   3.622  0.00  0.00    +0.039 A 
ATOM     26 BR   UNL     1       9.335   0.239   4.715  0.00  0.00    -0.048 Br
ENDBRANCH  18  20
ENDBRANCH  10  18
BRANCH   1  27
ATOM     27  C   UNL     1       3.562  -0.843   0.119  0.00  0.00    +0.149 C 
BRANCH  27  31
ATOM     28  C   UNL     1      -0.084   1.308   0.695  0.00  0.00    +0.000 A 
ATOM     29  C   UNL     1       1.100   1.994   0.497  0.00  0.00    +0.000 A 
ATOM     30  C   UNL     1       2.280   1.298   0.310  0.00  0.00    +0.005 A 
ATOM     31  C   UNL     1       2.276  -0.084   0.323  0.00  0.00    -0.030 A 
ATOM     32  C   UNL     1       1.092  -0.770   0.522  0.00  0.00    +0.005 A 
ATOM     33  C   UNL     1      -0.088  -0.074   0.707  0.00  0.00    +0.000 A 
ENDBRANCH  27  31
ENDBRANCH   1  27
TORSDOF 5
