REMARK  Name = ZINC59385140
REMARK  8 active torsions:
REMARK  status: ('A' for Active; 'I' for Inactive)
REMARK    1  A    between atoms: C_1  and  C_2
REMARK    2  A    between atoms: C_3  and  C_17
REMARK    3  A    between atoms: C_4  and  C_10
REMARK    4  A    between atoms: C_15  and  O_16
REMARK    5  A    between atoms: N_19  and  N_20
REMARK    6  A    between atoms: C_21  and  C_22
REMARK    7  A    between atoms: C_25  and  O_29
REMARK    8  A    between atoms: C_27  and  O_28
REMARK                            x       y       z     vdW  Elec       q    Type
REMARK                         _______ _______ _______ _____ _____    ______ ____
ROOT
ATOM      1  C   UNL     1       0.565   1.310   0.469  0.00  0.00    +0.061 C 
ATOM      2  C   UNL     1       0.314  -0.148   0.181  0.00  0.00    +0.017 C 
ATOM      3  C   UNL     1      -0.955  -0.593   0.068  0.00  0.00    +0.057 C 
ATOM      4  C   UNL     1      -1.162  -2.066  -0.222  0.00  0.00    +0.143 C 
ATOM      5  N   UNL     1       0.047  -2.896  -0.358  0.00  0.00    -0.315 N 
ATOM      6  C   UNL     1       1.250  -2.305  -0.218  0.00  0.00    +0.135 C 
ATOM      7  S   UNL     1       2.663  -3.258  -0.373  0.00  0.00    -0.019 S 
ATOM      8  N   UNL     1       1.375  -0.996   0.034  0.00  0.00    -0.300 N 
ATOM      9  H   UNL     1      -0.021  -3.845  -0.544  0.00  0.00    +0.149 HD
ATOM     10  H   UNL     1       2.269  -0.630   0.120  0.00  0.00    +0.154 HD
ENDROOT
BRANCH   4  11
ATOM     11  C   UNL     1      -1.950  -2.180  -1.502  0.00  0.00    +0.019 A 
ATOM     12  C   UNL     1      -2.071  -1.088  -2.340  0.00  0.00    +0.009 A 
ATOM     13  C   UNL     1      -2.793  -1.193  -3.514  0.00  0.00    +0.001 A 
ATOM     14  C   UNL     1      -3.397  -2.390  -3.853  0.00  0.00    +0.004 A 
ATOM     15  C   UNL     1      -3.278  -3.485  -3.019  0.00  0.00    +0.046 A 
ATOM     16  C   UNL     1      -2.549  -3.384  -1.843  0.00  0.00    +0.122 A 
BRANCH  16  17
ATOM     17  O   UNL     1      -2.426  -4.462  -1.024  0.00  0.00    -0.506 OA
ATOM     18  H   UNL     1      -3.163  -4.573  -0.408  0.00  0.00    +0.292 HD
ENDBRANCH  16  17
ENDBRANCH   4  11
BRANCH   3  19
ATOM     19  C   UNL     1      -2.055   0.286   0.216  0.00  0.00    +0.263 C 
ATOM     20  O   UNL     1      -1.866   1.483   0.341  0.00  0.00    -0.269 OA
ATOM     21  N   UNL     1      -3.312  -0.202   0.218  0.00  0.00    -0.203 N 
ATOM     22  H   UNL     1      -3.467  -1.142   0.040  0.00  0.00    +0.178 HD
BRANCH  21  23
ATOM     23  N   UNL     1      -4.393   0.650   0.478  0.00  0.00    -0.187 NA
ATOM     24  C   UNL     1      -5.593   0.164   0.577  0.00  0.00    +0.142 C 
BRANCH  24  25
ATOM     25  C   UNL     1      -6.730   1.060   0.850  0.00  0.00    +0.036 A 
ATOM     26  C   UNL     1      -8.022   0.539   0.963  0.00  0.00    +0.016 A 
ATOM     27  C   UNL     1      -9.083   1.381   1.218  0.00  0.00    +0.046 A 
ATOM     28  C   UNL     1      -8.873   2.747   1.364  0.00  0.00    +0.120 A 
ATOM     29  C   UNL     1      -7.595   3.274   1.254  0.00  0.00    +0.091 A 
ATOM     30  C   UNL     1      -6.520   2.438   1.004  0.00  0.00    +0.129 A 
BRANCH  30  31
ATOM     31  O   UNL     1      -5.267   2.951   0.901  0.00  0.00    -0.506 OA
ATOM     32  H   UNL     1      -5.022   3.215   0.004  0.00  0.00    +0.292 HD
ENDBRANCH  30  31
BRANCH  28  33
ATOM     33  O   UNL     1      -9.925   3.570   1.615  0.00  0.00    -0.507 OA
ATOM     34  H   UNL     1     -10.109   3.697   2.555  0.00  0.00    +0.292 HD
ENDBRANCH  28  33
ENDBRANCH  24  25
ENDBRANCH  21  23
ENDBRANCH   3  19
TORSDOF 7
