REMARK  Name = ZINC45569554
REMARK  12 active torsions:
REMARK  status: ('A' for Active; 'I' for Inactive)
REMARK    1  A    between atoms: C_1  and  C_2
REMARK    2  A    between atoms: C_2  and  N_3
REMARK    3  A    between atoms: C_5  and  C_14
REMARK    4  A    between atoms: C_14  and  N_15
REMARK    5  A    between atoms: N_15  and  C_16
REMARK    6  A    between atoms: N_15  and  C_17
REMARK    7  A    between atoms: C_17  and  C_18
REMARK    8  A    between atoms: N_20  and  N_21
REMARK    9  A    between atoms: C_24  and  C_28
REMARK   10  A    between atoms: C_24  and  C_29
REMARK   11  A    between atoms: C_29  and  C_30
REMARK   12  A    between atoms: C_30  and  C_31
REMARK                            x       y       z     vdW  Elec       q    Type
REMARK                         _______ _______ _______ _____ _____    ______ ____
ROOT
ATOM      1  C   UNL     1       1.170   0.135  -8.458  0.00  0.00    +0.213 C 
ATOM      2  O   UNL     1       2.218   0.699  -8.223  0.00  0.00    -0.276 OA
ATOM      3  N   UNL     1       0.804  -0.103  -9.733  0.00  0.00    -0.225 N 
ATOM      4  H   UNL     1      -0.034  -0.554  -9.921  0.00  0.00    +0.173 HD
ENDROOT
BRANCH   3   5
ATOM      5  N   UNL     1       1.634   0.301 -10.787  0.00  0.00    -0.137 N 
ATOM      6  C   UNL     1       1.392   1.366 -11.575  0.00  0.00    +0.263 C 
ATOM      7  O   UNL     1       0.450   2.127 -11.510  0.00  0.00    -0.271 OA
ATOM      8  C   UNL     1       2.542   1.416 -12.562  0.00  0.00    +0.112 C 
ATOM      9  N   UNL     1       3.377   0.264 -12.178  0.00  0.00    -0.284 N 
ATOM     10  C   UNL     1       2.768  -0.320 -11.131  0.00  0.00    +0.326 C 
ATOM     11  O   UNL     1       3.198  -1.305 -10.563  0.00  0.00    -0.251 OA
ATOM     12  C   UNL     1       2.030   1.256 -13.995  0.00  0.00    +0.041 C 
ATOM     13  H   UNL     1       4.206  -0.016 -12.597  0.00  0.00    +0.151 HD
BRANCH   8  14
ATOM     14  C   UNL     1       3.324   2.722 -12.411  0.00  0.00    +0.040 C 
BRANCH  14  15
ATOM     15  C   UNL     1       4.477   2.745 -13.417  0.00  0.00    +0.038 C 
BRANCH  15  16
ATOM     16  C   UNL     1       5.247   4.031 -13.269  0.00  0.00    -0.047 A 
ATOM     17  C   UNL     1       4.883   5.144 -14.004  0.00  0.00    +0.003 A 
ATOM     18  C   UNL     1       5.590   6.324 -13.868  0.00  0.00    +0.000 A 
ATOM     19  C   UNL     1       6.661   6.392 -12.996  0.00  0.00    +0.000 A 
ATOM     20  C   UNL     1       7.025   5.279 -12.261  0.00  0.00    +0.000 A 
ATOM     21  C   UNL     1       6.315   4.101 -12.394  0.00  0.00    +0.003 A 
ENDBRANCH  15  16
ENDBRANCH  14  15
ENDBRANCH   8  14
ENDBRANCH   3   5
BRANCH   1  22
ATOM     22  C   UNL     1       0.277  -0.299  -7.324  0.00  0.00    +0.020 C 
BRANCH  22  23
ATOM     23  N   UNL     1       0.895   0.072  -6.044  0.00  0.00    +0.386 N 
ATOM     24  C   UNL     1       0.968   1.536  -5.942  0.00  0.00    -0.095 C 
ATOM     25  H   UNL     1       1.825  -0.315  -5.995  0.00  0.00    -0.081 HD
BRANCH  23  26
ATOM     26  C   UNL     1       0.085  -0.456  -4.938  0.00  0.00    -0.032 C 
BRANCH  26  29
ATOM     27  N   UNL     1       0.688  -0.476  -1.203  0.00  0.00    -0.324 N 
ATOM     28  C   UNL     1      -0.052  -0.728  -2.452  0.00  0.00    +0.147 C 
ATOM     29  C   UNL     1       0.792  -0.177  -3.610  0.00  0.00    +0.174 C 
ATOM     30  O   UNL     1       2.067  -0.823  -3.598  0.00  0.00    -0.487 OA
ATOM     31  C   UNL     1       2.741  -0.873  -2.419  0.00  0.00    +0.142 A 
ATOM     32  C   UNL     1       2.074  -0.700  -1.210  0.00  0.00    +0.072 A 
ATOM     33  C   UNL     1       2.775  -0.752  -0.016  0.00  0.00    +0.027 A 
ATOM     34  C   UNL     1       4.141  -0.970  -0.028  0.00  0.00    +0.002 A 
ATOM     35  C   UNL     1       4.805  -1.135  -1.229  0.00  0.00    +0.004 A 
ATOM     36  C   UNL     1       4.109  -1.095  -2.419  0.00  0.00    +0.047 A 
BRANCH  27  38
ATOM     37  C   UNL     1      -0.019   1.526   0.010  0.00  0.00    +0.024 C 
ATOM     38  C   UNL     1       0.002  -0.004   0.002  0.00  0.00    +0.102 C 
ENDBRANCH  27  38
ENDBRANCH  26  29
ENDBRANCH  23  26
ENDBRANCH  22  23
ENDBRANCH   1  22
TORSDOF 9
