REMARK  Name = ZINC39510744
REMARK  6 active torsions:
REMARK  status: ('A' for Active; 'I' for Inactive)
REMARK    1  A    between atoms: C_4  and  S_7
REMARK    2  A    between atoms: S_7  and  N_10
REMARK    3  A    between atoms: C_14  and  C_29
REMARK    4  A    between atoms: C_19  and  C_22
REMARK    5  A    between atoms: C_27  and  O_28
REMARK    6  A    between atoms: C_34  and  O_35
REMARK                            x       y       z     vdW  Elec       q    Type
REMARK                         _______ _______ _______ _____ _____    ______ ____
ROOT
ATOM      1  N   UNL     1       5.407  -1.443   1.032  0.00  0.00    -0.170 NA
ATOM      2  C   UNL     1       5.371  -0.159   1.750  0.00  0.00    +0.110 C 
ATOM      3  C   UNL     1       6.206  -0.289   3.028  0.00  0.00    +0.018 C 
ATOM      4  C   UNL     1       5.694  -1.471   3.854  0.00  0.00    +0.011 C 
ATOM      5  C   UNL     1       5.860  -2.765   3.051  0.00  0.00    +0.045 C 
ATOM      6  C   UNL     1       5.057  -2.662   1.756  0.00  0.00    +0.050 C 
ATOM      7  C   UNL     1       3.544  -2.700   2.048  0.00  0.00    +0.025 C 
ATOM      8  C   UNL     1       2.919  -3.211   0.732  0.00  0.00    +0.010 C 
ATOM      9  C   UNL     1       4.027  -3.975  -0.015  0.00  0.00    +0.024 C 
ATOM     10  C   UNL     1       5.289  -3.902   0.872  0.00  0.00    +0.033 C 
ENDROOT
BRANCH   9  11
ATOM     11  C   UNL     1       3.618  -5.411  -0.216  0.00  0.00    -0.003 A 
ATOM     12  C   UNL     1       3.316  -6.204   0.875  0.00  0.00    +0.007 A 
ATOM     13  C   UNL     1       2.942  -7.522   0.691  0.00  0.00    +0.001 A 
ATOM     14  C   UNL     1       2.868  -8.050  -0.585  0.00  0.00    +0.004 A 
ATOM     15  C   UNL     1       3.169  -7.263  -1.679  0.00  0.00    +0.046 A 
ATOM     16  C   UNL     1       3.540  -5.938  -1.497  0.00  0.00    +0.120 A 
BRANCH  16  17
ATOM     17  O   UNL     1       3.831  -5.159  -2.572  0.00  0.00    -0.506 OA
ATOM     18  H   UNL     1       4.762  -5.181  -2.833  0.00  0.00    +0.292 HD
ENDBRANCH  16  17
ENDBRANCH   9  11
BRANCH   5  19
ATOM     19  C   UNL     1       5.354  -3.929   3.863  0.00  0.00    -0.001 A 
ATOM     20  C   UNL     1       5.683  -5.221   3.500  0.00  0.00    +0.007 A 
ATOM     21  C   UNL     1       5.219  -6.289   4.245  0.00  0.00    +0.001 A 
ATOM     22  C   UNL     1       4.424  -6.068   5.354  0.00  0.00    +0.004 A 
ATOM     23  C   UNL     1       4.093  -4.779   5.722  0.00  0.00    +0.046 A 
ATOM     24  C   UNL     1       4.562  -3.704   4.979  0.00  0.00    +0.120 A 
BRANCH  24  25
ATOM     25  O   UNL     1       4.241  -2.434   5.342  0.00  0.00    -0.506 OA
ATOM     26  H   UNL     1       3.393  -2.128   4.993  0.00  0.00    +0.292 HD
ENDBRANCH  24  25
ENDBRANCH   5  19
BRANCH   1  27
ATOM     27  S   UNL     1       5.831  -1.504  -0.568  0.00  0.00    +0.061 S 
ATOM     28  O   UNL     1       5.755  -2.869  -0.956  0.00  0.00    -0.153 OA
ATOM     29  O   UNL     1       7.021  -0.739  -0.702  0.00  0.00    -0.153 OA
BRANCH  27  33
ATOM     30  C   UNL     1       2.619   0.681  -2.890  0.00  0.00    +0.000 A 
ATOM     31  C   UNL     1       3.635   1.392  -2.279  0.00  0.00    +0.002 A 
ATOM     32  C   UNL     1       4.615   0.725  -1.569  0.00  0.00    +0.028 A 
ATOM     33  C   UNL     1       4.580  -0.654  -1.471  0.00  0.00    +0.105 A 
ATOM     34  C   UNL     1       3.564  -1.364  -2.081  0.00  0.00    +0.028 A 
ATOM     35  C   UNL     1       2.583  -0.697  -2.792  0.00  0.00    +0.002 A 
ENDBRANCH  27  33
ENDBRANCH   1  27
TORSDOF 6
