REMARK  Name = ZINC39145870
REMARK  4 active torsions:
REMARK  status: ('A' for Active; 'I' for Inactive)
REMARK    1  A    between atoms: C_4  and  O_32
REMARK    2  A    between atoms: C_5  and  C_7
REMARK    3  A    between atoms: N_22  and  C_25
REMARK    4  A    between atoms: C_28  and  O_31
REMARK                            x       y       z     vdW  Elec       q    Type
REMARK                         _______ _______ _______ _____ _____    ______ ____
ROOT
ATOM      1  C   UNL     1       1.373  -1.869   0.074  0.00  0.00    +0.058 C 
ATOM      2  C   UNL     1       0.720  -2.128  -1.285  0.00  0.00    +0.117 C 
ATOM      3  C   UNL     1       1.021  -3.594  -1.624  0.00  0.00    +0.082 C 
ATOM      4  N   UNL     1       1.533  -3.758  -2.807  0.00  0.00    -0.168 NA
ATOM      5  C   UNL     1       1.888  -2.761  -3.638  0.00  0.00    +0.296 C 
ATOM      6  O   UNL     1       2.239  -2.828  -4.802  0.00  0.00    -0.261 OA
ATOM      7  S   UNL     1       1.695  -1.283  -2.598  0.00  0.00    -0.055 S 
ATOM      8  S   UNL     1       0.752  -4.827  -0.542  0.00  0.00    -0.110 S 
ATOM      9  C   UNL     1       0.652  -4.090   1.091  0.00  0.00    +0.092 C 
ATOM     10  C   UNL     1       0.556  -2.589   1.140  0.00  0.00    +0.074 C 
ATOM     11  C   UNL     1       0.987  -2.079   2.533  0.00  0.00    +0.114 C 
ATOM     12  C   UNL     1      -0.259  -1.412   3.070  0.00  0.00    +0.227 C 
ATOM     13  O   UNL     1      -0.356  -0.872   4.151  0.00  0.00    -0.275 OA
ATOM     14  N   UNL     1      -1.238  -1.511   2.163  0.00  0.00    -0.210 N 
ATOM     15  C   UNL     1      -0.892  -2.153   1.041  0.00  0.00    +0.234 C 
ATOM     16  O   UNL     1      -1.622  -2.354   0.094  0.00  0.00    -0.274 OA
ENDROOT
BRANCH   1  21
ATOM     17  C   UNL     1       0.212   1.674   0.670  0.00  0.00    +0.001 A 
ATOM     18  C   UNL     1       1.411   2.330   0.879  0.00  0.00    +0.004 A 
ATOM     19  C   UNL     1       2.601   1.630   0.827  0.00  0.00    +0.046 A 
ATOM     20  C   UNL     1       2.591   0.267   0.567  0.00  0.00    +0.120 A 
ATOM     21  C   UNL     1       1.387  -0.389   0.358  0.00  0.00    -0.000 A 
ATOM     22  C   UNL     1       0.200   0.317   0.410  0.00  0.00    +0.007 A 
BRANCH  20  23
ATOM     23  O   UNL     1       3.760  -0.424   0.515  0.00  0.00    -0.506 OA
ATOM     24  H   UNL     1       4.039  -0.790   1.366  0.00  0.00    +0.292 HD
ENDBRANCH  20  23
ENDBRANCH   1  21
BRANCH  14  25
ATOM     25  C   UNL     1      -2.523  -0.985   2.371  0.00  0.00    +0.044 A 
ATOM     26  C   UNL     1      -3.611  -1.838   2.496  0.00  0.00    +0.027 A 
ATOM     27  C   UNL     1      -4.874  -1.320   2.701  0.00  0.00    +0.047 A 
ATOM     28  C   UNL     1      -5.056   0.053   2.783  0.00  0.00    +0.117 A 
ATOM     29  C   UNL     1      -3.970   0.906   2.658  0.00  0.00    +0.047 A 
ATOM     30  C   UNL     1      -2.705   0.389   2.458  0.00  0.00    +0.027 A 
BRANCH  28  31
ATOM     31  O   UNL     1      -6.301   0.562   2.985  0.00  0.00    -0.507 OA
ATOM     32  H   UNL     1      -6.533   0.674   3.917  0.00  0.00    +0.292 HD
ENDBRANCH  28  31
ENDBRANCH  14  25
TORSDOF 4
