REMARK  Name = ZINC01058771
REMARK  9 active torsions:
REMARK  status: ('A' for Active; 'I' for Inactive)
REMARK    1  A    between atoms: C_1  and  C_2
REMARK    2  A    between atoms: C_2  and  C_35
REMARK    3  A    between atoms: C_6  and  C_26
REMARK    4  A    between atoms: C_8  and  C_22
REMARK    5  A    between atoms: C_9  and  N_21
REMARK    6  A    between atoms: N_10  and  C_11
REMARK    7  A    between atoms: C_16  and  C_17
REMARK    8  A    between atoms: C_22  and  O_24
REMARK    9  A    between atoms: O_24  and  C_25
REMARK                            x       y       z     vdW  Elec       q    Type
REMARK                         _______ _______ _______ _____ _____    ______ ____
ROOT
ATOM      1  C   UNL     1      -0.551   2.561  -0.951  0.00  0.00    +0.011 C 
ATOM      2  C   UNL     1       0.056   1.959   0.318  0.00  0.00    -0.023 C 
ATOM      3  C   UNL     1       0.130   0.436   0.180  0.00  0.00    +0.058 C 
ATOM      4  C   UNL     1       0.774  -0.153   1.411  0.00  0.00    +0.025 C 
ATOM      5  C   UNL     1       1.705   0.534   2.105  0.00  0.00    +0.025 C 
ATOM      6  C   UNL     1       2.357  -0.062   3.327  0.00  0.00    +0.095 C 
ATOM      7  C   UNL     1       1.555  -1.210   3.864  0.00  0.00    +0.084 C 
ATOM      8  C   UNL     1       0.618  -1.832   3.097  0.00  0.00    +0.103 C 
ATOM      9  N   UNL     1       0.387  -1.406   1.811  0.00  0.00    -0.260 N 
ATOM     10  C   UNL     1       2.093   1.828   1.713  0.00  0.00    +0.162 C 
ATOM     11  O   UNL     1       2.942   2.415   2.353  0.00  0.00    -0.292 OA
ATOM     12  C   UNL     1       1.477   2.498   0.515  0.00  0.00    +0.086 C 
ATOM     13  C   UNL     1      -0.805   2.324   1.529  0.00  0.00    +0.011 C 
ENDROOT
BRANCH   9  14
ATOM     14  C   UNL     1      -0.248  -2.260   0.901  0.00  0.00    +0.051 A 
ATOM     15  C   UNL     1       0.507  -3.035   0.031  0.00  0.00    +0.024 A 
ATOM     16  C   UNL     1      -0.123  -3.877  -0.865  0.00  0.00    +0.002 A 
ATOM     17  C   UNL     1      -1.504  -3.948  -0.896  0.00  0.00    +0.001 A 
ATOM     18  C   UNL     1      -2.258  -3.176  -0.031  0.00  0.00    +0.014 A 
ATOM     19  C   UNL     1      -1.634  -2.337   0.871  0.00  0.00    +0.076 A 
BRANCH  19  20
ATOM     20  C   UNL     1      -2.457  -1.502   1.818  0.00  0.00    +0.419 C 
ATOM     21  F   UNL     1      -3.813  -1.642   1.505  0.00  0.00    -0.166 F 
ATOM     22  F   UNL     1      -2.234  -1.930   3.131  0.00  0.00    -0.166 F 
ATOM     23  F   UNL     1      -2.087  -0.158   1.696  0.00  0.00    -0.166 F 
ENDBRANCH  19  20
ENDBRANCH   9  14
BRANCH   6  24
ATOM     24  C   UNL     1       3.736  -0.549   2.963  0.00  0.00    -0.017 A 
ATOM     25  C   UNL     1       4.854  -0.033   3.599  0.00  0.00    +0.007 A 
ATOM     26  C   UNL     1       6.103  -0.511   3.231  0.00  0.00    +0.020 A 
ATOM     27  C   UNL     1       6.190  -1.481   2.250  0.00  0.00    +0.111 A 
ATOM     28  N   UNL     1       5.104  -1.950   1.667  0.00  0.00    -0.263 NA
ATOM     29  C   UNL     1       3.901  -1.522   1.995  0.00  0.00    +0.115 A 
ENDBRANCH   6  24
BRANCH   8  30
ATOM     30  N   UNL     1      -0.098  -2.883   3.609  0.00  0.00    -0.346 N 
ATOM     31  H   UNL     1       0.006  -3.133   4.541  0.00  0.00    +0.143 HD
ATOM     32  H   UNL     1      -0.707  -3.378   3.039  0.00  0.00    +0.143 HD
ENDBRANCH   8  30
BRANCH   7  33
ATOM     33  C   UNL     1       1.774  -1.650   5.178  0.00  0.00    +0.339 C 
ATOM     34  O   UNL     1       1.351  -0.999   6.116  0.00  0.00    -0.245 OA
BRANCH  33  35
ATOM     35  O   UNL     1       2.454  -2.795   5.402  0.00  0.00    -0.465 OA
ATOM     36  C   UNL     1       2.640  -3.183   6.764  0.00  0.00    +0.280 C 
ENDBRANCH  33  35
ENDBRANCH   7  33
TORSDOF 6
