REMARK  Name = ZINC64610513
REMARK  5 active torsions:
REMARK  status: ('A' for Active; 'I' for Inactive)
REMARK    1  A    between atoms: C_6  and  N_10
REMARK    2  A    between atoms: C_7  and  C_8
REMARK    3  A    between atoms: C_11  and  C_13
REMARK    4  A    between atoms: C_13  and  C_14
REMARK    5  A    between atoms: C_14  and  C_19
REMARK                            x       y       z     vdW  Elec       q    Type
REMARK                         _______ _______ _______ _____ _____    ______ ____
ROOT
ATOM      1  N   UNL     1       4.814  -1.437   2.297  0.00  0.00    -0.279 N 
ATOM      2  C   UNL     1       4.834  -2.724   2.697  0.00  0.00    +0.219 C 
ATOM      3  O   UNL     1       3.859  -3.426   2.532  0.00  0.00    -0.275 OA
ATOM      4  H   UNL     1       5.594  -0.876   2.430  0.00  0.00    +0.155 HD
ENDROOT
BRANCH   1  10
ATOM      5  C   UNL     1      -0.019   1.541   0.011  0.00  0.00    +0.010 C 
ATOM      6  C   UNL     1       1.486   1.876  -0.002  0.00  0.00    +0.037 C 
ATOM      7  C   UNL     1       2.177   0.671   0.633  0.00  0.00    -0.018 A 
ATOM      8  C   UNL     1       1.324  -0.370   0.621  0.00  0.00    -0.004 A 
ATOM      9  S   UNL     1       2.229  -1.698   1.374  0.00  0.00    -0.077 S 
ATOM     10  C   UNL     1       3.676  -0.915   1.697  0.00  0.00    +0.090 A 
ATOM     11  C   UNL     1       3.477   0.369   1.229  0.00  0.00    +0.084 A 
ATOM     12  C   UNL     1       0.002  -0.004   0.002  0.00  0.00    +0.043 C 
BRANCH  11  13
ATOM     13  C   UNL     1       4.502   1.365   1.324  0.00  0.00    +0.102 C 
ATOM     14  N   UNL     1       5.315   2.154   1.399  0.00  0.00    -0.191 NA
ENDBRANCH  11  13
ENDBRANCH   1  10
BRANCH   2  15
ATOM     15  C   UNL     1       6.069  -3.292   3.349  0.00  0.00    +0.115 C 
BRANCH  15  16
ATOM     16  C   UNL     1       5.830  -4.761   3.703  0.00  0.00    +0.090 C 
ATOM     17  C   UNL     1       7.132  -5.354   4.237  0.00  0.00    +0.030 C 
ATOM     18  C   UNL     1       7.211  -5.181   5.779  0.00  0.00    +0.070 C 
ATOM     19  S   UNL     1       5.451  -5.531   6.218  0.00  0.00    -0.160 S 
ATOM     20  C   UNL     1       4.661  -4.843   4.704  0.00  0.00    +0.087 C 
BRANCH  16  21
ATOM     21  C   UNL     1       5.444  -5.502   2.448  0.00  0.00    +0.363 C 
ATOM     22  O   UNL     1       5.384  -4.909   1.385  0.00  0.00    -0.246 OA
ATOM     23  O   UNL     1       5.192  -6.694   2.497  0.00  0.00    -0.246 OA
ENDBRANCH  16  21
ENDBRANCH  15  16
ENDBRANCH   2  15
TORSDOF 5
