REMARK  Name = ZINC38827778
REMARK  14 active torsions:
REMARK  status: ('A' for Active; 'I' for Inactive)
REMARK    1  A    between atoms: C_1  and  N_2
REMARK    2  A    between atoms: N_2  and  C_3
REMARK    3  A    between atoms: N_2  and  C_4
REMARK    4  A    between atoms: C_4  and  C_5
REMARK    5  A    between atoms: C_5  and  N_6
REMARK    6  A    between atoms: C_10  and  O_18
REMARK    7  A    between atoms: C_13  and  O_16
REMARK    8  A    between atoms: O_16  and  C_17
REMARK    9  A    between atoms: O_18  and  C_19
REMARK   10  A    between atoms: C_20  and  C_22
REMARK   11  A    between atoms: C_22  and  C_23
REMARK   12  A    between atoms: C_23  and  C_24
REMARK   13  A    between atoms: C_24  and  S_25
REMARK   14  A    between atoms: S_25  and  C_28
REMARK                            x       y       z     vdW  Elec       q    Type
REMARK                         _______ _______ _______ _____ _____    ______ ____
ROOT
ATOM      1  N   UNL     1      -2.733  -2.544  -0.111  0.00  0.00    -0.252 N 
ATOM      2  C   UNL     1      -3.431  -2.679  -1.301  0.00  0.00    +0.168 A 
ATOM      3  N   UNL     1      -3.033  -2.414  -2.524  0.00  0.00    -0.221 NA
ATOM      4  C   UNL     1      -3.828  -2.596  -3.601  0.00  0.00    +0.125 A 
ATOM      5  C   UNL     1      -3.523  -2.351  -4.965  0.00  0.00    +0.147 A 
ATOM      6  C   UNL     1      -4.454  -2.591  -5.947  0.00  0.00    +0.051 A 
ATOM      7  C   UNL     1      -5.718  -3.080  -5.644  0.00  0.00    +0.050 A 
ATOM      8  C   UNL     1      -6.049  -3.331  -4.322  0.00  0.00    +0.136 A 
ATOM      9  C   UNL     1      -5.121  -3.093  -3.331  0.00  0.00    +0.086 A 
ATOM     10  S   UNL     1      -5.098  -3.266  -1.563  0.00  0.00    -0.048 S 
ATOM     11  C   UNL     1      -3.319  -2.879   1.055  0.00  0.00    +0.221 C 
ATOM     12  O   UNL     1      -4.457  -3.298   1.064  0.00  0.00    -0.275 OA
ENDROOT
BRANCH   8  13
ATOM     13  O   UNL     1      -7.282  -3.810  -4.004  0.00  0.00    -0.494 OA
ATOM     14  C   UNL     1      -8.190  -4.032  -5.084  0.00  0.00    +0.277 C 
ENDBRANCH   8  13
BRANCH   5  15
ATOM     15  O   UNL     1      -2.297  -1.871  -5.304  0.00  0.00    -0.493 OA
ATOM     16  C   UNL     1      -2.050  -1.644  -6.693  0.00  0.00    +0.277 C 
ENDBRANCH   5  15
BRANCH   1  17
ATOM     17  C   UNL     1      -1.358  -2.037  -0.122  0.00  0.00    +0.097 C 
BRANCH  17  18
ATOM     18  C   UNL     1      -1.376  -0.512   0.012  0.00  0.00    -0.060 C 
BRANCH  18  20
ATOM     19  C   UNL     1      -0.018   1.465   0.010  0.00  0.00    -0.097 C 
ATOM     20  N   UNL     1       0.002  -0.004   0.002  0.00  0.00    +0.377 N 
ATOM     21  C   UNL     1       0.713  -0.491   1.192  0.00  0.00    -0.097 C 
ATOM     22  H   UNL     1       0.474  -0.330  -0.828  0.00  0.00    -0.083 HD
ENDBRANCH  18  20
ENDBRANCH  17  18
ENDBRANCH   1  17
BRANCH  11  23
ATOM     23  C   UNL     1      -2.560  -2.731   2.349  0.00  0.00    +0.098 C 
BRANCH  23  24
ATOM     24  C   UNL     1      -3.447  -3.177   3.514  0.00  0.00    +0.032 C 
BRANCH  24  25
ATOM     25  C   UNL     1      -2.676  -3.027   4.827  0.00  0.00    +0.172 C 
BRANCH  25  26
ATOM     26  S   UNL     1      -3.728  -3.556   6.208  0.00  0.00    -0.003 S 
ATOM     27  O   UNL     1      -4.809  -2.649   6.374  0.00  0.00    -0.169 OA
ATOM     28  O   UNL     1      -3.960  -4.956   6.139  0.00  0.00    -0.169 OA
BRANCH  26  29
ATOM     29  C   UNL     1      -2.732  -3.336   7.645  0.00  0.00    +0.088 A 
ATOM     30  C   UNL     1      -1.925  -4.366   8.091  0.00  0.00    +0.028 A 
ATOM     31  C   UNL     1      -1.144  -4.194   9.218  0.00  0.00    +0.022 A 
ATOM     32  C   UNL     1      -1.169  -2.991   9.900  0.00  0.00    +0.041 A 
ATOM     33  C   UNL     1      -1.977  -1.960   9.453  0.00  0.00    +0.022 A 
ATOM     34  C   UNL     1      -2.753  -2.131   8.323  0.00  0.00    +0.028 A 
ATOM     35 CL   UNL     1      -0.189  -2.775  11.316  0.00  0.00    -0.084 Cl
ENDBRANCH  26  29
ENDBRANCH  25  26
ENDBRANCH  24  25
ENDBRANCH  23  24
ENDBRANCH  11  23
TORSDOF 10
