REMARK  Name = ZINC17214848
REMARK  9 active torsions:
REMARK  status: ('A' for Active; 'I' for Inactive)
REMARK    1  A    between atoms: C_1  and  C_2
REMARK    2  A    between atoms: N_7  and  N_9
REMARK    3  A    between atoms: N_10  and  C_11
REMARK    4  A    between atoms: C_14  and  C_17
REMARK    5  A    between atoms: C_17  and  C_18
REMARK    6  A    between atoms: C_17  and  C_24
REMARK    7  A    between atoms: C_17  and  O_35
REMARK    8  A    between atoms: C_24  and  O_26
REMARK    9  A    between atoms: O_26  and  C_27
REMARK                            x       y       z     vdW  Elec       q    Type
REMARK                         _______ _______ _______ _____ _____    ______ ____
ROOT
ATOM      1  C   UNL     1       0.002  -0.004   0.002  0.00  0.00    +0.213 C 
ENDROOT
BRANCH   1   5
ATOM      2  C   UNL     1      -3.258  -1.487   2.338  0.00  0.00    +0.088 A 
ATOM      3  C   UNL     1      -2.710  -2.271   1.323  0.00  0.00    +0.030 A 
ATOM      4  C   UNL     1      -1.658  -1.787   0.572  0.00  0.00    +0.009 A 
ATOM      5  C   UNL     1      -1.147  -0.527   0.825  0.00  0.00    -0.001 A 
ATOM      6  C   UNL     1      -1.683   0.254   1.834  0.00  0.00    +0.009 A 
ATOM      7  C   UNL     1      -2.738  -0.216   2.587  0.00  0.00    +0.030 A 
BRANCH   2   9
ATOM      8  N   UNL     1      -4.809  -1.235   4.026  0.00  0.00    -0.079 NA
ATOM      9  N   UNL     1      -4.304  -1.963   3.088  0.00  0.00    -0.134 NA
BRANCH   8  15
ATOM     10  C   UNL     1      -7.188  -0.937   8.256  0.00  0.00    +0.009 C 
ATOM     11  C   UNL     1      -6.461  -1.720   7.161  0.00  0.00    +0.005 C 
ATOM     12  C   UNL     1      -7.177  -3.051   6.923  0.00  0.00    +0.006 C 
ATOM     13  C   UNL     1      -6.431  -3.849   5.851  0.00  0.00    +0.021 C 
ATOM     14  C   UNL     1      -6.432  -3.058   4.539  0.00  0.00    +0.127 C 
ATOM     15  N   UNL     1      -5.876  -1.721   4.792  0.00  0.00    -0.237 N 
ATOM     16  C   UNL     1      -6.458  -0.907   5.867  0.00  0.00    +0.130 C 
ENDBRANCH   8  15
ENDBRANCH   2   9
ENDBRANCH   1   5
BRANCH   1  17
ATOM     17  C   UNL     1       1.120   0.427   0.916  0.00  0.00    -0.001 A 
ATOM     18  C   UNL     1       1.001   1.592   1.651  0.00  0.00    +0.007 A 
ATOM     19  C   UNL     1       2.024   1.985   2.494  0.00  0.00    +0.000 A 
ATOM     20  C   UNL     1       3.170   1.219   2.593  0.00  0.00    +0.000 A 
ATOM     21  C   UNL     1       3.291   0.057   1.854  0.00  0.00    +0.000 A 
ATOM     22  C   UNL     1       2.266  -0.339   1.016  0.00  0.00    +0.007 A 
ENDBRANCH   1  17
BRANCH   1  23
ATOM     23  C   UNL     1      -0.461   1.174  -0.816  0.00  0.00    +0.349 C 
ATOM     24  O   UNL     1      -1.404   1.832  -0.447  0.00  0.00    -0.247 OA
BRANCH  23  25
ATOM     25  O   UNL     1       0.175   1.492  -1.955  0.00  0.00    -0.460 OA
BRANCH  25  26
ATOM     26  C   UNL     1      -0.325   2.639  -2.691  0.00  0.00    +0.163 C 
ATOM     27  C   UNL     1      -1.381   2.179  -3.701  0.00  0.00    -0.033 C 
ATOM     28  C   UNL     1      -0.801   3.983  -5.211  0.00  0.00    -0.078 C 
ATOM     29  C   UNL     1       0.271   4.494  -4.244  0.00  0.00    -0.012 C 
ATOM     30  C   UNL     1       0.829   3.305  -3.450  0.00  0.00    +0.024 C 
ATOM     31  C   UNL     1       1.416   2.290  -4.439  0.00  0.00    -0.012 C 
ATOM     32  C   UNL     1       0.312   1.841  -5.400  0.00  0.00    -0.078 C 
ATOM     33  N   UNL     1      -0.961   2.519  -5.078  0.00  0.00    +0.382 N 
ATOM     34  H   UNL     1      -1.684   2.202  -5.734  0.00  0.00    -0.082 HD
ENDBRANCH  25  26
ENDBRANCH  23  25
ENDBRANCH   1  23
BRANCH   1  35
ATOM     35  O   UNL     1       0.471  -1.035  -0.870  0.00  0.00    -0.370 OA
ATOM     36  H   UNL     1      -0.197  -1.361  -1.488  0.00  0.00    +0.212 HD
ENDBRANCH   1  35
TORSDOF 8
