REMARK  Name = ZINC63280787
REMARK  12 active torsions:
REMARK  status: ('A' for Active; 'I' for Inactive)
REMARK    1  A    between atoms: C_1  and  C_2
REMARK    2  A    between atoms: C_4  and  C_17
REMARK    3  A    between atoms: C_7  and  O_12
REMARK    4  A    between atoms: O_12  and  C_13
REMARK    5  A    between atoms: C_17  and  C_18
REMARK    6  A    between atoms: C_18  and  N_19
REMARK    7  A    between atoms: C_20  and  C_22
REMARK    8  A    between atoms: C_28  and  O_30
REMARK    9  A    between atoms: O_30  and  C_31
REMARK   10  A    between atoms: C_31  and  C_32
REMARK   11  A    between atoms: C_31  and  C_33
REMARK   12  A    between atoms: C_31  and  C_34
REMARK                            x       y       z     vdW  Elec       q    Type
REMARK                         _______ _______ _______ _____ _____    ______ ____
ROOT
ATOM      1  C   UNL     1      -3.765  -1.048  -0.551  0.00  0.00    +0.108 C 
ENDROOT
BRANCH   1   2
ATOM      2  N   UNL     1      -4.819  -0.825  -1.544  0.00  0.00    -0.315 N 
ATOM      3  C   UNL     1      -6.036  -1.378  -1.371  0.00  0.00    +0.216 C 
ATOM      4  O   UNL     1      -6.259  -2.061  -0.394  0.00  0.00    -0.276 OA
ATOM      5  H   UNL     1      -4.641  -0.279  -2.326  0.00  0.00    +0.149 HD
BRANCH   3   6
ATOM      6  C   UNL     1      -7.120  -1.149  -2.393  0.00  0.00    +0.078 C 
ATOM      7  C   UNL     1      -7.406   0.350  -2.505  0.00  0.00    +0.032 C 
ATOM      8  C   UNL     1      -8.484   0.582  -3.568  0.00  0.00    +0.112 C 
ATOM      9  N   UNL     1      -9.660  -0.234  -3.236  0.00  0.00    -0.267 N 
ATOM     10  C   UNL     1      -9.481  -1.675  -3.018  0.00  0.00    +0.112 C 
ATOM     11  C   UNL     1      -8.392  -1.882  -1.960  0.00  0.00    +0.032 C 
ATOM     12  C   UNL     1     -10.880   0.330  -3.133  0.00  0.00    +0.403 C 
ATOM     13  O   UNL     1     -11.015   1.524  -3.316  0.00  0.00    -0.226 OA
BRANCH  12  14
ATOM     14  O   UNL     1     -11.949  -0.429  -2.828  0.00  0.00    -0.445 OA
BRANCH  14  15
ATOM     15  C   UNL     1     -13.211   0.234  -2.736  0.00  0.00    +0.107 C 
ATOM     16  C   UNL     1     -13.542   0.890  -4.078  0.00  0.00    +0.055 C 
ATOM     17  C   UNL     1     -14.298  -0.784  -2.383  0.00  0.00    +0.055 C 
ATOM     18  C   UNL     1     -13.145   1.307  -1.647  0.00  0.00    +0.055 C 
ENDBRANCH  14  15
ENDBRANCH  12  14
ENDBRANCH   3   6
ENDBRANCH   1   2
BRANCH   1  19
ATOM     19  C   UNL     1      -2.494  -0.315  -0.984  0.00  0.00    +0.052 C 
BRANCH  19  22
ATOM     20  C   UNL     1      -0.019   1.526   0.010  0.00  0.00    +0.035 C 
ATOM     21  C   UNL     1       0.002  -0.004   0.002  0.00  0.00    +0.103 C 
ATOM     22  C   UNL     1      -1.410  -0.545   0.038  0.00  0.00    -0.037 C 
ATOM     23  C   UNL     1      -1.503  -1.275   1.172  0.00  0.00    +0.003 A 
ATOM     24  C   UNL     1      -2.598  -2.045   1.773  0.00  0.00    +0.056 A 
ATOM     25  C   UNL     1      -2.393  -2.691   2.946  0.00  0.00    +0.131 A 
ATOM     26  C   UNL     1      -1.160  -2.651   3.620  0.00  0.00    +0.048 A 
ATOM     27  C   UNL     1      -0.095  -1.970   3.147  0.00  0.00    +0.029 A 
ATOM     28  C   UNL     1      -0.204  -1.234   1.883  0.00  0.00    +0.043 A 
ATOM     29  N   UNL     1       0.658  -0.508   1.214  0.00  0.00    -0.378 N 
ATOM     30  H   UNL     1       1.576  -0.332   1.476  0.00  0.00    +0.160 HD
BRANCH  25  31
ATOM     31  O   UNL     1      -3.416  -3.401   3.491  0.00  0.00    -0.406 OA
BRANCH  31  32
ATOM     32  C   UNL     1      -3.157  -4.065   4.729  0.00  0.00    +0.575 C 
ATOM     33  F   UNL     1      -2.796  -3.122   5.698  0.00  0.00    -0.133 F 
ATOM     34  F   UNL     1      -4.309  -4.743   5.145  0.00  0.00    -0.133 F 
ATOM     35  F   UNL     1      -2.114  -4.981   4.558  0.00  0.00    -0.133 F 
ENDBRANCH  31  32
ENDBRANCH  25  31
ENDBRANCH  19  22
ENDBRANCH   1  19
TORSDOF 8
