REMARK  Name = ZINC22163143
REMARK  9 active torsions:
REMARK  status: ('A' for Active; 'I' for Inactive)
REMARK    1  A    between atoms: C_1  and  C_2
REMARK    2  A    between atoms: C_2  and  C_3
REMARK    3  A    between atoms: C_12  and  C_13
REMARK    4  A    between atoms: C_13  and  C_15
REMARK    5  A    between atoms: C_15  and  C_17
REMARK    6  A    between atoms: C_15  and  O_23
REMARK    7  A    between atoms: O_23  and  C_24
REMARK    8  A    between atoms: C_24  and  C_26
REMARK    9  A    between atoms: C_26  and  C_27
REMARK                            x       y       z     vdW  Elec       q    Type
REMARK                         _______ _______ _______ _____ _____    ______ ____
ROOT
ATOM      1  C   UNL     1      -3.168   3.924   0.052  0.00  0.00    +0.277 C 
ENDROOT
BRANCH   1   2
ATOM      2  C   UNL     1      -3.614   3.595   1.454  0.00  0.00    +0.000 A 
ATOM      3  C   UNL     1      -3.893   4.613   2.347  0.00  0.00    +0.008 A 
ATOM      4  C   UNL     1      -4.305   4.312   3.631  0.00  0.00    +0.000 A 
ATOM      5  C   UNL     1      -4.430   2.993   4.025  0.00  0.00    +0.000 A 
ATOM      6  C   UNL     1      -4.146   1.975   3.134  0.00  0.00    +0.000 A 
ATOM      7  C   UNL     1      -3.737   2.276   1.848  0.00  0.00    +0.008 A 
ENDBRANCH   1   2
BRANCH   1   8
ATOM      8  C   UNL     1      -1.679   4.156   0.040  0.00  0.00    +0.210 C 
ATOM      9  O   UNL     1      -1.241   5.288   0.042  0.00  0.00    -0.288 OA
BRANCH   8  19
ATOM     10  C   UNL     1       2.477   1.488  -0.013  0.00  0.00    -0.024 A 
ATOM     11  C   UNL     1       3.389   2.520  -0.017  0.00  0.00    +0.005 A 
ATOM     12  C   UNL     1       2.963   3.840  -0.006  0.00  0.00    +0.001 A 
ATOM     13  C   UNL     1       1.617   4.136   0.008  0.00  0.00    +0.011 A 
ATOM     14  C   UNL     1       0.685   3.103   0.012  0.00  0.00    +0.011 A 
ATOM     15  C   UNL     1       1.114   1.766   0.001  0.00  0.00    +0.050 A 
ATOM     16  N   UNL     1      -0.011   0.966   0.007  0.00  0.00    -0.360 N 
ATOM     17  H   UNL     1       0.093  -0.129   0.005  0.00  0.00    +0.165 HD
ATOM     18  C   UNL     1      -1.129   1.716   0.016  0.00  0.00    +0.095 A 
ATOM     19  C   UNL     1      -0.790   3.053   0.025  0.00  0.00    +0.047 A 
BRANCH  10  21
ATOM     20  C   UNL     1       2.984  -0.458  -1.464  0.00  0.00    +0.009 C 
ATOM     21  C   UNL     1       2.954   0.059  -0.024  0.00  0.00    +0.034 C 
ENDBRANCH  10  21
ENDBRANCH   8  19
ENDBRANCH   1   8
BRANCH   1  22
ATOM     22  O   UNL     1      -3.849   5.123  -0.403  0.00  0.00    -0.448 OA
BRANCH  22  23
ATOM     23  C   UNL     1      -5.022   4.956  -1.034  0.00  0.00    +0.314 C 
ATOM     24  O   UNL     1      -5.465   3.845  -1.199  0.00  0.00    -0.250 OA
BRANCH  23  25
ATOM     25  C   UNL     1      -5.786   6.155  -1.534  0.00  0.00    +0.178 C 
BRANCH  25  26
ATOM     26  C   UNL     1      -7.059   5.697  -2.199  0.00  0.00    +0.080 A 
ATOM     27  C   UNL     1      -7.982   6.681  -2.766  0.00  0.00    +0.011 A 
ATOM     28  C   UNL     1      -7.717   8.051  -2.722  0.00  0.00    +0.010 A 
ATOM     29  C   UNL     1      -8.608   8.930  -3.272  0.00  0.00    +0.001 A 
ATOM     30  C   UNL     1      -9.773   8.479  -3.879  0.00  0.00    +0.001 A 
ATOM     31  C   UNL     1     -10.058   7.133  -3.942  0.00  0.00    +0.014 A 
ATOM     32  C   UNL     1      -9.164   6.218  -3.388  0.00  0.00    +0.050 A 
ATOM     33  C   UNL     1      -9.410   4.771  -3.422  0.00  0.00    +0.272 A 
ATOM     34  O   UNL     1     -10.417   4.325  -3.942  0.00  0.00    -0.266 OA
ATOM     35  N   UNL     1      -8.499   3.944  -2.866  0.00  0.00    -0.242 N 
ATOM     36  H   UNL     1      -8.663   2.857  -2.880  0.00  0.00    +0.192 HD
ATOM     37  N   UNL     1      -7.338   4.430  -2.264  0.00  0.00    -0.175 NA
ENDBRANCH  25  26
ENDBRANCH  23  25
ENDBRANCH  22  23
ENDBRANCH   1  22
TORSDOF 8
