REMARK  Name = ZINC67324851
REMARK  6 active torsions:
REMARK  status: ('A' for Active; 'I' for Inactive)
REMARK    1  A    between atoms: C_5  and  O_7
REMARK    2  A    between atoms: O_7  and  C_8
REMARK    3  A    between atoms: C_15  and  C_17
REMARK    4  A    between atoms: N_19  and  C_20
REMARK    5  A    between atoms: C_20  and  C_21
REMARK    6  A    between atoms: C_21  and  C_22
REMARK                            x       y       z     vdW  Elec       q    Type
REMARK                         _______ _______ _______ _____ _____    ______ ____
ROOT
ATOM      1  C   UNL     1       0.190   1.405  -0.914  0.00  0.00    +0.004 A 
ATOM      2  C   UNL     1       1.241   2.098  -0.346  0.00  0.00    +0.006 A 
ATOM      3  C   UNL     1       2.401   1.435   0.021  0.00  0.00    -0.022 A 
ATOM      4  C   UNL     1       2.501   0.069  -0.182  0.00  0.00    +0.082 A 
ATOM      5  C   UNL     1       1.440  -0.631  -0.757  0.00  0.00    +0.148 A 
ATOM      6  C   UNL     1       0.286   0.042  -1.122  0.00  0.00    +0.048 A 
ATOM      7  N   UNL     1       3.658  -0.630   0.188  0.00  0.00    -0.260 N 
ATOM      8  C   UNL     1       4.873   0.131   0.513  0.00  0.00    +0.114 C 
ATOM      9  C   UNL     1       4.465   1.303   1.414  0.00  0.00    +0.024 C 
ATOM     10  C   UNL     1       3.528   2.224   0.633  0.00  0.00    +0.038 C 
ATOM     11  C   UNL     1       3.657  -1.976   0.246  0.00  0.00    +0.306 C 
ATOM     12  O   UNL     1       2.612  -2.576   0.394  0.00  0.00    -0.265 OA
ENDROOT
BRANCH  11  13
ATOM     13  C   UNL     1       4.941  -2.730   0.127  0.00  0.00    +0.300 C 
ATOM     14  O   UNL     1       5.971  -2.138  -0.122  0.00  0.00    -0.265 OA
ATOM     15  N   UNL     1       4.955  -4.067   0.297  0.00  0.00    -0.307 N 
ATOM     16  H   UNL     1       4.132  -4.539   0.496  0.00  0.00    +0.149 HD
BRANCH  15  17
ATOM     17  C   UNL     1       6.215  -4.806   0.181  0.00  0.00    +0.112 C 
BRANCH  17  18
ATOM     18  C   UNL     1       5.955  -6.295   0.416  0.00  0.00    +0.093 C 
BRANCH  18  19
ATOM     19  C   UNL     1       7.251  -7.056   0.297  0.00  0.00    +0.106 A 
ATOM     20  C   UNL     1       8.104  -7.320   1.303  0.00  0.00    +0.044 A 
ATOM     21  C   UNL     1       9.179  -8.051   0.747  0.00  0.00    +0.041 A 
ATOM     22  C   UNL     1       8.919  -8.190  -0.565  0.00  0.00    +0.195 A 
ATOM     23  O   UNL     1       7.747  -7.590  -0.831  0.00  0.00    -0.468 OA
ENDBRANCH  18  19
ENDBRANCH  17  18
ENDBRANCH  15  17
ENDBRANCH  11  13
BRANCH   5  24
ATOM     24  O   UNL     1       1.540  -1.972  -0.960  0.00  0.00    -0.432 OA
BRANCH  24  25
ATOM     25  C   UNL     1       0.414  -2.623  -1.554  0.00  0.00    +0.541 C 
ATOM     26  F   UNL     1      -0.709  -2.448  -0.738  0.00  0.00    -0.166 F 
ATOM     27  F   UNL     1       0.167  -2.069  -2.814  0.00  0.00    -0.166 F 
ENDBRANCH  24  25
ENDBRANCH   5  24
TORSDOF 6
