REMARK  Name = ZINC12832944
REMARK  10 active torsions:
REMARK  status: ('A' for Active; 'I' for Inactive)
REMARK    1  A    between atoms: C_1  and  C_2
REMARK    2  A    between atoms: C_7  and  C_15
REMARK    3  A    between atoms: C_13  and  C_14
REMARK    4  A    between atoms: C_15  and  N_69
REMARK    5  A    between atoms: C_16  and  C_17
REMARK    6  A    between atoms: C_16  and  N_69
REMARK    7  A    between atoms: C_17  and  C_18
REMARK    8  A    between atoms: C_24  and  C_25
REMARK    9  A    between atoms: C_24  and  N_69
REMARK   10  A    between atoms: N_29  and  C_30
REMARK                            x       y       z     vdW  Elec       q    Type
REMARK                         _______ _______ _______ _____ _____    ______ ____
ROOT
ATOM      1  N   UNL     1      -1.951   4.609   0.546  0.00  0.00    +0.387 N 
ATOM      2  H   UNL     1      -0.976   4.767   0.827  0.00  0.00    -0.081 HD
ENDROOT
BRANCH   1   3
ATOM      3  C   UNL     1      -2.845   5.144   1.594  0.00  0.00    -0.037 C 
BRANCH   3  10
ATOM      4  C   UNL     1      -0.954  12.747   3.087  0.00  0.00    +0.044 C 
ATOM      5  C   UNL     1      -1.472  11.398   2.659  0.00  0.00    -0.046 A 
ATOM      6  C   UNL     1      -2.508  11.321   1.738  0.00  0.00    +0.004 A 
ATOM      7  C   UNL     1      -2.992  10.108   1.338  0.00  0.00    +0.010 A 
ATOM      8  C   UNL     1      -2.439   8.934   1.859  0.00  0.00    -0.001 A 
ATOM      9  C   UNL     1      -2.931   7.617   1.448  0.00  0.00    +0.017 A 
ATOM     10  C   UNL     1      -2.360   6.514   1.992  0.00  0.00    +0.001 A 
ATOM     11  C   UNL     1      -1.310   6.644   2.926  0.00  0.00    +0.251 A 
ATOM     12  O   UNL     1      -0.808   5.639   3.400  0.00  0.00    -0.268 OA
ATOM     13  N   UNL     1      -0.849   7.848   3.306  0.00  0.00    -0.322 N 
ATOM     14  H   UNL     1      -0.125   7.902   3.950  0.00  0.00    +0.169 HD
ATOM     15  C   UNL     1      -1.389   9.008   2.794  0.00  0.00    +0.052 A 
ATOM     16  C   UNL     1      -0.913  10.255   3.187  0.00  0.00    -0.024 A 
ATOM     17  C   UNL     1       0.210  10.354   4.187  0.00  0.00    +0.046 C 
ENDBRANCH   3  10
ENDBRANCH   1   3
BRANCH   1  18
ATOM     18  C   UNL     1      -2.199   5.306  -0.734  0.00  0.00    -0.073 C 
BRANCH  18  19
ATOM     19  C   UNL     1      -3.640   5.079  -1.197  0.00  0.00    +0.016 C 
BRANCH  19  20
ATOM     20  C   UNL     1      -3.866   5.795  -2.504  0.00  0.00    -0.049 A 
ATOM     21  C   UNL     1      -4.321   7.100  -2.507  0.00  0.00    +0.003 A 
ATOM     22  C   UNL     1      -4.524   7.759  -3.705  0.00  0.00    +0.000 A 
ATOM     23  C   UNL     1      -4.281   7.109  -4.901  0.00  0.00    +0.000 A 
ATOM     24  C   UNL     1      -3.832   5.801  -4.898  0.00  0.00    +0.000 A 
ATOM     25  C   UNL     1      -3.624   5.145  -3.699  0.00  0.00    +0.003 A 
ENDBRANCH  19  20
ENDBRANCH  18  19
ENDBRANCH   1  18
BRANCH   1  26
ATOM     26  C   UNL     1      -2.174   3.158   0.383  0.00  0.00    +0.001 C 
BRANCH  26  27
ATOM     27  C   UNL     1      -1.108   2.600  -0.524  0.00  0.00    +0.135 A 
ATOM     28  N   UNL     1      -1.172   2.483  -1.828  0.00  0.00    -0.115 NA
ATOM     29  N   UNL     1      -0.065   1.964  -2.236  0.00  0.00    -0.023 NA
ATOM     30  N   UNL     1       0.705   1.751  -1.226  0.00  0.00    -0.044 NA
ATOM     31  N   UNL     1       0.096   2.125  -0.152  0.00  0.00    -0.228 N 
BRANCH  31  32
ATOM     32  C   UNL     1       0.618   2.053   1.215  0.00  0.00    +0.111 C 
ATOM     33  C   UNL     1       1.901   2.879   1.315  0.00  0.00    +0.027 C 
ATOM     34  C   UNL     1       2.447   2.803   2.742  0.00  0.00    +0.002 C 
ATOM     35  C   UNL     1       2.750   1.346   3.095  0.00  0.00    +0.000 C 
ATOM     36  C   UNL     1       1.467   0.519   2.995  0.00  0.00    +0.002 C 
ATOM     37  C   UNL     1       0.921   0.595   1.568  0.00  0.00    +0.027 C 
ENDBRANCH  31  32
ENDBRANCH  26  27
ENDBRANCH   1  26
TORSDOF 8
