REMARK  Name = ZINC37616542
REMARK  7 active torsions:
REMARK  status: ('A' for Active; 'I' for Inactive)
REMARK    1  A    between atoms: C_1  and  C_2
REMARK    2  A    between atoms: C_2  and  N_3
REMARK    3  A    between atoms: N_3  and  S_4
REMARK    4  A    between atoms: S_4  and  C_7
REMARK    5  A    between atoms: C_12  and  N_13
REMARK    6  A    between atoms: C_14  and  C_16
REMARK    7  A    between atoms: C_16  and  N_21
REMARK                            x       y       z     vdW  Elec       q    Type
REMARK                         _______ _______ _______ _____ _____    ______ ____
ROOT
ATOM      1  C   UNL     1      -1.086  -2.835   0.989  0.00  0.00    +0.126 A 
ATOM      2  C   UNL     1      -1.850  -3.675   1.775  0.00  0.00    +0.030 A 
ATOM      3  C   UNL     1      -1.261  -4.388   2.803  0.00  0.00    +0.002 A 
ATOM      4  C   UNL     1       0.095  -4.262   3.047  0.00  0.00    +0.002 A 
ATOM      5  C   UNL     1       0.864  -3.424   2.265  0.00  0.00    +0.025 A 
ATOM      6  C   UNL     1       0.276  -2.710   1.228  0.00  0.00    +0.060 A 
ENDROOT
BRANCH   6   7
ATOM      7  N   UNL     1       1.054  -1.864   0.430  0.00  0.00    -0.285 N 
ATOM      8  C   UNL     1       2.093  -1.196   0.970  0.00  0.00    +0.206 C 
ATOM      9  O   UNL     1       2.410  -1.397   2.123  0.00  0.00    -0.277 OA
ATOM     10  H   UNL     1       0.845  -1.758  -0.511  0.00  0.00    +0.155 HD
BRANCH   8  11
ATOM     11  C   UNL     1       2.860  -0.199   0.140  0.00  0.00    +0.007 C 
ATOM     12  C   UNL     1       4.004  -0.902  -0.632  0.00  0.00    -0.004 C 
ATOM     13  C   UNL     1       5.114  -1.026   0.442  0.00  0.00    -0.001 C 
ATOM     14  C   UNL     1       5.017   0.290   1.240  0.00  0.00    -0.001 C 
ATOM     15  C   UNL     1       3.584   0.816   1.048  0.00  0.00    -0.004 C 
BRANCH  11  16
ATOM     16  N   UNL     1       1.959   0.495  -0.791  0.00  0.00    +0.388 N 
ATOM     17  H   UNL     1       1.299   1.050  -0.269  0.00  0.00    -0.089 HD
ATOM     18  H   UNL     1       2.499   1.095  -1.397  0.00  0.00    -0.089 HD
ATOM     19  H   UNL     1       1.462  -0.185  -1.347  0.00  0.00    -0.089 HD
ENDBRANCH  11  16
ENDBRANCH   8  11
ENDBRANCH   6   7
BRANCH   1  20
ATOM     20  S   UNL     1      -1.838  -1.927  -0.321  0.00  0.00    +0.060 S 
ATOM     21  O   UNL     1      -1.422  -0.577  -0.170  0.00  0.00    -0.153 OA
ATOM     22  O   UNL     1      -3.207  -2.305  -0.343  0.00  0.00    -0.153 OA
BRANCH  20  23
ATOM     23  N   UNL     1      -1.174  -2.471  -1.737  0.00  0.00    -0.190 NA
ATOM     24  H   UNL     1      -0.649  -1.870  -2.289  0.00  0.00    +0.148 HD
BRANCH  23  26
ATOM     25  C   UNL     1      -1.064  -3.994  -3.648  0.00  0.00    +0.022 C 
ATOM     26  C   UNL     1      -1.379  -3.860  -2.157  0.00  0.00    +0.102 C 
ENDBRANCH  23  26
ENDBRANCH  20  23
ENDBRANCH   1  20
TORSDOF 6
