REMARK  Name = ZINC06759953
REMARK  4 active torsions:
REMARK  status: ('A' for Active; 'I' for Inactive)
REMARK    1  A    between atoms: C_6  and  N_10
REMARK    2  A    between atoms: C_7  and  C_8
REMARK    3  A    between atoms: C_11  and  C_13
REMARK    4  A    between atoms: N_15  and  N_16
REMARK                            x       y       z     vdW  Elec       q    Type
REMARK                         _______ _______ _______ _____ _____    ______ ____
ROOT
ATOM      1  C   UNL     1      -6.321   6.973  -0.370  0.00  0.00    +0.010 C 
ATOM      2  C   UNL     1      -4.874   7.273   0.068  0.00  0.00    +0.037 C 
ATOM      3  C   UNL     1      -4.154   5.924   0.055  0.00  0.00    -0.021 A 
ATOM      4  C   UNL     1      -5.080   4.947   0.054  0.00  0.00    -0.004 A 
ATOM      5  S   UNL     1      -4.146   3.437   0.041  0.00  0.00    -0.077 S 
ATOM      6  C   UNL     1      -2.545   4.095   0.036  0.00  0.00    +0.087 A 
ATOM      7  C   UNL     1      -2.767   5.464   0.051  0.00  0.00    +0.095 A 
ATOM      8  C   UNL     1      -6.481   5.498   0.061  0.00  0.00    +0.043 C 
ENDROOT
BRANCH   6   9
ATOM      9  N   UNL     1      -1.337   3.420   0.027  0.00  0.00    -0.271 N 
ATOM     10  C   UNL     1      -1.319   2.072   0.020  0.00  0.00    +0.305 C 
ATOM     11  O   UNL     1      -2.362   1.451   0.021  0.00  0.00    -0.265 OA
ATOM     12  H   UNL     1      -0.504   3.916   0.026  0.00  0.00    +0.156 HD
BRANCH  10  13
ATOM     13  C   UNL     1      -0.016   1.344   0.009  0.00  0.00    +0.313 C 
ATOM     14  O   UNL     1       1.026   1.965   0.003  0.00  0.00    -0.264 OA
ATOM     15  N   UNL     1       0.002  -0.004   0.002  0.00  0.00    -0.246 N 
ATOM     16  H   UNL     1      -0.831  -0.500   0.007  0.00  0.00    +0.169 HD
BRANCH  15  17
ATOM     17  N   UNL     1       1.194  -0.671  -0.013  0.00  0.00    -0.254 NA
ATOM     18  H   UNL     1       1.774  -0.392   0.764  0.00  0.00    +0.140 HD
ATOM     19  H   UNL     1       1.050  -1.669  -0.017  0.00  0.00    +0.140 HD
ENDBRANCH  15  17
ENDBRANCH  10  13
ENDBRANCH   6   9
BRANCH   7  20
ATOM     20  C   UNL     1      -1.652   6.413   0.057  0.00  0.00    +0.389 C 
ATOM     21  O   UNL     1      -1.192   6.819  -0.994  0.00  0.00    -0.240 OA
ATOM     22  O   UNL     1      -1.135   6.839   1.228  0.00  0.00    -0.240 OA
ENDBRANCH   7  20
TORSDOF 4
