REMARK  Name = ZINC43743472
REMARK  12 active torsions:
REMARK  status: ('A' for Active; 'I' for Inactive)
REMARK    1  A    between atoms: CG2_1  and  CB_2
REMARK    2  A    between atoms: CB_2  and  CA_4
REMARK    3  A    between atoms: CB_2  and  OG1_39
REMARK    4  A    between atoms: CA_4  and  C_6
REMARK    5  A    between atoms: CA_4  and  N_9
REMARK    6  A    between atoms: C_10  and  C_12
REMARK    7  A    between atoms: C_12  and  O_13
REMARK    8  A    between atoms: O_13  and  N_14
REMARK    9  A    between atoms: C_18  and  C_38
REMARK   10  A    between atoms: C_23  and  C_37
REMARK   11  A    between atoms: C_34  and  C_35
REMARK   12  A    between atoms: C_34  and  O_36
REMARK                            x       y       z     vdW  Elec       q    Type
REMARK                         _______ _______ _______ _____ _____    ______ ____
ROOT
ATOM      1  N   UNK A   0       0.246  -7.294   3.754  0.00  0.00    -0.089 NA
ATOM      2  C   UNK A   0       0.446  -7.607   4.995  0.00  0.00    +0.080 C 
ATOM      3  C   UNK A   0       0.676  -6.553   6.062  0.00  0.00    +0.059 C 
ATOM      4  C   UNK A   0       1.953  -6.928   6.812  0.00  0.00    +0.017 C 
ATOM      5  C   UNK A   0       1.899  -8.328   7.373  0.00  0.00    -0.007 C 
ATOM      6  C   UNK A   0       1.394  -8.344   8.817  0.00  0.00    +0.002 C 
ATOM      7  C   UNK A   0       2.240  -7.399   9.665  0.00  0.00    +0.005 C 
ATOM      8  C   UNK A   0       1.856  -7.473  11.151  0.00  0.00    +0.010 C 
ATOM      9  C   UNK A   0       2.025  -8.916  11.587  0.00  0.00    -0.000 C 
ATOM     10  C   UNK A   0       0.995  -9.761  10.790  0.00  0.00    +0.001 C 
ATOM     11  C   UNK A   0       1.479  -9.784   9.352  0.00  0.00    -0.003 C 
ATOM     12  C   UNK A   0       0.574 -10.700   8.528  0.00  0.00    +0.008 C 
ATOM     13  C   UNK A   0       1.060 -10.746   7.075  0.00  0.00    +0.031 C 
ATOM     14  C   UNK A   0       1.121  -9.317   6.563  0.00  0.00    -0.062 C 
ATOM     15  C   UNK A   0       0.456  -9.009   5.456  0.00  0.00    +0.026 C 
ATOM     16  C   UNK A   0       1.049 -11.100  11.534  0.00  0.00    +0.007 C 
ATOM     17  C   UNK A   0       1.106 -10.667  13.024  0.00  0.00    +0.035 C 
ATOM     18  C   UNK A   0       1.686  -9.231  13.040  0.00  0.00    +0.069 C 
ATOM     19  C   UNK A   0       0.643  -8.244  13.568  0.00  0.00    +0.042 C 
ATOM     20  C   UNK A   0       3.445  -9.390  11.271  0.00  0.00    +0.014 C 
ATOM     21  C   UNK A   0       3.340  -8.839   7.425  0.00  0.00    +0.016 C 
ENDROOT
BRANCH  18  22
ATOM     22  O   UNK A   0       2.866  -9.183  13.845  0.00  0.00    -0.388 OA
ATOM     23  H   UNK A   0       2.713  -9.376  14.780  0.00  0.00    +0.210 HD
ENDBRANCH  18  22
BRANCH   1  24
ATOM     24  O   UNK A   0       0.245  -5.935   3.357  0.00  0.00    -0.384 OA
BRANCH  24  25
ATOM     25  C   UNK A   0       0.014  -5.737   1.961  0.00  0.00    +0.358 C 
BRANCH  25  27
ATOM     26  N   THR A   1      -0.164  -3.834   0.391  0.00  0.00    -0.297 N 
ATOM     27  C   UNK A   0       0.033  -4.261   1.653  0.00  0.00    +0.254 C 
ATOM     28  O   UNK A   0       0.227  -3.459   2.542  0.00  0.00    -0.272 OA
ATOM     29  H   THR A   1      -0.319  -4.476  -0.320  0.00  0.00    +0.150 HD
BRANCH  26  30
ATOM     30  CA  THR A   1      -0.145  -2.400   0.091  0.00  0.00    +0.215 C 
BRANCH  30  31
ATOM     31  C   THR A   1       1.277  -1.953  -0.133  0.00  0.00    +0.378 C 
ATOM     32  O   THR A   1       1.536  -0.764  -0.216  0.00  0.00    -0.244 OA
ATOM     33  OXT THR A   1       2.168  -2.779  -0.232  0.00  0.00    -0.244 OA
ENDBRANCH  30  31
BRANCH  30  35
ATOM     34  CG2 THR A   1      -1.053  -0.623  -1.412  0.00  0.00    +0.040 C 
ATOM     35  CB  THR A   1      -0.969  -2.131  -1.170  0.00  0.00    +0.143 C 
BRANCH  35  36
ATOM     36  OG1 THR A   1      -0.344  -2.760  -2.291  0.00  0.00    -0.390 OA
ATOM     37  HG1 THR A   1       0.555  -2.449  -2.465  0.00  0.00    +0.210 HD
ENDBRANCH  35  36
ENDBRANCH  30  35
ENDBRANCH  26  30
ENDBRANCH  25  27
ENDBRANCH  24  25
ENDBRANCH   1  24
TORSDOF 8
