REMARK  Name = ZINC31162496
REMARK  6 active torsions:
REMARK  status: ('A' for Active; 'I' for Inactive)
REMARK    1  A    between atoms: C_1  and  C_2
REMARK    2  A    between atoms: C_2  and  O_22
REMARK    3  A    between atoms: C_3  and  O_21
REMARK    4  A    between atoms: C_10  and  C_19
REMARK    5  A    between atoms: C_10  and  C_20
REMARK    6  A    between atoms: C_15  and  C_16
REMARK                            x       y       z     vdW  Elec       q    Type
REMARK                         _______ _______ _______ _____ _____    ______ ____
ROOT
ATOM      1  C   UNL     1      -0.019   1.526   0.010  0.00  0.00    +0.044 C 
ATOM      2  C   UNL     1       0.002  -0.004   0.002  0.00  0.00    +0.096 C 
ATOM      3  C   UNL     1       0.663  -0.512  -1.291  0.00  0.00    +0.147 C 
ATOM      4  C   UNL     1       1.911  -1.309  -0.878  0.00  0.00    +0.043 C 
ATOM      5  C   UNL     1       1.730  -1.654   0.613  0.00  0.00    +0.038 C 
ATOM      6  C   UNL     1       0.840  -0.517   1.161  0.00  0.00    +0.016 C 
ATOM      7  C   UNL     1       0.022  -0.963   2.366  0.00  0.00    +0.017 C 
ATOM      8  C   UNL     1       0.633  -0.250   3.593  0.00  0.00    -0.034 C 
ATOM      9  C   UNL     1       1.307   1.013   3.002  0.00  0.00    +0.014 C 
ATOM     10  C   UNL     1       1.876   0.519   1.650  0.00  0.00    +0.022 C 
ATOM     11  C   UNL     1       3.131  -0.284   1.899  0.00  0.00    -0.012 C 
ATOM     12  C   UNL     1       3.055  -1.496   1.324  0.00  0.00    +0.041 C 
ATOM     13  C   UNL     1       1.673  -1.145   4.270  0.00  0.00    +0.011 C 
ATOM     14  C   UNL     1      -0.463   0.143   4.585  0.00  0.00    +0.011 C 
ENDROOT
BRANCH  12  15
ATOM     15  C   UNL     1       4.098  -2.526   1.375  0.00  0.00    +0.383 C 
ATOM     16  O   UNL     1       5.142  -2.310   1.975  0.00  0.00    -0.241 OA
ATOM     17  O   UNL     1       3.924  -3.601   0.817  0.00  0.00    -0.241 OA
ENDBRANCH  12  15
BRANCH   3  18
ATOM     18  O   UNL     1       1.038   0.595  -2.113  0.00  0.00    -0.389 OA
ATOM     19  H   UNL     1       1.461   0.341  -2.945  0.00  0.00    +0.210 HD
ENDBRANCH   3  18
BRANCH   2  20
ATOM     20  O   UNL     1      -1.331  -0.509   0.103  0.00  0.00    -0.386 OA
ATOM     21  H   UNL     1      -1.915  -0.223  -0.612  0.00  0.00    +0.210 HD
ENDBRANCH   2  20
TORSDOF 3
