REMARK  Name = ZINC22833644
REMARK  10 active torsions:
REMARK  status: ('A' for Active; 'I' for Inactive)
REMARK    1  A    between atoms: C_1  and  C_2
REMARK    2  A    between atoms: C_2  and  O_3
REMARK    3  A    between atoms: O_3  and  C_4
REMARK    4  A    between atoms: C_9  and  N_10
REMARK    5  A    between atoms: C_11  and  C_13
REMARK    6  A    between atoms: C_13  and  C_15
REMARK    7  A    between atoms: C_13  and  O_21
REMARK    8  A    between atoms: O_21  and  C_22
REMARK    9  A    between atoms: C_22  and  C_24
REMARK   10  A    between atoms: C_28  and  N_30
REMARK                            x       y       z     vdW  Elec       q    Type
REMARK                         _______ _______ _______ _____ _____    ______ ____
ROOT
ATOM      1  C   UNL     1       4.930   4.173  -0.036  0.00  0.00    +0.292 C 
ENDROOT
BRANCH   1   2
ATOM      2  C   UNL     1       5.392   4.388   1.382  0.00  0.00    +0.002 A 
ATOM      3  C   UNL     1       4.470   4.666   2.374  0.00  0.00    +0.008 A 
ATOM      4  C   UNL     1       4.893   4.859   3.676  0.00  0.00    +0.000 A 
ATOM      5  C   UNL     1       6.239   4.782   3.984  0.00  0.00    +0.000 A 
ATOM      6  C   UNL     1       7.161   4.508   2.991  0.00  0.00    +0.000 A 
ATOM      7  C   UNL     1       6.737   4.312   1.690  0.00  0.00    +0.008 A 
ENDBRANCH   1   2
BRANCH   1   9
ATOM      8  N   UNL     1       5.886   6.266  -0.943  0.00  0.00    -0.279 N 
ATOM      9  C   UNL     1       4.795   5.505  -0.728  0.00  0.00    +0.263 C 
ATOM     10  O   UNL     1       3.705   5.893  -1.091  0.00  0.00    -0.271 OA
ATOM     11  H   UNL     1       6.861   5.959  -0.534  0.00  0.00    +0.155 HD
BRANCH   8  17
ATOM     12  C   UNL     1       6.705   8.475  -1.504  0.00  0.00    +0.142 A 
ATOM     13  C   UNL     1       6.596   9.642  -2.242  0.00  0.00    +0.047 A 
ATOM     14  C   UNL     1       5.570   9.787  -3.158  0.00  0.00    +0.004 A 
ATOM     15  C   UNL     1       4.652   8.770  -3.340  0.00  0.00    +0.002 A 
ATOM     16  C   UNL     1       4.758   7.600  -2.611  0.00  0.00    +0.027 A 
ATOM     17  C   UNL     1       5.780   7.449  -1.687  0.00  0.00    +0.076 A 
BRANCH  12  18
ATOM     18  O   UNL     1       7.714   8.330  -0.603  0.00  0.00    -0.490 OA
BRANCH  18  20
ATOM     19  C   UNL     1       9.682   9.079   0.583  0.00  0.00    +0.048 C 
ATOM     20  C   UNL     1       8.625   9.423  -0.469  0.00  0.00    +0.226 C 
ENDBRANCH  18  20
ENDBRANCH  12  18
ENDBRANCH   8  17
ENDBRANCH   1   9
BRANCH   1  21
ATOM     21  O   UNL     1       3.644   3.499  -0.030  0.00  0.00    -0.444 OA
BRANCH  21  22
ATOM     22  C   UNL     1       3.659   2.152  -0.048  0.00  0.00    +0.340 C 
ATOM     23  O   UNL     1       4.718   1.557  -0.068  0.00  0.00    -0.245 OA
BRANCH  22  24
ATOM     24  C   UNL     1       2.389   1.399  -0.042  0.00  0.00    +0.061 A 
ATOM     25  C   UNL     1       1.170   2.080  -0.019  0.00  0.00    +0.016 A 
ATOM     26  C   UNL     1      -0.013   1.372  -0.015  0.00  0.00    +0.018 A 
ATOM     27  C   UNL     1       0.006  -0.013  -0.033  0.00  0.00    +0.048 A 
ATOM     28  C   UNL     1       1.212  -0.695  -0.056  0.00  0.00    +0.141 A 
ATOM     29  C   UNL     1       2.401   0.003  -0.061  0.00  0.00    +0.048 A 
ATOM     30 BR   UNL     1      -1.620  -0.978  -0.027  0.00  0.00    -0.048 Br
BRANCH  28  31
ATOM     31  N   UNL     1       1.223  -2.175  -0.076  0.00  0.00    +0.058 N 
ATOM     32  O   UNL     1       2.282  -2.775  -0.096  0.00  0.00    -0.126 OA
ATOM     33  O   UNL     1       0.173  -2.792  -0.071  0.00  0.00    -0.126 OA
ENDBRANCH  28  31
ENDBRANCH  22  24
ENDBRANCH  21  22
ENDBRANCH   1  21
TORSDOF 9
