REMARK  Name = ZINC23157166
REMARK  5 active torsions:
REMARK  status: ('A' for Active; 'I' for Inactive)
REMARK    1  A    between atoms: C_8  and  C_20
REMARK    2  A    between atoms: N_10  and  C_12
REMARK    3  A    between atoms: C_12  and  C_13
REMARK    4  A    between atoms: C_16  and  O_19
REMARK    5  A    between atoms: C_25  and  C_28
REMARK                            x       y       z     vdW  Elec       q    Type
REMARK                         _______ _______ _______ _____ _____    ______ ____
ROOT
ATOM      1  C   UNL     1       2.171   5.001  -7.124  0.00  0.00    +0.000 A 
ATOM      2  C   UNL     1       3.334   5.529  -7.653  0.00  0.00    +0.000 A 
ATOM      3  C   UNL     1       4.528   5.374  -6.978  0.00  0.00    +0.002 A 
ATOM      4  C   UNL     1       4.568   4.690  -5.771  0.00  0.00    -0.061 A 
ATOM      5  C   UNL     1       3.408   4.161  -5.247  0.00  0.00    -0.047 A 
ATOM      6  C   UNL     1       2.209   4.319  -5.925  0.00  0.00    +0.004 A 
ATOM      7  C   UNL     1       3.403   3.405  -3.943  0.00  0.00    +0.029 C 
ATOM      8  C   UNL     1       4.687   3.694  -3.166  0.00  0.00    +0.025 C 
ATOM      9  N   UNL     1       5.836   3.490  -4.062  0.00  0.00    +0.393 N 
ATOM     10  C   UNL     1       5.893   4.555  -5.067  0.00  0.00    -0.041 C 
ATOM     11  H   UNL     1       5.707   2.532  -4.586  0.00  0.00    -0.080 HD
ENDROOT
BRANCH   8  12
ATOM     12  C   UNL     1       4.789   2.758  -1.990  0.00  0.00    +0.202 C 
ATOM     13  O   UNL     1       5.333   1.681  -2.117  0.00  0.00    -0.277 OA
ATOM     14  N   UNL     1       4.276   3.116  -0.796  0.00  0.00    -0.303 N 
ATOM     15  C   UNL     1       4.271   2.173   0.330  0.00  0.00    +0.108 C 
ATOM     16  C   UNL     1       2.843   2.057   0.870  0.00  0.00    +0.032 C 
ATOM     17  C   UNL     1       2.317   3.452   1.216  0.00  0.00    +0.078 C 
ATOM     18  C   UNL     1       2.288   4.315  -0.047  0.00  0.00    +0.032 C 
ATOM     19  C   UNL     1       3.710   4.457  -0.597  0.00  0.00    +0.108 C 
BRANCH  17  20
ATOM     20  C   UNL     1       0.924   3.338   1.780  0.00  0.00    +0.214 C 
ATOM     21  O   UNL     1       0.403   2.249   1.893  0.00  0.00    -0.276 OA
ATOM     22  N   UNL     1       0.256   4.447   2.153  0.00  0.00    -0.329 N 
ATOM     23  H   UNL     1      -0.761   4.364   2.564  0.00  0.00    +0.145 HD
ATOM     24  H   UNL     1       0.727   5.436   2.046  0.00  0.00    +0.145 HD
ENDBRANCH  17  20
ENDBRANCH   8  12
BRANCH   9  25
ATOM     25  C   UNL     1       7.090   3.414  -3.300  0.00  0.00    -0.041 C 
BRANCH  25  26
ATOM     26  C   UNL     1       8.224   3.072  -4.233  0.00  0.00    -0.064 A 
ATOM     27  C   UNL     1       8.557   1.749  -4.458  0.00  0.00    +0.005 A 
ATOM     28  C   UNL     1       9.592   1.432  -5.317  0.00  0.00    +0.045 A 
ATOM     29  C   UNL     1      10.305   2.444  -5.944  0.00  0.00    +0.117 A 
ATOM     30  C   UNL     1       9.973   3.770  -5.711  0.00  0.00    +0.045 A 
ATOM     31  C   UNL     1       8.934   4.082  -4.856  0.00  0.00    +0.005 A 
BRANCH  29  32
ATOM     32  O   UNL     1      11.328   2.135  -6.783  0.00  0.00    -0.507 OA
ATOM     33  H   UNL     1      11.893   2.938  -7.280  0.00  0.00    +0.292 HD
ENDBRANCH  29  32
ENDBRANCH  25  26
ENDBRANCH   9  25
TORSDOF 5
