REMARK  Name = ZINC10528863
REMARK  14 active torsions:
REMARK  status: ('A' for Active; 'I' for Inactive)
REMARK    1  A    between atoms: C_1  and  C_2
REMARK    2  A    between atoms: C_2  and  O_3
REMARK    3  A    between atoms: O_3  and  C_4
REMARK    4  A    between atoms: C_6  and  C_16
REMARK    5  A    between atoms: C_8  and  O_13
REMARK    6  A    between atoms: C_9  and  O_10
REMARK    7  A    between atoms: O_10  and  C_11
REMARK    8  A    between atoms: C_11  and  C_12
REMARK    9  A    between atoms: O_13  and  C_14
REMARK   10  A    between atoms: C_14  and  C_15
REMARK   11  A    between atoms: N_18  and  C_19
REMARK   12  A    between atoms: C_19  and  C_20
REMARK   13  A    between atoms: C_31  and  S_35
REMARK   14  A    between atoms: S_35  and  C_36
REMARK                            x       y       z     vdW  Elec       q    Type
REMARK                         _______ _______ _______ _____ _____    ______ ____
ROOT
ATOM      1  C   UNL     1       2.182  -2.993  -2.111  0.00  0.00    +0.253 C 
ATOM      2  O   UNL     1       2.047  -2.614  -3.258  0.00  0.00    -0.270 OA
ATOM      3  N   UNL     1       1.116  -3.450  -1.423  0.00  0.00    -0.242 N 
ATOM      4  C   UNL     1      -0.103  -3.609  -2.061  0.00  0.00    +0.169 A 
ATOM      5  N   UNL     1      -1.240  -4.036  -1.566  0.00  0.00    -0.224 NA
ATOM      6  C   UNL     1      -2.363  -4.142  -2.312  0.00  0.00    +0.080 A 
ATOM      7  C   UNL     1      -3.643  -4.584  -1.903  0.00  0.00    +0.030 A 
ATOM      8  C   UNL     1      -4.680  -4.633  -2.781  0.00  0.00    +0.017 A 
ATOM      9  C   UNL     1      -4.526  -4.251  -4.113  0.00  0.00    +0.009 A 
ATOM     10  C   UNL     1      -3.283  -3.811  -4.552  0.00  0.00    +0.032 A 
ATOM     11  C   UNL     1      -2.235  -3.761  -3.667  0.00  0.00    +0.042 A 
ATOM     12  S   UNL     1      -0.529  -3.277  -3.764  0.00  0.00    -0.052 S 
ENDROOT
BRANCH   1  15
ATOM     13  C   UNL     1       5.884  -3.330  -1.575  0.00  0.00    +0.166 A 
ATOM     14  C   UNL     1       4.641  -3.370  -2.177  0.00  0.00    +0.062 A 
ATOM     15  C   UNL     1       3.510  -2.951  -1.471  0.00  0.00    +0.044 A 
ATOM     16  C   UNL     1       3.641  -2.486  -0.159  0.00  0.00    +0.062 A 
ATOM     17  C   UNL     1       4.886  -2.453   0.440  0.00  0.00    +0.166 A 
ATOM     18  C   UNL     1       6.011  -2.872  -0.266  0.00  0.00    +0.204 A 
BRANCH  13  19
ATOM     19  O   UNL     1       6.985  -3.738  -2.261  0.00  0.00    -0.488 OA
BRANCH  19  21
ATOM     20  C   UNL     1       8.124  -4.609  -4.207  0.00  0.00    +0.048 C 
ATOM     21  C   UNL     1       6.782  -4.195  -3.600  0.00  0.00    +0.226 C 
ENDBRANCH  19  21
ENDBRANCH  13  19
BRANCH  18  22
ATOM     22  O   UNL     1       7.235  -2.834   0.324  0.00  0.00    -0.485 OA
BRANCH  22  23
ATOM     23  C   UNL     1       7.990  -1.630   0.174  0.00  0.00    +0.226 C 
ATOM     24  C   UNL     1       9.329  -1.774   0.900  0.00  0.00    +0.048 C 
ENDBRANCH  22  23
ENDBRANCH  18  22
BRANCH  17  25
ATOM     25  O   UNL     1       5.013  -2.007   1.718  0.00  0.00    -0.488 OA
BRANCH  25  26
ATOM     26  C   UNL     1       3.818  -1.593   2.383  0.00  0.00    +0.226 C 
ATOM     27  C   UNL     1       4.158  -1.126   3.800  0.00  0.00    +0.048 C 
ENDBRANCH  25  26
ENDBRANCH  17  25
ENDBRANCH   1  15
BRANCH   9  28
ATOM     28  S   UNL     1      -5.890  -4.326  -5.226  0.00  0.00    -0.129 S 
ATOM     29  C   UNL     1      -7.255  -4.947  -4.206  0.00  0.00    +0.090 C 
ENDBRANCH   9  28
BRANCH   3  30
ATOM     30  C   UNL     1       1.248  -3.780  -0.002  0.00  0.00    +0.152 C 
BRANCH  30  31
ATOM     31  C   UNL     1       0.123  -3.140   0.769  0.00  0.00    -0.012 A 
ATOM     32  C   UNL     1       0.243  -1.841   1.239  0.00  0.00    +0.008 A 
ATOM     33  C   UNL     1      -0.818  -1.293   1.943  0.00  0.00    +0.020 A 
ATOM     34  C   UNL     1      -1.952  -2.055   2.152  0.00  0.00    +0.111 A 
ATOM     35  N   UNL     1      -2.032  -3.287   1.690  0.00  0.00    -0.263 NA
ATOM     36  C   UNL     1      -1.042  -3.841   1.016  0.00  0.00    +0.116 A 
ENDBRANCH  30  31
ENDBRANCH   3  30
TORSDOF 10
