REMARK  Name = ZINC26120301
REMARK  12 active torsions:
REMARK  status: ('A' for Active; 'I' for Inactive)
REMARK    1  A    between atoms: C_1  and  C_2
REMARK    2  A    between atoms: C_2  and  N_3
REMARK    3  A    between atoms: N_3  and  C_4
REMARK    4  A    between atoms: N_3  and  C_6
REMARK    5  A    between atoms: C_4  and  C_5
REMARK    6  A    between atoms: C_6  and  C_8
REMARK    7  A    between atoms: C_6  and  C_30
REMARK    8  A    between atoms: C_8  and  N_9
REMARK    9  A    between atoms: C_10  and  C_12
REMARK   10  A    between atoms: C_12  and  S_13
REMARK   11  A    between atoms: S_13  and  C_14
REMARK   12  A    between atoms: N_24  and  C_25
REMARK                            x       y       z     vdW  Elec       q    Type
REMARK                         _______ _______ _______ _____ _____    ______ ____
ROOT
ATOM      1  C   UNL     1      -2.409  -1.115   3.814  0.00  0.00    +0.173 C 
ENDROOT
BRANCH   1   3
ATOM      2  N   UNL     1      -2.796  -3.520   4.242  0.00  0.00    -0.316 N 
ATOM      3  C   UNL     1      -2.191  -2.572   3.499  0.00  0.00    +0.223 C 
ATOM      4  O   UNL     1      -1.471  -2.892   2.577  0.00  0.00    -0.275 OA
ATOM      5  H   UNL     1      -3.449  -3.230   5.078  0.00  0.00    +0.149 HD
BRANCH   2   6
ATOM      6  C   UNL     1      -2.584  -4.937   3.935  0.00  0.00    +0.096 C 
BRANCH   6   7
ATOM      7  C   UNL     1      -3.379  -5.796   4.921  0.00  0.00    +0.016 C 
BRANCH   7   8
ATOM      8  C   UNL     1      -3.065  -7.251   4.684  0.00  0.00    +0.093 A 
ATOM      9  C   UNL     1      -3.832  -8.120   4.001  0.00  0.00    +0.043 A 
ATOM     10  C   UNL     1      -3.161  -9.364   4.025  0.00  0.00    +0.041 A 
ATOM     11  C   UNL     1      -2.029  -9.184   4.728  0.00  0.00    +0.195 A 
ATOM     12  O   UNL     1      -1.976  -7.902   5.125  0.00  0.00    -0.469 OA
ENDBRANCH   7   8
BRANCH   7  13
ATOM     13  N   UNL     1      -3.010  -5.433   6.295  0.00  0.00    +0.387 N 
ATOM     14  H   UNL     1      -3.198  -4.356   6.423  0.00  0.00    -0.081 HD
BRANCH  13  16
ATOM     15  C   UNL     1      -5.231  -5.523   7.323  0.00  0.00    -0.017 C 
ATOM     16  C   UNL     1      -3.838  -6.154   7.271  0.00  0.00    -0.081 C 
ENDBRANCH  13  16
BRANCH  13  17
ATOM     17  C   UNL     1      -1.581  -5.673   6.538  0.00  0.00    -0.081 C 
ATOM     18  C   UNL     1      -1.145  -4.924   7.798  0.00  0.00    -0.017 C 
ENDBRANCH  13  17
ENDBRANCH   7  13
ENDBRANCH   6   7
ENDBRANCH   2   6
ENDBRANCH   1   3
BRANCH   1  19
ATOM     19  S   UNL     1      -1.470  -0.098   2.649  0.00  0.00    -0.078 S 
BRANCH  19  20
ATOM     20  C   UNL     1      -1.896   1.509   3.232  0.00  0.00    +0.173 A 
ATOM     21  N   UNL     1      -2.703   1.607   4.259  0.00  0.00    -0.223 NA
ATOM     22  C   UNL     1      -3.071   2.805   4.757  0.00  0.00    +0.079 A 
ATOM     23  C   UNL     1      -3.934   2.909   5.852  0.00  0.00    +0.028 A 
ATOM     24  C   UNL     1      -4.281   4.144   6.324  0.00  0.00    +0.002 A 
ATOM     25  C   UNL     1      -3.789   5.300   5.732  0.00  0.00    +0.001 A 
ATOM     26  C   UNL     1      -2.944   5.230   4.659  0.00  0.00    +0.015 A 
ATOM     27  C   UNL     1      -2.574   3.984   4.156  0.00  0.00    +0.065 A 
ATOM     28  C   UNL     1      -1.665   3.848   3.010  0.00  0.00    +0.263 A 
ATOM     29  O   UNL     1      -1.200   4.825   2.453  0.00  0.00    -0.267 OA
ATOM     30  N   UNL     1      -1.369   2.595   2.592  0.00  0.00    -0.284 N 
BRANCH  30  31
ATOM     31  C   UNL     1      -0.472   2.402   1.450  0.00  0.00    +0.093 C 
ATOM     32  C   UNL     1      -1.126   2.950   0.165  0.00  0.00    +0.025 C 
ATOM     33  C   UNL     1      -0.552   4.381   0.027  0.00  0.00    +0.002 C 
ATOM     34  C   UNL     1       0.915   4.207   0.491  0.00  0.00    +0.002 C 
ATOM     35  C   UNL     1       0.826   3.201   1.658  0.00  0.00    +0.025 C 
ENDBRANCH  30  31
ENDBRANCH  19  20
ENDBRANCH   1  19
TORSDOF 10
