REMARK  Name = ZINC09638964
REMARK  7 active torsions:
REMARK  status: ('A' for Active; 'I' for Inactive)
REMARK    1  A    between atoms: C_1  and  C_2
REMARK    2  A    between atoms: C_2  and  O_3
REMARK    3  A    between atoms: O_3  and  C_4
REMARK    4  A    between atoms: C_12  and  N_17
REMARK    5  A    between atoms: C_13  and  C_14
REMARK    6  A    between atoms: C_18  and  C_20
REMARK    7  A    between atoms: C_20  and  C_21
REMARK                            x       y       z     vdW  Elec       q    Type
REMARK                         _______ _______ _______ _____ _____    ______ ____
ROOT
ATOM      1  C   UNL     1      -6.559   5.560  -8.625  0.00  0.00    +0.403 C 
ATOM      2  O   UNL     1      -7.628   5.971  -9.029  0.00  0.00    -0.226 OA
ATOM      3  N   UNL     1      -6.004   6.097  -7.521  0.00  0.00    -0.262 N 
ATOM      4  C   UNL     1      -6.669   7.181  -6.782  0.00  0.00    +0.116 C 
ATOM      5  C   UNL     1      -7.045   6.692  -5.382  0.00  0.00    +0.056 C 
ATOM      6  C   UNL     1      -5.843   5.996  -4.755  0.00  0.00    -0.020 A 
ATOM      7  C   UNL     1      -4.827   5.532  -5.514  0.00  0.00    +0.013 A 
ATOM      8  S   UNL     1      -3.690   4.814  -4.363  0.00  0.00    -0.076 S 
ATOM      9  C   UNL     1      -4.550   5.126  -2.891  0.00  0.00    +0.084 A 
ATOM     10  C   UNL     1      -5.698   5.772  -3.326  0.00  0.00    +0.068 A 
ATOM     11  C   UNL     1      -4.705   5.619  -7.005  0.00  0.00    +0.153 C 
ENDROOT
BRANCH  10  12
ATOM     12  C   UNL     1      -6.725   6.216  -2.379  0.00  0.00    +0.244 C 
ATOM     13  O   UNL     1      -6.664   7.330  -1.893  0.00  0.00    -0.270 OA
ATOM     14  N   UNL     1      -7.737   5.391  -2.047  0.00  0.00    -0.325 N 
ATOM     15  H   UNL     1      -7.786   4.503  -2.434  0.00  0.00    +0.145 HD
ATOM     16  H   UNL     1      -8.417   5.684  -1.420  0.00  0.00    +0.145 HD
ENDBRANCH  10  12
BRANCH   9  17
ATOM     17  N   UNL     1      -4.182   4.803  -1.594  0.00  0.00    -0.279 N 
ATOM     18  C   UNL     1      -3.019   4.162  -1.363  0.00  0.00    +0.222 C 
ATOM     19  O   UNL     1      -2.294   3.869  -2.289  0.00  0.00    -0.275 OA
ATOM     20  H   UNL     1      -4.762   5.037  -0.853  0.00  0.00    +0.155 HD
BRANCH  18  21
ATOM     21  C   UNL     1      -2.620   3.811   0.048  0.00  0.00    +0.131 C 
BRANCH  21  22
ATOM     22  C   UNL     1      -1.288   3.106   0.032  0.00  0.00    -0.031 A 
ATOM     23  C   UNL     1      -1.234   1.746   0.017  0.00  0.00    +0.005 A 
ATOM     24  C   UNL     1      -0.013   1.076   0.008  0.00  0.00    +0.001 A 
ATOM     25  C   UNL     1       1.163   1.762   0.000  0.00  0.00    +0.008 A 
ATOM     26  C   UNL     1       1.147   3.167   0.008  0.00  0.00    -0.018 A 
ATOM     27  C   UNL     1      -0.095   3.848   0.024  0.00  0.00    -0.014 A 
ATOM     28  C   UNL     1      -0.111   5.254   0.031  0.00  0.00    +0.009 A 
ATOM     29  C   UNL     1       1.064   5.940   0.023  0.00  0.00    +0.001 A 
ATOM     30  C   UNL     1       2.287   5.270   0.008  0.00  0.00    +0.001 A 
ATOM     31  C   UNL     1       2.340   3.910   0.000  0.00  0.00    +0.008 A 
ENDBRANCH  21  22
ENDBRANCH  18  21
ENDBRANCH   9  17
BRANCH   1  32
ATOM     32  O   UNL     1      -5.928   4.568  -9.281  0.00  0.00    -0.451 OA
BRANCH  32  34
ATOM     33  C   UNL     1      -5.723   2.926 -11.068  0.00  0.00    +0.048 C 
ATOM     34  C   UNL     1      -6.584   4.037 -10.463  0.00  0.00    +0.230 C 
ENDBRANCH  32  34
ENDBRANCH   1  32
TORSDOF 6
