REMARK  Name = ZINC40498009
REMARK  5 active torsions:
REMARK  status: ('A' for Active; 'I' for Inactive)
REMARK    1  A    between atoms: C_1  and  C_2
REMARK    2  A    between atoms: C_5  and  C_24
REMARK    3  A    between atoms: N_13  and  C_14
REMARK    4  A    between atoms: C_14  and  C_15
REMARK    5  A    between atoms: C_18  and  C_21
REMARK                            x       y       z     vdW  Elec       q    Type
REMARK                         _______ _______ _______ _____ _____    ______ ____
ROOT
ATOM      1  C   UNL     1       0.213   2.114   0.446  0.00  0.00    +0.028 C 
ATOM      2  C   UNL     1       0.039   0.612   0.212  0.00  0.00    +0.072 C 
ATOM      3  C   UNL     1       0.482   0.254  -1.213  0.00  0.00    +0.039 C 
ATOM      4  C   UNL     1       0.235  -1.236  -1.447  0.00  0.00    +0.108 C 
ATOM      5  C   UNL     1       0.843  -2.053  -0.338  0.00  0.00    -0.014 A 
ATOM      6  C   UNL     1       1.112  -3.393  -0.561  0.00  0.00    +0.006 A 
ATOM      7  C   UNL     1       1.668  -4.169   0.437  0.00  0.00    +0.000 A 
ATOM      8  C   UNL     1       1.959  -3.611   1.669  0.00  0.00    +0.002 A 
ATOM      9  C   UNL     1       1.696  -2.276   1.900  0.00  0.00    +0.023 A 
ATOM     10  C   UNL     1       1.137  -1.493   0.896  0.00  0.00    +0.034 A 
ATOM     11  N   UNL     1       0.885  -0.140   1.149  0.00  0.00    -0.323 N 
ENDROOT
BRANCH   4  12
ATOM     12  C   UNL     1       0.855  -1.645  -2.758  0.00  0.00    +0.218 C 
ATOM     13  O   UNL     1       1.883  -1.119  -3.133  0.00  0.00    -0.275 OA
ATOM     14  N   UNL     1       0.269  -2.593  -3.515  0.00  0.00    -0.329 N 
ATOM     15  H   UNL     1      -0.589  -2.961  -3.253  0.00  0.00    +0.145 HD
ATOM     16  H   UNL     1       0.706  -2.909  -4.322  0.00  0.00    +0.145 HD
ENDBRANCH   4  12
BRANCH  11  17
ATOM     17  C   UNL     1       1.456   0.517   2.327  0.00  0.00    +0.140 C 
BRANCH  17  18
ATOM     18  C   UNL     1       0.504   0.381   3.488  0.00  0.00    -0.030 A 
ATOM     19  C   UNL     1      -0.555   1.261   3.617  0.00  0.00    +0.006 A 
ATOM     20  C   UNL     1      -1.429   1.142   4.678  0.00  0.00    +0.013 A 
ATOM     21  C   UNL     1      -1.243   0.131   5.622  0.00  0.00    +0.037 A 
ATOM     22  C   UNL     1      -0.173  -0.754   5.485  0.00  0.00    +0.013 A 
ATOM     23  C   UNL     1       0.691  -0.627   4.417  0.00  0.00    +0.006 A 
BRANCH  21  24
ATOM     24  C   UNL     1      -2.176  -0.002   6.761  0.00  0.00    +0.242 C 
ATOM     25  O   UNL     1      -3.108   0.770   6.877  0.00  0.00    -0.270 OA
ATOM     26  N   UNL     1      -1.994  -0.980   7.670  0.00  0.00    -0.325 N 
ATOM     27  H   UNL     1      -1.251  -1.596   7.578  0.00  0.00    +0.145 HD
ATOM     28  H   UNL     1      -2.606  -1.067   8.418  0.00  0.00    +0.145 HD
ENDBRANCH  21  24
ENDBRANCH  17  18
ENDBRANCH  11  17
TORSDOF 4
