REMARK  Name = ZINC31046393
REMARK  12 active torsions:
REMARK  status: ('A' for Active; 'I' for Inactive)
REMARK    1  A    between atoms: C_1  and  C_2
REMARK    2  A    between atoms: C_2  and  C_3
REMARK    3  A    between atoms: C_2  and  O_4
REMARK    4  A    between atoms: O_4  and  C_5
REMARK    5  A    between atoms: C_8  and  C_11
REMARK    6  A    between atoms: C_11  and  C_12
REMARK    7  A    between atoms: C_12  and  C_13
REMARK    8  A    between atoms: C_13  and  N_14
REMARK    9  A    between atoms: C_15  and  C_17
REMARK   10  A    between atoms: N_22  and  C_24
REMARK   11  A    between atoms: C_24  and  C_25
REMARK   12  A    between atoms: C_27  and  C_30
REMARK                            x       y       z     vdW  Elec       q    Type
REMARK                         _______ _______ _______ _____ _____    ______ ____
ROOT
ATOM      1  C   UNL     1      -1.392   1.471   4.446  0.00  0.00    +0.058 C 
ATOM      2  C   UNL     1      -1.473  -0.058   4.494  0.00  0.00    +0.009 C 
ATOM      3  C   UNL     1      -1.034  -0.541   5.879  0.00  0.00    -0.018 C 
ATOM      4  C   UNL     1      -1.923   0.105   6.945  0.00  0.00    -0.078 C 
ATOM      5  N   UNL     1      -1.809   1.566   6.858  0.00  0.00    +0.386 N 
ATOM      6  C   UNL     1      -2.269   2.058   5.553  0.00  0.00    -0.065 C 
ATOM      7  H   UNL     1      -0.744   1.826   6.958  0.00  0.00    -0.081 HD
ENDROOT
BRANCH   1   9
ATOM      8  N   UNL     1      -1.253   1.566   1.978  0.00  0.00    -0.315 N 
ATOM      9  C   UNL     1      -1.878   1.959   3.106  0.00  0.00    +0.214 C 
ATOM     10  O   UNL     1      -2.832   2.705   3.042  0.00  0.00    -0.276 OA
ATOM     11  H   UNL     1      -0.388   0.889   2.036  0.00  0.00    +0.149 HD
BRANCH   8  12
ATOM     12  C   UNL     1      -1.726   2.041   0.675  0.00  0.00    +0.104 C 
BRANCH  12  13
ATOM     13  C   UNL     1      -0.850   1.451  -0.431  0.00  0.00    +0.023 C 
BRANCH  13  14
ATOM     14  C   UNL     1      -1.343   1.947  -1.792  0.00  0.00    +0.036 C 
BRANCH  14  18
ATOM     15  C   UNL     1       1.105   0.300  -4.883  0.00  0.00    +0.121 A 
ATOM     16  C   UNL     1      -0.028  -0.379  -4.458  0.00  0.00    +0.046 A 
ATOM     17  C   UNL     1      -0.818   0.156  -3.459  0.00  0.00    +0.007 A 
ATOM     18  C   UNL     1      -0.480   1.366  -2.882  0.00  0.00    -0.047 A 
ATOM     19  C   UNL     1       0.646   2.047  -3.307  0.00  0.00    +0.007 A 
ATOM     20  C   UNL     1       1.442   1.514  -4.302  0.00  0.00    +0.046 A 
BRANCH  15  21
ATOM     21  O   UNL     1       1.884  -0.224  -5.865  0.00  0.00    -0.489 OA
BRANCH  21  23
ATOM     22  C   UNL     1       0.463  -1.421  -7.411  0.00  0.00    +0.051 C 
ATOM     23  C   UNL     1       1.545  -1.530  -6.335  0.00  0.00    +0.167 C 
ATOM     24  C   UNL     1       2.788  -2.198  -6.926  0.00  0.00    +0.051 C 
ENDBRANCH  21  23
ENDBRANCH  15  21
ENDBRANCH  14  18
ENDBRANCH  13  14
ENDBRANCH  12  13
ENDBRANCH   8  12
ENDBRANCH   1   9
BRANCH   5  25
ATOM     25  C   UNL     1      -2.539   2.217   7.954  0.00  0.00    +0.022 C 
BRANCH  25  26
ATOM     26  C   UNL     1      -1.881   1.878   9.267  0.00  0.00    +0.211 A 
ATOM     27  N   UNL     1      -0.923   2.550   9.854  0.00  0.00    -0.193 NA
ATOM     28  C   UNL     1      -0.655   1.879  10.996  0.00  0.00    +0.202 A 
ATOM     29  N   UNL     1      -1.458   0.848  11.036  0.00  0.00    -0.056 NA
ATOM     30  O   UNL     1      -2.171   0.837  10.054  0.00  0.00    -0.340 OA
BRANCH  28  31
ATOM     31  C   UNL     1       0.361   2.243  12.014  0.00  0.00    +0.023 A 
ATOM     32  C   UNL     1       1.156   3.374  11.836  0.00  0.00    +0.013 A 
ATOM     33  C   UNL     1       2.095   3.713  12.789  0.00  0.00    +0.021 A 
ATOM     34  C   UNL     1       2.257   2.924  13.915  0.00  0.00    +0.041 A 
ATOM     35  C   UNL     1       1.474   1.796  14.094  0.00  0.00    +0.021 A 
ATOM     36  C   UNL     1       0.528   1.453  13.150  0.00  0.00    +0.013 A 
ATOM     37 CL   UNL     1       3.446   3.350  15.106  0.00  0.00    -0.084 Cl
ENDBRANCH  28  31
ENDBRANCH  25  26
ENDBRANCH   5  25
TORSDOF 10
