REMARK  Name = ZINC32069467
REMARK  7 active torsions:
REMARK  status: ('A' for Active; 'I' for Inactive)
REMARK    1  A    between atoms: C_1  and  C_2
REMARK    2  A    between atoms: C_2  and  C_26
REMARK    3  A    between atoms: C_4  and  N_10
REMARK    4  A    between atoms: C_6  and  C_8
REMARK    5  A    between atoms: C_6  and  C_9
REMARK    6  A    between atoms: C_11  and  C_13
REMARK    7  A    between atoms: N_15  and  C_16
REMARK                            x       y       z     vdW  Elec       q    Type
REMARK                         _______ _______ _______ _____ _____    ______ ____
ROOT
ATOM      1  N   UNL     1       0.379   5.049  -1.217  0.00  0.00    -0.305 N 
ATOM      2  C   UNL     1       0.083   5.700  -2.360  0.00  0.00    +0.300 C 
ATOM      3  O   UNL     1      -0.169   5.073  -3.368  0.00  0.00    -0.265 OA
ATOM      4  H   UNL     1       0.607   5.618  -0.304  0.00  0.00    +0.149 HD
ENDROOT
BRANCH   1   8
ATOM      5  C   UNL     1      -0.922   0.976  -2.281  0.00  0.00    -0.010 C 
ATOM      6  C   UNL     1      -1.027   1.541  -0.859  0.00  0.00    -0.072 C 
ATOM      7  C   UNL     1      -1.017   3.067  -0.915  0.00  0.00    +0.009 C 
ATOM      8  C   UNL     1       0.395   3.581  -1.192  0.00  0.00    +0.071 C 
ATOM      9  C   UNL     1       1.314   3.107  -0.066  0.00  0.00    +0.009 C 
ATOM     10  C   UNL     1       1.334   1.582  -0.004  0.00  0.00    -0.072 C 
ATOM     11  N   UNL     1       0.009   1.000  -0.004  0.00  0.00    +0.386 N 
ATOM     12  C   UNL     1       2.038   1.180   1.312  0.00  0.00    -0.010 C 
ATOM     13  C   UNL     1       2.181   1.033  -1.157  0.00  0.00    -0.010 C 
ATOM     14  C   UNL     1      -2.397   1.105  -0.294  0.00  0.00    -0.010 C 
ATOM     15  H   UNL     1      -0.310   1.070   1.047  0.00  0.00    -0.084 HD
ATOM     16  H   UNL     1       0.185  -0.055  -0.264  0.00  0.00    -0.084 HD
ENDBRANCH   1   8
BRANCH   2  17
ATOM     17  C   UNL     1       0.067   7.193  -2.386  0.00  0.00    +0.303 C 
ATOM     18  O   UNL     1       0.319   7.820  -1.378  0.00  0.00    -0.265 OA
ATOM     19  N   UNL     1      -0.229   7.844  -3.529  0.00  0.00    -0.278 N 
ATOM     20  H   UNL     1      -0.383   7.278  -4.459  0.00  0.00    +0.155 HD
BRANCH  19  21
ATOM     21  C   UNL     1      -0.338   9.237  -3.531  0.00  0.00    +0.036 A 
ATOM     22  C   UNL     1      -1.274   9.857  -4.359  0.00  0.00    +0.024 A 
ATOM     23  C   UNL     1      -1.397  11.216  -4.369  0.00  0.00    +0.012 A 
ATOM     24  C   UNL     1      -0.572  11.995  -3.553  0.00  0.00    -0.000 A 
ATOM     25  C   UNL     1      -0.435  13.436  -3.327  0.00  0.00    +0.027 A 
ATOM     26  C   UNL     1       0.538  13.600  -2.417  0.00  0.00    +0.083 A 
ATOM     27  N   UNL     1       1.037  12.381  -2.042  0.00  0.00    -0.361 N 
ATOM     28  H   UNL     1       1.846  12.323  -1.299  0.00  0.00    +0.165 HD
ATOM     29  C   UNL     1       0.379  11.378  -2.719  0.00  0.00    +0.048 A 
ATOM     30  C   UNL     1       0.488   9.992  -2.716  0.00  0.00    +0.049 A 
ENDBRANCH  19  21
ENDBRANCH   2  17
TORSDOF 3
