REMARK  Name = ZINC57316448
REMARK  6 active torsions:
REMARK  status: ('A' for Active; 'I' for Inactive)
REMARK    1  A    between atoms: C_10  and  C_11
REMARK    2  A    between atoms: N_13  and  C_14
REMARK    3  A    between atoms: C_14  and  N_16
REMARK    4  A    between atoms: N_16  and  C_17
REMARK    5  A    between atoms: C_17  and  C_18
REMARK    6  A    between atoms: C_21  and  C_23
REMARK                            x       y       z     vdW  Elec       q    Type
REMARK                         _______ _______ _______ _____ _____    ______ ____
ROOT
ATOM      1  C   UNL     1       7.319   0.101   0.033  0.00  0.00    +0.137 C 
ATOM      2  S   UNL     1       7.317   1.809  -0.089  0.00  0.00    -0.018 S 
ENDROOT
BRANCH   1   5
ATOM      3  C   UNL     1       4.986   0.093  -0.046  0.00  0.00    +0.250 C 
ATOM      4  O   UNL     1       4.985   1.306  -0.132  0.00  0.00    -0.270 OA
ATOM      5  N   UNL     1       6.153  -0.575   0.041  0.00  0.00    -0.264 N 
ATOM      6  H   UNL     1       6.154  -1.543   0.110  0.00  0.00    +0.157 HD
BRANCH   3  16
ATOM      7  C   UNL     1      -0.016   1.357   0.059  0.00  0.00    +0.001 A 
ATOM      8  C   UNL     1       1.168   2.090   0.052  0.00  0.00    +0.001 A 
ATOM      9  C   UNL     1       2.379   1.466   0.021  0.00  0.00    +0.009 A 
ATOM     10  C   UNL     1       2.436   0.067  -0.004  0.00  0.00    -0.006 A 
ATOM     11  C   UNL     1       1.233  -0.682   0.003  0.00  0.00    -0.017 A 
ATOM     12  C   UNL     1       0.003  -0.004   0.035  0.00  0.00    +0.008 A 
ATOM     13  C   UNL     1       1.294  -2.086  -0.021  0.00  0.00    +0.008 A 
ATOM     14  C   UNL     1       2.494  -2.728  -0.052  0.00  0.00    +0.001 A 
ATOM     15  C   UNL     1       3.696  -2.035  -0.060  0.00  0.00    +0.014 A 
ATOM     16  C   UNL     1       3.711  -0.646  -0.037  0.00  0.00    +0.045 A 
ENDBRANCH   3  16
ENDBRANCH   1   5
BRANCH   1  17
ATOM     17  N   UNL     1       8.486  -0.568   0.119  0.00  0.00    -0.319 N 
ATOM     18  H   UNL     1       8.487  -1.535   0.188  0.00  0.00    +0.148 HD
BRANCH  17  19
ATOM     19  C   UNL     1       9.753   0.167   0.110  0.00  0.00    +0.177 C 
BRANCH  19  20
ATOM     20  C   UNL     1      10.899  -0.806   0.218  0.00  0.00    +0.123 A 
ATOM     21  C   UNL     1      11.537  -1.386  -0.817  0.00  0.00    +0.047 A 
ATOM     22  C   UNL     1      12.535  -2.219  -0.272  0.00  0.00    +0.050 A 
ATOM     23  C   UNL     1      12.451  -2.099   1.079  0.00  0.00    +0.135 A 
ATOM     24  O   UNL     1      11.457  -1.234   1.362  0.00  0.00    -0.458 OA
BRANCH  23  25
ATOM     25  C   UNL     1      13.305  -2.792   2.067  0.00  0.00    +0.017 A 
ATOM     26  C   UNL     1      14.311  -3.658   1.637  0.00  0.00    +0.012 A 
ATOM     27  C   UNL     1      15.105  -4.302   2.563  0.00  0.00    +0.016 A 
ATOM     28  C   UNL     1      14.904  -4.091   3.917  0.00  0.00    +0.018 A 
ATOM     29  C   UNL     1      13.907  -3.233   4.349  0.00  0.00    +0.016 A 
ATOM     30  C   UNL     1      13.111  -2.578   3.433  0.00  0.00    +0.012 A 
ATOM     31 BR   UNL     1      15.996  -4.979   5.180  0.00  0.00    -0.050 Br
ENDBRANCH  23  25
ENDBRANCH  19  20
ENDBRANCH  17  19
ENDBRANCH   1  17
TORSDOF 6
