REMARK  Name = ZINC10001688
REMARK  12 active torsions:
REMARK  status: ('A' for Active; 'I' for Inactive)
REMARK    1  A    between atoms: C_1  and  C_2
REMARK    2  A    between atoms: C_2  and  C_3
REMARK    3  A    between atoms: C_2  and  C_4
REMARK    4  A    between atoms: C_4  and  C_6
REMARK    5  A    between atoms: C_4  and  N_28
REMARK    6  A    between atoms: N_8  and  N_9
REMARK    7  A    between atoms: C_10  and  C_11
REMARK    8  A    between atoms: C_14  and  O_20
REMARK    9  A    between atoms: C_15  and  N_17
REMARK   10  A    between atoms: O_20  and  C_21
REMARK   11  A    between atoms: C_21  and  C_22
REMARK   12  A    between atoms: C_29  and  C_31
REMARK                            x       y       z     vdW  Elec       q    Type
REMARK                         _______ _______ _______ _____ _____    ______ ____
ROOT
ATOM      1  C   UNL     1       3.359  -4.974  -0.778  0.00  0.00    +0.253 C 
ATOM      2  O   UNL     1       4.087  -4.258  -1.434  0.00  0.00    -0.272 OA
ATOM      3  N   UNL     1       3.555  -6.307  -0.769  0.00  0.00    -0.205 N 
ATOM      4  H   UNL     1       2.931  -6.886  -0.304  0.00  0.00    +0.177 HD
ENDROOT
BRANCH   3   5
ATOM      5  N   UNL     1       4.660  -6.857  -1.432  0.00  0.00    -0.188 NA
ATOM      6  C   UNL     1       4.849  -8.141  -1.423  0.00  0.00    +0.138 C 
BRANCH   6   7
ATOM      7  C   UNL     1       6.012  -8.720  -2.121  0.00  0.00    -0.003 A 
ATOM      8  C   UNL     1       6.909  -7.888  -2.796  0.00  0.00    +0.013 A 
ATOM      9  C   UNL     1       7.997  -8.433  -3.442  0.00  0.00    +0.048 A 
ATOM     10  C   UNL     1       8.198  -9.808  -3.431  0.00  0.00    +0.151 A 
ATOM     11  C   UNL     1       7.306 -10.639  -2.766  0.00  0.00    +0.168 A 
ATOM     12  C   UNL     1       6.217 -10.102  -2.113  0.00  0.00    +0.046 A 
BRANCH  11  13
ATOM     13  N   UNL     1       7.524 -12.102  -2.758  0.00  0.00    +0.060 N 
ATOM     14  O   UNL     1       6.742 -12.832  -2.175  0.00  0.00    -0.126 OA
ATOM     15  O   UNL     1       8.486 -12.578  -3.335  0.00  0.00    -0.126 OA
ENDBRANCH  11  13
BRANCH  10  16
ATOM     16  O   UNL     1       9.269 -10.341  -4.074  0.00  0.00    -0.485 OA
BRANCH  16  17
ATOM     17  C   UNL     1      10.147  -9.430  -4.738  0.00  0.00    +0.264 C 
BRANCH  17  18
ATOM     18  C   UNL     1      11.269 -10.197  -5.389  0.00  0.00    -0.010 A 
ATOM     19  C   UNL     1      12.436 -10.442  -4.690  0.00  0.00    +0.007 A 
ATOM     20  C   UNL     1      13.463 -11.150  -5.285  0.00  0.00    +0.000 A 
ATOM     21  C   UNL     1      13.327 -11.605  -6.584  0.00  0.00    +0.000 A 
ATOM     22  C   UNL     1      12.162 -11.355  -7.285  0.00  0.00    +0.000 A 
ATOM     23  C   UNL     1      11.133 -10.652  -6.688  0.00  0.00    +0.007 A 
ENDBRANCH  17  18
ENDBRANCH  16  17
ENDBRANCH  10  16
ENDBRANCH   6   7
ENDBRANCH   3   5
BRANCH   1  24
ATOM     24  C   UNL     1       2.236  -4.372   0.026  0.00  0.00    +0.163 C 
BRANCH  24  25
ATOM     25  N   UNL     1       1.814  -3.112  -0.591  0.00  0.00    -0.300 N 
ATOM     26  C   UNL     1       0.563  -2.651  -0.393  0.00  0.00    +0.245 C 
ATOM     27  O   UNL     1      -0.215  -3.280   0.297  0.00  0.00    -0.270 OA
ATOM     28  H   UNL     1       2.435  -2.610  -1.142  0.00  0.00    +0.150 HD
BRANCH  26  29
ATOM     29  C   UNL     1       0.138  -1.380  -1.015  0.00  0.00    +0.037 A 
ATOM     30  C   UNL     1      -1.158  -0.900  -0.812  0.00  0.00    +0.016 A 
ATOM     31  C   UNL     1      -1.550   0.286  -1.395  0.00  0.00    +0.039 A 
ATOM     32  C   UNL     1      -0.661   1.001  -2.183  0.00  0.00    +0.123 A 
ATOM     33  C   UNL     1       0.626   0.529  -2.388  0.00  0.00    +0.039 A 
ATOM     34  C   UNL     1       1.029  -0.655  -1.809  0.00  0.00    +0.016 A 
ATOM     35  F   UNL     1      -1.050   2.163  -2.752  0.00  0.00    -0.205 F 
ENDBRANCH  26  29
ENDBRANCH  24  25
BRANCH  24  37
ATOM     36  C   UNL     1       1.563  -3.539   2.284  0.00  0.00    +0.009 C 
ATOM     37  C   UNL     1       2.718  -4.104   1.454  0.00  0.00    +0.012 C 
ATOM     38  C   UNL     1       3.205  -5.412   2.081  0.00  0.00    +0.009 C 
ENDBRANCH  24  37
ENDBRANCH   1  24
TORSDOF 10
