REMARK  Name = ZINC47687779
REMARK  8 active torsions:
REMARK  status: ('A' for Active; 'I' for Inactive)
REMARK    1  A    between atoms: C_1  and  C_2
REMARK    2  A    between atoms: C_2  and  C_3
REMARK    3  A    between atoms: C_2  and  C_4
REMARK    4  A    between atoms: C_8  and  N_13
REMARK    5  A    between atoms: C_14  and  C_16
REMARK    6  A    between atoms: C_16  and  C_17
REMARK    7  A    between atoms: C_17  and  C_19
REMARK    8  A    between atoms: C_17  and  N_24
REMARK                            x       y       z     vdW  Elec       q    Type
REMARK                         _______ _______ _______ _____ _____    ______ ____
ROOT
ATOM      1  N   UNL     1      -6.493  -3.143  -1.161  0.00  0.00    -0.285 N 
ATOM      2  C   UNL     1      -7.667  -3.316  -0.521  0.00  0.00    +0.219 C 
ATOM      3  O   UNL     1      -7.873  -2.750   0.532  0.00  0.00    -0.275 OA
ATOM      4  H   UNL     1      -6.354  -3.541  -2.035  0.00  0.00    +0.155 HD
ENDROOT
BRANCH   1   9
ATOM      5  C   UNL     1      -3.531   0.865   1.874  0.00  0.00    +0.199 A 
ATOM      6  N   UNL     1      -4.764   0.568   1.593  0.00  0.00    -0.213 NA
ATOM      7  C   UNL     1      -4.779  -0.538   0.799  0.00  0.00    +0.111 A 
ATOM      8  C   UNL     1      -5.796  -1.287   0.207  0.00  0.00    +0.055 A 
ATOM      9  C   UNL     1      -5.475  -2.388  -0.565  0.00  0.00    +0.036 A 
ATOM     10  C   UNL     1      -4.143  -2.750  -0.752  0.00  0.00    +0.027 A 
ATOM     11  C   UNL     1      -3.132  -2.016  -0.170  0.00  0.00    +0.050 A 
ATOM     12  C   UNL     1      -3.439  -0.908   0.607  0.00  0.00    +0.155 A 
ATOM     13  O   UNL     1      -2.697  -0.007   1.287  0.00  0.00    -0.439 OA
BRANCH   5  15
ATOM     14  C   UNL     1      -2.313   1.509   3.935  0.00  0.00    +0.017 C 
ATOM     15  C   UNL     1      -3.100   2.028   2.730  0.00  0.00    +0.069 C 
ATOM     16  C   UNL     1      -2.214   2.966   1.908  0.00  0.00    +0.017 C 
ENDBRANCH   5  15
ENDBRANCH   1   9
BRANCH   2  17
ATOM     17  C   UNL     1      -8.723  -4.212  -1.114  0.00  0.00    +0.123 C 
BRANCH  17  18
ATOM     18  C   UNL     1      -9.947  -4.234  -0.196  0.00  0.00    +0.120 C 
BRANCH  18  19
ATOM     19  N   UNL     1      -9.588  -4.852   1.083  0.00  0.00    -0.292 N 
ATOM     20  C   UNL     1      -9.135  -6.121   1.114  0.00  0.00    +0.298 C 
ATOM     21  O   UNL     1      -9.024  -6.753   0.082  0.00  0.00    -0.253 OA
ATOM     22  N   UNL     1      -8.804  -6.689   2.291  0.00  0.00    -0.313 N 
ATOM     23  H   UNL     1      -9.676  -4.348   1.907  0.00  0.00    +0.151 HD
ATOM     24  H   UNL     1      -8.892  -6.185   3.115  0.00  0.00    +0.146 HD
ATOM     25  H   UNL     1      -8.478  -7.602   2.314  0.00  0.00    +0.146 HD
ENDBRANCH  18  19
BRANCH  18  26
ATOM     26  C   UNL     1     -11.049  -5.030  -0.847  0.00  0.00    +0.010 A 
ATOM     27  C   UNL     1     -12.133  -4.588  -1.529  0.00  0.00    +0.013 A 
ATOM     28  C   UNL     1     -13.023  -5.512  -2.046  0.00  0.00    +0.008 A 
ATOM     29  C   UNL     1     -12.784  -6.832  -1.854  0.00  0.00    +0.045 A 
ATOM     30  S   UNL     1     -11.260  -6.801  -0.925  0.00  0.00    -0.100 S 
ENDBRANCH  18  26
ENDBRANCH  17  18
ENDBRANCH   2  17
TORSDOF 6
