REMARK  Name = ZINC58849010
REMARK  9 active torsions:
REMARK  status: ('A' for Active; 'I' for Inactive)
REMARK    1  A    between atoms: C_1  and  O_2
REMARK    2  A    between atoms: O_2  and  C_3
REMARK    3  A    between atoms: C_8  and  N_9
REMARK    4  A    between atoms: N_9  and  S_10
REMARK    5  A    between atoms: S_10  and  C_13
REMARK    6  A    between atoms: C_26  and  C_29
REMARK    7  A    between atoms: C_32  and  O_38
REMARK    8  A    between atoms: C_33  and  N_35
REMARK    9  A    between atoms: O_38  and  C_39
REMARK                            x       y       z     vdW  Elec       q    Type
REMARK                         _______ _______ _______ _____ _____    ______ ____
ROOT
ATOM      1  C   UNL     1      -1.948  -4.049   1.417  0.00  0.00    +0.109 A 
ATOM      2  C   UNL     1      -1.839  -3.995   2.795  0.00  0.00    +0.030 A 
ATOM      3  C   UNL     1      -2.971  -3.821   3.565  0.00  0.00    +0.025 A 
ATOM      4  C   UNL     1      -4.216  -3.697   2.959  0.00  0.00    +0.031 A 
ATOM      5  C   UNL     1      -4.325  -3.737   1.577  0.00  0.00    -0.018 A 
ATOM      6  C   UNL     1      -3.181  -3.916   0.813  0.00  0.00    +0.034 A 
ATOM      7  C   UNL     1      -5.638  -3.568   0.889  0.00  0.00    +0.049 C 
ATOM      8  C   UNL     1      -6.185  -4.878   0.380  0.00  0.00    -0.023 C 
ATOM      9  C   UNL     1      -7.489  -4.899   0.497  0.00  0.00    -0.030 C 
ATOM     10  C   UNL     1      -7.998  -3.611   1.105  0.00  0.00    +0.033 C 
ATOM     11  C   UNL     1      -6.746  -2.995   1.770  0.00  0.00    +0.029 C 
ATOM     12  C   UNL     1      -6.691  -3.471   3.207  0.00  0.00    +0.105 C 
ATOM     13  N   UNL     1      -5.349  -3.541   3.748  0.00  0.00    -0.336 N 
ATOM     14  H   UNL     1      -5.238  -3.499   4.711  0.00  0.00    +0.147 HD
ENDROOT
BRANCH  12  15
ATOM     15  C   UNL     1      -7.341  -4.828   3.287  0.00  0.00    -0.025 A 
ATOM     16  C   UNL     1      -6.632  -5.956   2.915  0.00  0.00    +0.009 A 
ATOM     17  C   UNL     1      -7.226  -7.201   2.988  0.00  0.00    +0.048 A 
ATOM     18  C   UNL     1      -8.534  -7.319   3.435  0.00  0.00    +0.150 A 
ATOM     19  C   UNL     1      -9.243  -6.187   3.807  0.00  0.00    +0.168 A 
ATOM     20  C   UNL     1      -8.643  -4.944   3.737  0.00  0.00    +0.042 A 
BRANCH  19  21
ATOM     21  N   UNL     1     -10.638  -6.310   4.284  0.00  0.00    +0.060 N 
ATOM     22  O   UNL     1     -11.255  -5.322   4.609  0.00  0.00    -0.126 OA
ATOM     23  O   UNL     1     -11.162  -7.398   4.348  0.00  0.00    -0.126 OA
ENDBRANCH  19  21
BRANCH  18  24
ATOM     24  O   UNL     1      -9.120  -8.543   3.506  0.00  0.00    -0.493 OA
ATOM     25  C   UNL     1      -8.331  -9.665   3.106  0.00  0.00    +0.277 C 
ENDBRANCH  18  24
ENDBRANCH  12  15
BRANCH   1  26
ATOM     26  S   UNL     1      -0.506  -4.281   0.431  0.00  0.00    +0.072 S 
ATOM     27  O   UNL     1      -0.943  -4.836  -0.802  0.00  0.00    -0.150 OA
ATOM     28  O   UNL     1       0.453  -4.924   1.259  0.00  0.00    -0.150 OA
BRANCH  26  29
ATOM     29  N   UNL     1       0.098  -2.778   0.086  0.00  0.00    -0.213 N 
ATOM     30  H   UNL     1       0.172  -2.485  -0.836  0.00  0.00    +0.174 HD
BRANCH  29  36
ATOM     31  C   UNL     1       0.310  -0.555   1.017  0.00  0.00    +0.142 A 
ATOM     32  C   UNL     1       0.705   0.279   2.050  0.00  0.00    +0.047 A 
ATOM     33  C   UNL     1       1.293  -0.255   3.183  0.00  0.00    +0.004 A 
ATOM     34  C   UNL     1       1.487  -1.619   3.288  0.00  0.00    +0.002 A 
ATOM     35  C   UNL     1       1.095  -2.458   2.262  0.00  0.00    +0.028 A 
ATOM     36  C   UNL     1       0.501  -1.930   1.125  0.00  0.00    +0.090 A 
BRANCH  31  38
ATOM     37  C   UNL     1      -0.430   1.388  -0.139  0.00  0.00    +0.277 C 
ATOM     38  O   UNL     1      -0.267  -0.031  -0.098  0.00  0.00    -0.493 OA
ENDBRANCH  31  38
ENDBRANCH  29  36
ENDBRANCH  26  29
ENDBRANCH   1  26
TORSDOF 7
