REMARK  Name = ZINC58974277
REMARK  13 active torsions:
REMARK  status: ('A' for Active; 'I' for Inactive)
REMARK    1  A    between atoms: C_1  and  O_2
REMARK    2  A    between atoms: O_2  and  C_3
REMARK    3  A    between atoms: C_8  and  C_9
REMARK    4  A    between atoms: C_11  and  C_30
REMARK    5  A    between atoms: C_13  and  S_15
REMARK    6  A    between atoms: S_15  and  C_16
REMARK    7  A    between atoms: C_16  and  C_17
REMARK    8  A    between atoms: C_17  and  C_18
REMARK    9  A    between atoms: C_18  and  C_19
REMARK   10  A    between atoms: N_21  and  C_22
REMARK   11  A    between atoms: C_22  and  C_23
REMARK   12  A    between atoms: C_23  and  C_24
REMARK   13  A    between atoms: C_24  and  N_25
REMARK                            x       y       z     vdW  Elec       q    Type
REMARK                         _______ _______ _______ _____ _____    ______ ____
ROOT
ATOM      1  C   UNL     1       0.063  -2.830  -0.055  0.00  0.00    +0.079 A 
ATOM      2  C   UNL     1       0.121  -4.225  -0.119  0.00  0.00    +0.061 A 
ATOM      3  C   UNL     1      -0.452  -4.956   0.906  0.00  0.00    +0.148 A 
ATOM      4  N   UNL     1      -1.033  -4.318   1.910  0.00  0.00    -0.218 NA
ATOM      5  C   UNL     1      -1.073  -2.994   1.946  0.00  0.00    +0.189 A 
ATOM      6  N   UNL     1      -0.532  -2.256   0.988  0.00  0.00    -0.222 NA
ENDROOT
BRANCH   1  12
ATOM      7  C   UNL     1       0.605  -0.607  -1.055  0.00  0.00    +0.129 A 
ATOM      8  C   UNL     1       1.173   0.159  -2.062  0.00  0.00    +0.046 A 
ATOM      9  C   UNL     1       1.786  -0.455  -3.136  0.00  0.00    +0.004 A 
ATOM     10  C   UNL     1       1.839  -1.836  -3.215  0.00  0.00    +0.001 A 
ATOM     11  C   UNL     1       1.279  -2.611  -2.220  0.00  0.00    +0.013 A 
ATOM     12  C   UNL     1       0.662  -2.002  -1.129  0.00  0.00    +0.042 A 
BRANCH   7  14
ATOM     13  C   UNL     1      -0.017   1.425   0.010  0.00  0.00    +0.277 C 
ATOM     14  O   UNL     1       0.002  -0.004   0.002  0.00  0.00    -0.494 OA
ENDBRANCH   7  14
ENDBRANCH   1  12
BRANCH   3  15
ATOM     15  C   UNL     1      -0.415  -6.462   0.880  0.00  0.00    +0.434 C 
ATOM     16  F   UNL     1       0.743  -6.912   1.524  0.00  0.00    -0.164 F 
ATOM     17  F   UNL     1      -1.541  -6.968   1.539  0.00  0.00    -0.164 F 
ATOM     18  F   UNL     1      -0.413  -6.906  -0.446  0.00  0.00    -0.164 F 
ENDBRANCH   3  15
BRANCH   5  19
ATOM     19  S   UNL     1      -1.858  -2.194   3.305  0.00  0.00    -0.086 S 
BRANCH  19  20
ATOM     20  C   UNL     1      -2.431  -3.564   4.348  0.00  0.00    +0.078 C 
BRANCH  20  21
ATOM     21  C   UNL     1      -3.141  -3.003   5.582  0.00  0.00    +0.020 C 
BRANCH  21  22
ATOM     22  C   UNL     1      -3.624  -4.158   6.461  0.00  0.00    +0.096 C 
BRANCH  22  23
ATOM     23  C   UNL     1      -4.324  -3.606   7.676  0.00  0.00    +0.213 C 
ATOM     24  O   UNL     1      -4.426  -2.406   7.824  0.00  0.00    -0.276 OA
ATOM     25  N   UNL     1      -4.836  -4.444   8.599  0.00  0.00    -0.315 N 
ATOM     26  H   UNL     1      -4.754  -5.404   8.480  0.00  0.00    +0.149 HD
BRANCH  25  27
ATOM     27  C   UNL     1      -5.516  -3.907   9.780  0.00  0.00    +0.106 C 
BRANCH  27  28
ATOM     28  C   UNL     1      -5.999  -5.062  10.659  0.00  0.00    +0.040 C 
BRANCH  28  29
ATOM     29  C   UNL     1      -6.710  -4.502  11.893  0.00  0.00    +0.124 C 
BRANCH  29  30
ATOM     30  N   UNL     1      -7.172  -5.607  12.735  0.00  0.00    -0.338 N 
ATOM     31  C   UNL     1      -8.384  -6.239  12.653  0.00  0.00    +0.104 A 
ATOM     32  C   UNL     1      -8.393  -7.190  13.607  0.00  0.00    +0.101 A 
ATOM     33  N   UNL     1      -7.218  -7.140  14.253  0.00  0.00    -0.352 N 
ATOM     34  C   UNL     1      -6.480  -6.198  13.733  0.00  0.00    +0.173 A 
ATOM     35  H   UNL     1      -6.958  -7.716  14.989  0.00  0.00    +0.166 HD
ENDBRANCH  29  30
ENDBRANCH  28  29
ENDBRANCH  27  28
ENDBRANCH  25  27
ENDBRANCH  22  23
ENDBRANCH  21  22
ENDBRANCH  20  21
ENDBRANCH  19  20
ENDBRANCH   5  19
TORSDOF 12
