REMARK  Name = ZINC06243729
REMARK  5 active torsions:
REMARK  status: ('A' for Active; 'I' for Inactive)
REMARK    1  A    between atoms: C_7  and  O_22
REMARK    2  A    between atoms: C_8  and  C_10
REMARK    3  A    between atoms: C_10  and  C_12
REMARK    4  A    between atoms: C_12  and  C_13
REMARK    5  A    between atoms: C_13  and  O_21
REMARK                            x       y       z     vdW  Elec       q    Type
REMARK                         _______ _______ _______ _____ _____    ______ ____
ROOT
ATOM      1  C   UNL     1       2.124  -0.404  -1.278  0.00  0.00    +0.176 C 
ATOM      2  O   UNL     1       1.678  -1.045  -0.348  0.00  0.00    -0.291 OA
ENDROOT
BRANCH   1  10
ATOM      3  C   UNL     1       4.585  -4.444  -5.289  0.00  0.00    +0.001 A 
ATOM      4  C   UNL     1       4.959  -3.413  -6.143  0.00  0.00    +0.001 A 
ATOM      5  C   UNL     1       4.673  -2.108  -5.801  0.00  0.00    +0.016 A 
ATOM      6  C   UNL     1       4.019  -1.842  -4.614  0.00  0.00    +0.024 A 
ATOM      7  C   UNL     1       3.628  -2.871  -3.729  0.00  0.00    +0.031 A 
ATOM      8  C   UNL     1       3.941  -4.197  -4.119  0.00  0.00    +0.012 A 
ATOM      9  C   UNL     1       2.949  -2.420  -2.525  0.00  0.00    +0.142 A 
ATOM     10  C   UNL     1       2.750  -1.065  -2.353  0.00  0.00    +0.097 A 
ATOM     11  S   UNL     1       3.469  -0.354  -3.820  0.00  0.00    -0.082 S 
BRANCH   9  12
ATOM     12  O   UNL     1       2.523  -3.309  -1.594  0.00  0.00    -0.505 OA
ATOM     13  H   UNL     1       1.622  -3.628  -1.739  0.00  0.00    +0.292 HD
ENDBRANCH   9  12
ENDBRANCH   1  10
BRANCH   1  14
ATOM     14  C   UNL     1       2.008   1.099  -1.283  0.00  0.00    +0.115 C 
BRANCH  14  15
ATOM     15  C   UNL     1       1.287   1.562  -0.002  0.00  0.00    +0.073 C 
ATOM     16  C   UNL     1       2.087   1.071   1.199  0.00  0.00    +0.035 C 
ATOM     17  C   UNL     1       1.970   1.990   2.406  0.00  0.00    +0.003 C 
ATOM     18  C   UNL     1       0.711   1.682   3.211  0.00  0.00    +0.000 C 
ATOM     19  C   UNL     1      -0.520   2.330   2.601  0.00  0.00    +0.000 C 
ATOM     20  C   UNL     1      -0.210   3.674   1.962  0.00  0.00    +0.000 C 
ATOM     21  C   UNL     1      -0.189   3.560   0.441  0.00  0.00    +0.003 C 
ATOM     22  C   UNL     1       1.181   3.082  -0.038  0.00  0.00    +0.035 C 
BRANCH  15  23
ATOM     23  O   UNL     1      -0.011   0.963   0.007  0.00  0.00    -0.388 OA
ATOM     24  H   UNL     1       0.002  -0.004   0.002  0.00  0.00    +0.210 HD
ENDBRANCH  15  23
ENDBRANCH  14  15
ENDBRANCH   1  14
TORSDOF 5
