REMARK  Name = ZINC16572438
REMARK  10 active torsions:
REMARK  status: ('A' for Active; 'I' for Inactive)
REMARK    1  A    between atoms: C_1  and  C_2
REMARK    2  A    between atoms: C_2  and  C_3
REMARK    3  A    between atoms: C_3  and  C_5
REMARK    4  A    between atoms: C_3  and  C_6
REMARK    5  A    between atoms: C_6  and  C_8
REMARK    6  A    between atoms: C_6  and  N_23
REMARK    7  A    between atoms: C_14  and  C_16
REMARK    8  A    between atoms: C_19  and  C_22
REMARK    9  A    between atoms: N_26  and  C_27
REMARK   10  A    between atoms: C_30  and  C_33
REMARK                            x       y       z     vdW  Elec       q    Type
REMARK                         _______ _______ _______ _____ _____    ______ ____
ROOT
ATOM      1  C   UNL     1      -0.622   2.231   1.492  0.00  0.00    +0.163 C 
ENDROOT
BRANCH   1   2
ATOM      2  C   UNL     1      -2.023   1.788   1.825  0.00  0.00    +0.239 C 
ATOM      3  O   UNL     1      -2.204   0.908   2.640  0.00  0.00    -0.273 OA
ATOM      4  N   UNL     1      -3.076   2.370   1.217  0.00  0.00    -0.262 N 
ATOM      5  C   UNL     1      -4.362   1.901   1.454  0.00  0.00    +0.188 A 
ATOM      6  N   UNL     1      -4.766   0.904   2.226  0.00  0.00    -0.125 NA
ATOM      7  N   UNL     1      -5.985   0.600   2.341  0.00  0.00    -0.140 NA
ATOM      8  C   UNL     1      -6.911   1.275   1.671  0.00  0.00    +0.134 A 
ATOM      9  S   UNL     1      -5.879   2.458   0.812  0.00  0.00    -0.030 S 
ATOM     10  H   UNL     1      -2.936   3.117   0.614  0.00  0.00    +0.157 HD
BRANCH   8  11
ATOM     11  C   UNL     1      -8.379   1.099   1.642  0.00  0.00    +0.009 A 
ATOM     12  C   UNL     1      -9.170   1.940   0.858  0.00  0.00    +0.011 A 
ATOM     13  C   UNL     1     -10.538   1.766   0.831  0.00  0.00    +0.004 A 
ATOM     14  C   UNL     1     -11.127   0.769   1.587  0.00  0.00    -0.050 A 
ATOM     15  C   UNL     1     -10.349  -0.064   2.372  0.00  0.00    +0.004 A 
ATOM     16  C   UNL     1      -8.979   0.095   2.403  0.00  0.00    +0.011 A 
ATOM     17  C   UNL     1     -12.623   0.589   1.558  0.00  0.00    +0.044 C 
ENDBRANCH   8  11
ENDBRANCH   1   2
BRANCH   1  18
ATOM     18  N   UNL     1       0.261   1.951   2.627  0.00  0.00    -0.288 N 
ATOM     19  C   UNL     1       1.389   2.670   2.797  0.00  0.00    +0.304 C 
ATOM     20  O   UNL     1       1.673   3.551   2.008  0.00  0.00    -0.252 OA
ATOM     21  N   UNL     1       2.201   2.413   3.841  0.00  0.00    -0.269 N 
ATOM     22  H   UNL     1       0.035   1.249   3.256  0.00  0.00    +0.151 HD
ATOM     23  H   UNL     1       2.012   1.667   4.431  0.00  0.00    +0.156 HD
BRANCH  21  24
ATOM     24  C   UNL     1       3.318   3.224   4.075  0.00  0.00    +0.035 A 
ATOM     25  C   UNL     1       4.472   2.677   4.621  0.00  0.00    +0.023 A 
ATOM     26  C   UNL     1       5.574   3.478   4.846  0.00  0.00    +0.005 A 
ATOM     27  C   UNL     1       5.526   4.826   4.538  0.00  0.00    -0.050 A 
ATOM     28  C   UNL     1       4.376   5.374   3.999  0.00  0.00    +0.005 A 
ATOM     29  C   UNL     1       3.272   4.577   3.767  0.00  0.00    +0.023 A 
ATOM     30  C   UNL     1       6.728   5.698   4.790  0.00  0.00    +0.044 C 
ENDBRANCH  21  24
ENDBRANCH   1  18
BRANCH   1  31
ATOM     31  C   UNL     1      -0.126   1.470   0.261  0.00  0.00    +0.015 C 
ATOM     32  C   UNL     1      -0.982   1.847  -0.951  0.00  0.00    +0.010 C 
BRANCH  31  34
ATOM     33  C   UNL     1       0.377  -0.795  -0.666  0.00  0.00    +0.004 C 
ATOM     34  C   UNL     1      -0.234  -0.035   0.513  0.00  0.00    +0.002 C 
ENDBRANCH  31  34
ENDBRANCH   1  31
TORSDOF 6
