REMARK  Name = ZINC40725823
REMARK  6 active torsions:
REMARK  status: ('A' for Active; 'I' for Inactive)
REMARK    1  A    between atoms: C_4  and  C_7
REMARK    2  A    between atoms: C_7  and  C_8
REMARK    3  A    between atoms: C_8  and  N_9
REMARK    4  A    between atoms: C_11  and  N_27
REMARK    5  A    between atoms: C_12  and  N_16
REMARK    6  A    between atoms: N_16  and  C_17
REMARK                            x       y       z     vdW  Elec       q    Type
REMARK                         _______ _______ _______ _____ _____    ______ ____
ROOT
ATOM      1  N   UNL     1       5.450  -1.678   1.382  0.00  0.00    -0.327 N 
ATOM      2  C   UNL     1       6.069  -2.024   2.577  0.00  0.00    +0.145 A 
ATOM      3  C   UNL     1       7.290  -2.700   2.574  0.00  0.00    +0.105 A 
ATOM      4  C   UNL     1       7.869  -3.022   3.802  0.00  0.00    +0.145 A 
ATOM      5  N   UNL     1       7.239  -2.675   4.922  0.00  0.00    -0.219 NA
ATOM      6  C   UNL     1       6.087  -2.037   4.882  0.00  0.00    +0.225 A 
ATOM      7  N   UNL     1       5.509  -1.710   3.743  0.00  0.00    -0.219 NA
ATOM      8  H   UNL     1       5.864  -1.911   0.536  0.00  0.00    +0.148 HD
ENDROOT
BRANCH   3   9
ATOM      9  N   UNL     1       7.919  -3.047   1.367  0.00  0.00    -0.353 N 
ATOM     10  H   UNL     1       7.505  -2.817   0.520  0.00  0.00    +0.143 HD
ATOM     11  H   UNL     1       8.768  -3.517   1.380  0.00  0.00    +0.143 HD
ENDBRANCH   3   9
BRANCH   4  12
ATOM     12  N   UNL     1       9.083  -3.696   3.855  0.00  0.00    -0.322 N 
ATOM     13  H   UNL     1       9.536  -3.945   3.034  0.00  0.00    +0.148 HD
BRANCH  12  14
ATOM     14  C   UNL     1       9.681  -4.028   5.151  0.00  0.00    +0.034 C 
ATOM     15  C   UNL     1       8.725  -4.928   5.937  0.00  0.00    +0.029 C 
ATOM     16  C   UNL     1       9.348  -5.275   7.290  0.00  0.00    -0.008 C 
ATOM     17  C   UNL     1      10.672  -6.009   7.069  0.00  0.00    +0.007 C 
ATOM     18  C   UNL     1      11.628  -5.110   6.282  0.00  0.00    -0.008 C 
ATOM     19  C   UNL     1      11.005  -4.762   4.929  0.00  0.00    +0.029 C 
ATOM     20  C   UNL     1      11.884  -3.824   7.071  0.00  0.00    +0.007 C 
ATOM     21  C   UNL     1      10.559  -3.090   7.293  0.00  0.00    -0.008 C 
ATOM     22  C   UNL     1       9.604  -3.990   8.080  0.00  0.00    +0.007 C 
ATOM     23  C   UNL     1       9.936  -2.743   5.940  0.00  0.00    +0.029 C 
ENDBRANCH  12  14
ENDBRANCH   4  12
BRANCH   1  24
ATOM     24  C   UNL     1       4.171  -0.963   1.399  0.00  0.00    +0.107 C 
BRANCH  24  25
ATOM     25  C   UNL     1       3.711  -0.707  -0.038  0.00  0.00    +0.054 C 
BRANCH  25  29
ATOM     26  C   UNL     1      -0.017   1.378   0.010  0.00  0.00    +0.000 A 
ATOM     27  C   UNL     1       1.171   2.086   0.002  0.00  0.00    +0.000 A 
ATOM     28  C   UNL     1       2.377   1.411  -0.013  0.00  0.00    +0.004 A 
ATOM     29  C   UNL     1       2.396   0.029  -0.020  0.00  0.00    -0.046 A 
ATOM     30  C   UNL     1       1.208  -0.679  -0.012  0.00  0.00    +0.004 A 
ATOM     31  C   UNL     1       0.002  -0.004   0.002  0.00  0.00    +0.000 A 
ENDBRANCH  25  29
ENDBRANCH  24  25
ENDBRANCH   1  24
TORSDOF 6
