REMARK  Name = ZINC14563034
REMARK  10 active torsions:
REMARK  status: ('A' for Active; 'I' for Inactive)
REMARK    1  A    between atoms: C_1  and  C_2
REMARK    2  A    between atoms: C_2  and  C_3
REMARK    3  A    between atoms: C_4  and  C_25
REMARK    4  A    between atoms: C_6  and  N_11
REMARK    5  A    between atoms: C_7  and  C_8
REMARK    6  A    between atoms: N_11  and  C_12
REMARK    7  A    between atoms: C_12  and  N_14
REMARK    8  A    between atoms: C_15  and  C_17
REMARK    9  A    between atoms: C_17  and  C_18
REMARK   10  A    between atoms: C_23  and  C_24
REMARK                            x       y       z     vdW  Elec       q    Type
REMARK                         _______ _______ _______ _____ _____    ______ ____
ROOT
ATOM      1  N   UNL     1       1.137   2.397   0.004  0.00  0.00    -0.291 N 
ATOM      2  H   UNL     1       1.124   3.367   0.009  0.00  0.00    +0.154 HD
ENDROOT
BRANCH   1   6
ATOM      3  C   UNL     1       4.722   1.305  -0.035  0.00  0.00    -0.024 A 
ATOM      4  C   UNL     1       4.403  -0.002  -0.038  0.00  0.00    -0.008 A 
ATOM      5  S   UNL     1       2.622   0.012  -0.015  0.00  0.00    -0.078 S 
ATOM      6  C   UNL     1       2.346   1.721  -0.011  0.00  0.00    +0.084 A 
ATOM      7  C   UNL     1       3.631   2.250  -0.021  0.00  0.00    +0.068 A 
ATOM      8  C   UNL     1       5.329  -1.191  -0.053  0.00  0.00    +0.052 C 
BRANCH   7   9
ATOM      9  C   UNL     1       3.868   3.697  -0.016  0.00  0.00    +0.244 C 
ATOM     10  O   UNL     1       3.976   4.293   1.040  0.00  0.00    -0.270 OA
ATOM     11  N   UNL     1       3.965   4.367  -1.181  0.00  0.00    -0.325 N 
ATOM     12  H   UNL     1       3.879   3.892  -2.023  0.00  0.00    +0.145 HD
ATOM     13  H   UNL     1       4.121   5.325  -1.179  0.00  0.00    +0.145 HD
ENDBRANCH   7   9
BRANCH   3  15
ATOM     14  C   UNL     1       6.658   1.911   1.392  0.00  0.00    +0.009 C 
ATOM     15  C   UNL     1       6.158   1.762  -0.047  0.00  0.00    +0.033 C 
ENDBRANCH   3  15
ENDBRANCH   1   6
BRANCH   1  16
ATOM     16  C   UNL     1      -0.021   1.708   0.011  0.00  0.00    +0.141 C 
ATOM     17  S   UNL     1       0.002  -0.004   0.002  0.00  0.00    -0.018 S 
BRANCH  16  18
ATOM     18  N   UNL     1      -1.197   2.366   0.021  0.00  0.00    -0.267 N 
ATOM     19  C   UNL     1      -2.355   1.676   0.022  0.00  0.00    +0.223 C 
ATOM     20  O   UNL     1      -2.339   0.464   0.016  0.00  0.00    -0.275 OA
ATOM     21  H   UNL     1      -1.210   3.336   0.026  0.00  0.00    +0.157 HD
BRANCH  19  22
ATOM     22  C   UNL     1      -3.671   2.412   0.033  0.00  0.00    +0.131 C 
BRANCH  22  23
ATOM     23  C   UNL     1      -4.803   1.417   0.033  0.00  0.00    -0.036 A 
ATOM     24  C   UNL     1      -5.400   1.050  -1.159  0.00  0.00    +0.004 A 
ATOM     25  C   UNL     1      -6.435   0.134  -1.159  0.00  0.00    +0.000 A 
ATOM     26  C   UNL     1      -6.880  -0.407   0.033  0.00  0.00    +0.000 A 
ATOM     27  C   UNL     1      -6.286  -0.036   1.224  0.00  0.00    +0.003 A 
ATOM     28  C   UNL     1      -5.247   0.876   1.224  0.00  0.00    -0.047 A 
ATOM     29  C   UNL     1      -4.600   1.281   2.523  0.00  0.00    +0.044 C 
ENDBRANCH  22  23
ENDBRANCH  19  22
ENDBRANCH  16  18
ENDBRANCH   1  16
TORSDOF 7
