REMARK  Name = ZINC47509815
REMARK  8 active torsions:
REMARK  status: ('A' for Active; 'I' for Inactive)
REMARK    1  A    between atoms: C_1  and  O_2
REMARK    2  A    between atoms: O_2  and  C_3
REMARK    3  A    between atoms: C_6  and  O_28
REMARK    4  A    between atoms: N_10  and  C_15
REMARK    5  A    between atoms: C_12  and  O_14
REMARK    6  A    between atoms: C_18  and  S_21
REMARK    7  A    between atoms: S_21  and  C_24
REMARK    8  A    between atoms: O_28  and  C_29
REMARK                            x       y       z     vdW  Elec       q    Type
REMARK                         _______ _______ _______ _____ _____    ______ ____
ROOT
ATOM      1  C   UNL     1      -1.231  -0.645   0.032  0.00  0.00    +0.125 A 
ATOM      2  C   UNL     1      -2.406   0.088   0.039  0.00  0.00    +0.049 A 
ATOM      3  C   UNL     1      -3.622  -0.568   0.035  0.00  0.00    +0.049 A 
ATOM      4  C   UNL     1      -3.658  -1.951   0.028  0.00  0.00    +0.126 A 
ATOM      5  C   UNL     1      -2.477  -2.692   0.024  0.00  0.00    +0.032 A 
ATOM      6  C   UNL     1      -1.266  -2.037   0.013  0.00  0.00    +0.021 A 
ATOM      7  C   UNL     1       0.049  -2.774  -0.027  0.00  0.00    +0.144 C 
ATOM      8  N   UNL     1      -0.177  -4.202   0.223  0.00  0.00    -0.323 N 
ATOM      9  C   UNL     1      -1.303  -4.841  -0.477  0.00  0.00    +0.141 C 
ATOM     10  C   UNL     1      -2.594  -4.193   0.034  0.00  0.00    +0.166 C 
ENDROOT
BRANCH   8  11
ATOM     11  C   UNL     1       0.645  -4.926   1.090  0.00  0.00    +0.030 A 
ATOM     12  C   UNL     1       0.340  -6.246   1.397  0.00  0.00    +0.025 A 
ATOM     13  C   UNL     1       1.155  -6.960   2.254  0.00  0.00    +0.029 A 
ATOM     14  C   UNL     1       2.272  -6.361   2.807  0.00  0.00    +0.098 A 
ATOM     15  C   UNL     1       2.578  -5.047   2.504  0.00  0.00    +0.029 A 
ATOM     16  C   UNL     1       1.771  -4.330   1.643  0.00  0.00    +0.025 A 
BRANCH  14  17
ATOM     17  S   UNL     1       3.308  -7.274   3.901  0.00  0.00    +0.091 S 
ATOM     18  O   UNL     1       3.923  -6.292   4.723  0.00  0.00    -0.161 OA
ATOM     19  O   UNL     1       2.456  -8.262   4.467  0.00  0.00    -0.161 OA
BRANCH  17  20
ATOM     20  C   UNL     1       4.545  -8.056   2.829  0.00  0.00    +0.526 C 
ATOM     21  F   UNL     1       5.260  -7.067   2.144  0.00  0.00    -0.150 F 
ATOM     22  F   UNL     1       5.426  -8.813   3.608  0.00  0.00    -0.150 F 
ATOM     23  F   UNL     1       3.903  -8.890   1.907  0.00  0.00    -0.150 F 
ENDBRANCH  17  20
ENDBRANCH  14  17
ENDBRANCH   8  11
BRANCH   1  25
ATOM     24  C   UNL     1      -0.066   1.428   0.058  0.00  0.00    +0.277 C 
ATOM     25  O   UNL     1      -0.034  -0.001   0.038  0.00  0.00    -0.495 OA
ENDBRANCH   1  25
BRANCH  10  26
ATOM     26  O   UNL     1      -3.672  -4.586  -0.819  0.00  0.00    -0.385 OA
ATOM     27  H   UNL     1      -3.809  -5.542  -0.865  0.00  0.00    +0.210 HD
ENDBRANCH  10  26
BRANCH   4  28
ATOM     28  O   UNL     1      -4.856  -2.594   0.027  0.00  0.00    -0.495 OA
ATOM     29  C   UNL     1      -6.030  -1.778   0.032  0.00  0.00    +0.277 C 
ENDBRANCH   4  28
TORSDOF 6
