REMARK  Name = ZINC42606927
REMARK  6 active torsions:
REMARK  status: ('A' for Active; 'I' for Inactive)
REMARK    1  A    between atoms: C_1  and  C_2
REMARK    2  A    between atoms: C_8  and  N_10
REMARK    3  A    between atoms: N_10  and  C_11
REMARK    4  A    between atoms: N_10  and  C_12
REMARK    5  A    between atoms: C_12  and  C_19
REMARK    6  A    between atoms: C_19  and  N_20
REMARK                            x       y       z     vdW  Elec       q    Type
REMARK                         _______ _______ _______ _____ _____    ______ ____
ROOT
ATOM      1  C   UNL     1       3.311  -0.818   0.168  0.00  0.00    -0.082 C 
ATOM      2  C   UNL     1       2.190  -0.818  -0.836  0.00  0.00    -0.014 C 
ATOM      3  C   UNL     1       2.039  -2.173  -1.553  0.00  0.00    -0.001 C 
ATOM      4  C   UNL     1       3.393  -2.798  -1.940  0.00  0.00    -0.000 C 
ATOM      5  C   UNL     1       4.360  -1.783  -2.486  0.00  0.00    -0.000 C 
ATOM      6  C   UNL     1       5.248  -1.279  -1.330  0.00  0.00    -0.001 C 
ATOM      7  C   UNL     1       4.581  -0.273  -0.516  0.00  0.00    -0.014 C 
ENDROOT
BRANCH   1   8
ATOM      8  N   UNL     1       2.955   0.041   1.304  0.00  0.00    +0.382 N 
ATOM      9  C   UNL     1       1.698  -0.430   1.900  0.00  0.00    -0.095 C 
ATOM     10  H   UNL     1       3.689   0.005   1.996  0.00  0.00    -0.081 HD
BRANCH   8  17
ATOM     11  C   UNL     1       4.590   2.168   2.402  0.00  0.00    +0.006 C 
ATOM     12  C   UNL     1       4.124   2.163   0.945  0.00  0.00    -0.028 C 
ATOM     13  C   UNL     1       3.950   3.604   0.460  0.00  0.00    +0.002 C 
ATOM     14  C   UNL     1       2.907   4.311   1.327  0.00  0.00    +0.000 C 
ATOM     15  C   UNL     1       1.571   3.573   1.221  0.00  0.00    -0.002 C 
ATOM     16  C   UNL     1       1.745   2.132   1.706  0.00  0.00    -0.015 C 
ATOM     17  C   UNL     1       2.788   1.425   0.839  0.00  0.00    -0.065 C 
ENDBRANCH   8  17
ENDBRANCH   1   8
BRANCH   1  18
ATOM     18  C   UNL     1       3.563  -2.244   0.661  0.00  0.00    -0.099 C 
BRANCH  18  19
ATOM     19  N   UNL     1       3.948  -2.211   2.078  0.00  0.00    +0.377 N 
ATOM     20  H   UNL     1       4.244  -3.131   2.368  0.00  0.00    -0.090 HD
ATOM     21  H   UNL     1       4.707  -1.558   2.206  0.00  0.00    -0.090 HD
ATOM     22  H   UNL     1       3.158  -1.921   2.634  0.00  0.00    -0.090 HD
ENDBRANCH  18  19
ENDBRANCH   1  18
TORSDOF 4
