REMARK  Name = ZINC48342401
REMARK  7 active torsions:
REMARK  status: ('A' for Active; 'I' for Inactive)
REMARK    1  A    between atoms: C_4  and  C_7
REMARK    2  A    between atoms: C_7  and  C_9
REMARK    3  A    between atoms: C_7  and  N_16
REMARK    4  A    between atoms: C_9  and  N_10
REMARK    5  A    between atoms: N_19  and  C_20
REMARK    6  A    between atoms: C_23  and  C_27
REMARK    7  A    between atoms: N_29  and  C_30
REMARK                            x       y       z     vdW  Elec       q    Type
REMARK                         _______ _______ _______ _____ _____    ______ ____
ROOT
ATOM      1  N   UNL     1       3.625  -1.873   0.846  0.00  0.00    -0.291 N 
ATOM      2  C   UNL     1       3.873  -1.738   2.164  0.00  0.00    +0.304 C 
ATOM      3  O   UNL     1       4.167  -0.650   2.619  0.00  0.00    -0.252 OA
ATOM      4  N   UNL     1       3.796  -2.811   2.977  0.00  0.00    -0.269 N 
ATOM      5  H   UNL     1       3.390  -2.741   0.483  0.00  0.00    +0.151 HD
ATOM      6  H   UNL     1       3.497  -3.664   2.626  0.00  0.00    +0.156 HD
ENDROOT
BRANCH   4   7
ATOM      7  C   UNL     1       4.146  -2.693   4.321  0.00  0.00    +0.036 A 
ATOM      8  C   UNL     1       3.868  -1.516   5.011  0.00  0.00    +0.024 A 
ATOM      9  C   UNL     1       4.211  -1.396   6.338  0.00  0.00    +0.016 A 
ATOM     10  C   UNL     1       4.841  -2.457   6.994  0.00  0.00    +0.055 A 
ATOM     11  C   UNL     1       5.120  -3.638   6.299  0.00  0.00    +0.055 A 
ATOM     12  C   UNL     1       4.768  -3.753   4.971  0.00  0.00    +0.044 A 
ATOM     13 CL   UNL     1       5.902  -4.960   7.109  0.00  0.00    -0.083 Cl
BRANCH  10  14
ATOM     14  C   UNL     1       5.212  -2.331   8.417  0.00  0.00    +0.246 C 
ATOM     15  O   UNL     1       5.760  -3.255   8.986  0.00  0.00    -0.270 OA
ATOM     16  N   UNL     1       4.943  -1.192   9.085  0.00  0.00    -0.308 N 
ATOM     17  H   UNL     1       4.506  -0.455   8.630  0.00  0.00    +0.149 HD
BRANCH  16  18
ATOM     18  C   UNL     1       5.310  -1.066  10.497  0.00  0.00    +0.073 C 
ATOM     19  C   UNL     1       4.284  -0.438  11.441  0.00  0.00    +0.024 C 
ATOM     20  C   UNL     1       5.538   0.344  11.046  0.00  0.00    +0.024 C 
ENDBRANCH  16  18
ENDBRANCH  10  14
ENDBRANCH   4   7
BRANCH   1  21
ATOM     21  C   UNL     1       3.708  -0.707  -0.037  0.00  0.00    +0.122 C 
BRANCH  21  25
ATOM     22  C   UNL     1      -0.006   1.402   0.029  0.00  0.00    +0.000 A 
ATOM     23  C   UNL     1       1.186   2.102   0.015  0.00  0.00    +0.000 A 
ATOM     24  C   UNL     1       2.388   1.419  -0.006  0.00  0.00    +0.005 A 
ATOM     25  C   UNL     1       2.398   0.037  -0.013  0.00  0.00    -0.026 A 
ATOM     26  C   UNL     1       1.206  -0.663   0.002  0.00  0.00    +0.005 A 
ATOM     27  C   UNL     1       0.004   0.019   0.022  0.00  0.00    +0.000 A 
ENDBRANCH  21  25
BRANCH  21  28
ATOM     28  C   UNL     1       4.005  -1.170  -1.465  0.00  0.00    +0.134 C 
BRANCH  28  29
ATOM     29  N   UNL     1       5.217  -1.994  -1.469  0.00  0.00    -0.299 N 
ATOM     30  C   UNL     1       6.575  -1.468  -1.647  0.00  0.00    +0.108 C 
ATOM     31  C   UNL     1       7.518  -2.588  -1.153  0.00  0.00    +0.028 C 
ATOM     32  C   UNL     1       6.646  -3.848  -1.359  0.00  0.00    +0.097 C 
ATOM     33  C   UNL     1       5.227  -3.328  -1.305  0.00  0.00    +0.216 C 
ATOM     34  O   UNL     1       4.241  -4.015  -1.141  0.00  0.00    -0.276 OA
ENDBRANCH  28  29
ENDBRANCH  21  28
ENDBRANCH   1  21
TORSDOF 7
