REMARK  Name = ZINC40516861
REMARK  2 active torsions:
REMARK  status: ('A' for Active; 'I' for Inactive)
REMARK    1  A    between atoms: C_3  and  C_8
REMARK    2  A    between atoms: C_5  and  N_7
REMARK                            x       y       z     vdW  Elec       q    Type
REMARK                         _______ _______ _______ _____ _____    ______ ____
ROOT
ATOM      1  C   UNL     1       3.649   2.194  -0.133  0.00  0.00    +0.146 A 
ATOM      2  N   UNL     1       4.849   1.683  -0.296  0.00  0.00    -0.235 NA
ATOM      3  C   UNL     1       5.767   2.636  -0.096  0.00  0.00    +0.131 A 
ATOM      4  C   UNL     1       5.129   3.786   0.203  0.00  0.00    +0.114 A 
ATOM      5  N   UNL     1       3.785   3.518   0.176  0.00  0.00    -0.283 N 
ATOM      6  C   UNL     1       2.750   4.426   0.422  0.00  0.00    +0.158 A 
ATOM      7  C   UNL     1       2.663   5.592  -0.333  0.00  0.00    +0.085 A 
ATOM      8  C   UNL     1       1.633   6.482  -0.080  0.00  0.00    +0.045 A 
ATOM      9  C   UNL     1       0.723   6.174   0.923  0.00  0.00    +0.061 A 
ATOM     10  C   UNL     1       0.871   4.997   1.633  0.00  0.00    +0.133 A 
ATOM     11  N   UNL     1       1.860   4.166   1.365  0.00  0.00    -0.235 NA
ATOM     12 CL   UNL     1      -0.587   7.256   1.282  0.00  0.00    -0.082 Cl
ATOM     13 CL   UNL     1       3.830   5.926  -1.574  0.00  0.00    -0.080 Cl
ENDROOT
BRANCH   1  16
ATOM     14  C   UNL     1      -0.011   1.479  -0.594  0.00  0.00    +0.002 A 
ATOM     15  C   UNL     1       1.181   2.163  -0.468  0.00  0.00    +0.011 A 
ATOM     16  C   UNL     1       2.371   1.462  -0.268  0.00  0.00    +0.020 A 
ATOM     17  C   UNL     1       2.350   0.070  -0.196  0.00  0.00    +0.034 A 
ATOM     18  C   UNL     1       1.148  -0.609  -0.324  0.00  0.00    +0.025 A 
ATOM     19  C   UNL     1      -0.032   0.099  -0.523  0.00  0.00    +0.023 A 
BRANCH  18  20
ATOM     20  N   UNL     1       1.123  -2.004  -0.253  0.00  0.00    -0.358 N 
ATOM     21  H   UNL     1       1.946  -2.498  -0.114  0.00  0.00    +0.142 HD
ATOM     22  H   UNL     1       0.282  -2.479  -0.342  0.00  0.00    +0.142 HD
ENDBRANCH  18  20
ENDBRANCH   1  16
TORSDOF 2
