REMARK  Name = ZINC04827443
REMARK  8 active torsions:
REMARK  status: ('A' for Active; 'I' for Inactive)
REMARK    1  A    between atoms: C_1  and  C_2
REMARK    2  A    between atoms: C_5  and  C_9
REMARK    3  A    between atoms: N_11  and  N_12
REMARK    4  A    between atoms: C_13  and  C_14
REMARK    5  A    between atoms: C_18  and  O_20
REMARK    6  A    between atoms: O_20  and  C_21
REMARK    7  A    between atoms: C_21  and  C_23
REMARK    8  A    between atoms: C_24  and  C_25
REMARK                            x       y       z     vdW  Elec       q    Type
REMARK                         _______ _______ _______ _____ _____    ______ ____
ROOT
ATOM      1  C   UNL     1      -8.262  -1.618  -0.068  0.00  0.00    -0.002 A 
ATOM      2  C   UNL     1      -8.138  -3.010  -0.039  0.00  0.00    +0.010 A 
ATOM      3  C   UNL     1      -6.887  -3.588   0.017  0.00  0.00    +0.004 A 
ATOM      4  C   UNL     1      -5.754  -2.796   0.044  0.00  0.00    +0.046 A 
ATOM      5  C   UNL     1      -5.867  -1.412   0.016  0.00  0.00    +0.133 A 
ATOM      6  C   UNL     1      -7.118  -0.820  -0.035  0.00  0.00    +0.055 A 
ENDROOT
BRANCH   1   8
ATOM      7  N   UNL     1     -10.661  -1.740  -0.153  0.00  0.00    -0.187 NA
ATOM      8  C   UNL     1      -9.598  -0.995  -0.128  0.00  0.00    +0.138 C 
BRANCH   7  11
ATOM      9  C   UNL     1     -13.033  -1.922  -0.236  0.00  0.00    +0.265 C 
ATOM     10  O   UNL     1     -12.927  -3.133  -0.211  0.00  0.00    -0.268 OA
ATOM     11  N   UNL     1     -11.929  -1.148  -0.210  0.00  0.00    -0.203 N 
ATOM     12  H   UNL     1     -12.013  -0.182  -0.230  0.00  0.00    +0.178 HD
BRANCH   9  17
ATOM     13  C   UNL     1     -18.243   0.510  -0.471  0.00  0.00    +0.044 C 
ATOM     14  C   UNL     1     -16.879  -0.128  -0.409  0.00  0.00    -0.049 A 
ATOM     15  C   UNL     1     -15.747   0.669  -0.381  0.00  0.00    +0.004 A 
ATOM     16  C   UNL     1     -14.495   0.093  -0.325  0.00  0.00    +0.015 A 
ATOM     17  C   UNL     1     -14.370  -1.298  -0.296  0.00  0.00    +0.057 A 
ATOM     18  C   UNL     1     -15.517  -2.096  -0.330  0.00  0.00    +0.053 A 
ATOM     19  C   UNL     1     -16.764  -1.505  -0.381  0.00  0.00    +0.024 A 
ATOM     20 CL   UNL     1     -15.373  -3.826  -0.301  0.00  0.00    -0.083 Cl
ENDBRANCH   9  17
ENDBRANCH   7  11
ENDBRANCH   1   8
BRANCH   5  21
ATOM     21  O   UNL     1      -4.750  -0.639   0.043  0.00  0.00    -0.423 OA
BRANCH  21  22
ATOM     22  C   UNL     1      -4.033  -0.520  -1.095  0.00  0.00    +0.337 C 
ATOM     23  O   UNL     1      -4.342  -1.166  -2.079  0.00  0.00    -0.245 OA
BRANCH  22  24
ATOM     24  C   UNL     1      -2.924   0.354  -1.143  0.00  0.00    +0.095 C 
ATOM     25  C   UNL     1      -2.203   0.474  -2.287  0.00  0.00    +0.053 C 
BRANCH  25  26
ATOM     26  C   UNL     1      -1.093   1.350  -2.335  0.00  0.00    +0.128 A 
ATOM     27  C   UNL     1      -0.276   1.568  -3.426  0.00  0.00    +0.049 A 
ATOM     28  C   UNL     1       0.686   2.506  -3.023  0.00  0.00    +0.042 A 
ATOM     29  C   UNL     1       0.425   2.817  -1.734  0.00  0.00    +0.195 A 
ATOM     30  O   UNL     1      -0.643   2.121  -1.323  0.00  0.00    -0.464 OA
ENDBRANCH  25  26
ENDBRANCH  22  24
ENDBRANCH  21  22
ENDBRANCH   5  21
TORSDOF 7
