REMARK  Name = ZINC36549343
REMARK  12 active torsions:
REMARK  status: ('A' for Active; 'I' for Inactive)
REMARK    1  A    between atoms: C_1  and  C_2
REMARK    2  A    between atoms: C_2  and  C_3
REMARK    3  A    between atoms: C_2  and  C_4
REMARK    4  A    between atoms: C_2  and  N_5
REMARK    5  A    between atoms: C_6  and  C_8
REMARK    6  A    between atoms: C_8  and  C_10
REMARK    7  A    between atoms: C_8  and  N_19
REMARK    8  A    between atoms: C_11  and  O_18
REMARK    9  A    between atoms: C_13  and  O_17
REMARK   10  A    between atoms: C_15  and  O_16
REMARK   11  A    between atoms: N_19  and  C_20
REMARK   12  A    between atoms: C_27  and  C_29
REMARK                            x       y       z     vdW  Elec       q    Type
REMARK                         _______ _______ _______ _____ _____    ______ ____
ROOT
ATOM      1  C   UNL     1       2.776  -0.845  -2.159  0.00  0.00    +0.204 C 
ENDROOT
BRANCH   1   2
ATOM      2  C   UNL     1       1.374  -0.591  -2.652  0.00  0.00    +0.065 A 
ATOM      3  C   UNL     1       1.031  -0.905  -3.959  0.00  0.00    +0.129 A 
ATOM      4  C   UNL     1      -0.258  -0.670  -4.412  0.00  0.00    +0.091 A 
ATOM      5  C   UNL     1      -1.204  -0.122  -3.559  0.00  0.00    +0.124 A 
ATOM      6  C   UNL     1      -0.861   0.191  -2.253  0.00  0.00    +0.091 A 
ATOM      7  C   UNL     1       0.427  -0.047  -1.798  0.00  0.00    +0.129 A 
BRANCH   7   8
ATOM      8  O   UNL     1       0.762   0.256  -0.516  0.00  0.00    -0.506 OA
ATOM      9  H   UNL     1       1.096   1.155  -0.399  0.00  0.00    +0.292 HD
ENDBRANCH   7   8
BRANCH   5  10
ATOM     10  O   UNL     1      -2.468   0.109  -4.004  0.00  0.00    -0.507 OA
ATOM     11  H   UNL     1      -3.072  -0.636  -3.876  0.00  0.00    +0.292 HD
ENDBRANCH   5  10
BRANCH   3  12
ATOM     12  O   UNL     1       1.958  -1.442  -4.795  0.00  0.00    -0.506 OA
ATOM     13  H   UNL     1       2.038  -2.403  -4.728  0.00  0.00    +0.292 HD
ENDBRANCH   3  12
ENDBRANCH   1   2
BRANCH   1  15
ATOM     14  N   UNL     1       2.481  -1.010   0.291  0.00  0.00    -0.309 N 
ATOM     15  C   UNL     1       2.924  -0.297  -0.764  0.00  0.00    +0.239 C 
ATOM     16  O   UNL     1       3.443   0.785  -0.589  0.00  0.00    -0.273 OA
ATOM     17  H   UNL     1       2.067  -1.876   0.151  0.00  0.00    +0.149 HD
BRANCH  14  19
ATOM     18  C   UNL     1       1.874   0.850   1.758  0.00  0.00    +0.031 C 
ATOM     19  C   UNL     1       2.626  -0.478   1.648  0.00  0.00    +0.026 C 
ATOM     20  C   UNL     1       4.109  -0.251   1.952  0.00  0.00    +0.031 C 
ATOM     21  C   UNL     1       2.047  -1.476   2.652  0.00  0.00    +0.031 C 
ENDBRANCH  14  19
ENDBRANCH   1  15
BRANCH   1  22
ATOM     22  N   UNL     1       3.734  -0.184  -3.049  0.00  0.00    -0.250 N 
ATOM     23  C   UNL     1       4.656  -0.913  -3.708  0.00  0.00    +0.253 C 
ATOM     24  O   UNL     1       4.644  -2.126  -3.626  0.00  0.00    -0.270 OA
BRANCH  22  25
ATOM     25  C   UNL     1       3.692   1.205  -3.213  0.00  0.00    +0.056 A 
ATOM     26  C   UNL     1       2.750   1.777  -4.058  0.00  0.00    +0.025 A 
ATOM     27  C   UNL     1       2.711   3.149  -4.218  0.00  0.00    +0.002 A 
ATOM     28  C   UNL     1       3.609   3.952  -3.539  0.00  0.00    +0.002 A 
ATOM     29  C   UNL     1       4.548   3.386  -2.697  0.00  0.00    +0.022 A 
ATOM     30  C   UNL     1       4.589   2.015  -2.527  0.00  0.00    +0.062 A 
ATOM     31 CL   UNL     1       5.764   1.305  -1.464  0.00  0.00    -0.082 Cl
ENDBRANCH  22  25
BRANCH  23  32
ATOM     32  C   UNL     1       5.681  -0.238  -4.531  0.00  0.00    +0.055 A 
ATOM     33  C   UNL     1       5.455   1.048  -5.037  0.00  0.00    +0.016 A 
ATOM     34  C   UNL     1       6.447   1.636  -5.802  0.00  0.00    +0.020 A 
ATOM     35  C   UNL     1       7.619   0.940  -6.041  0.00  0.00    +0.111 A 
ATOM     36  N   UNL     1       7.804  -0.271  -5.551  0.00  0.00    -0.263 NA
ATOM     37  C   UNL     1       6.893  -0.870  -4.813  0.00  0.00    +0.123 A 
ENDBRANCH  23  32
ENDBRANCH   1  22
TORSDOF 9
