REMARK  Name = ZINC20582645
REMARK  8 active torsions:
REMARK  status: ('A' for Active; 'I' for Inactive)
REMARK    1  A    between atoms: C_1  and  C_2
REMARK    2  A    between atoms: C_5  and  N_8
REMARK    3  A    between atoms: C_9  and  C_11
REMARK    4  A    between atoms: C_11  and  S_12
REMARK    5  A    between atoms: S_12  and  C_13
REMARK    6  A    between atoms: N_25  and  C_29
REMARK    7  A    between atoms: C_29  and  C_30
REMARK    8  A    between atoms: C_35  and  C_36
REMARK                            x       y       z     vdW  Elec       q    Type
REMARK                         _______ _______ _______ _____ _____    ______ ____
ROOT
ATOM      1  C   UNL     1       0.871   5.686   2.778  0.00  0.00    +0.189 A 
ATOM      2  N   UNL     1       2.122   5.331   2.518  0.00  0.00    -0.228 NA
ATOM      3  C   UNL     1       2.386   4.334   1.683  0.00  0.00    +0.144 A 
ATOM      4  C   UNL     1       1.333   3.675   1.093  0.00  0.00    +0.153 A 
ATOM      5  C   UNL     1       0.022   4.063   1.378  0.00  0.00    +0.104 A 
ATOM      6  N   UNL     1      -0.166   5.073   2.227  0.00  0.00    -0.220 NA
ATOM      7  C   UNL     1      -1.131   3.377   0.758  0.00  0.00    +0.025 A 
ATOM      8  C   UNL     1      -2.378   4.014   0.797  0.00  0.00    +0.012 A 
ATOM      9  C   UNL     1      -3.484   3.416   0.217  0.00  0.00    +0.001 A 
ATOM     10  C   UNL     1      -3.370   2.178  -0.394  0.00  0.00    +0.002 A 
ATOM     11  C   UNL     1      -2.150   1.538  -0.436  0.00  0.00    +0.025 A 
ATOM     12  C   UNL     1      -1.026   2.129   0.134  0.00  0.00    +0.061 A 
ATOM     13  N   UNL     1       0.189   1.441   0.064  0.00  0.00    -0.198 N 
ATOM     14  S   UNL     1       1.591   2.336  -0.028  0.00  0.00    +0.079 S 
ATOM     15  O   UNL     1       2.632   1.535   0.513  0.00  0.00    -0.150 OA
ATOM     16  O   UNL     1       1.645   2.891  -1.335  0.00  0.00    -0.150 OA
ENDROOT
BRANCH   1  17
ATOM     17  S   UNL     1       0.579   7.017   3.894  0.00  0.00    -0.077 S 
BRANCH  17  18
ATOM     18  C   UNL     1       2.284   7.454   4.317  0.00  0.00    +0.173 C 
BRANCH  18  20
ATOM     19  N   UNL     1       3.447   9.102   5.747  0.00  0.00    -0.285 N 
ATOM     20  C   UNL     1       2.281   8.604   5.290  0.00  0.00    +0.227 C 
ATOM     21  O   UNL     1       1.231   9.083   5.661  0.00  0.00    -0.275 OA
ATOM     22  H   UNL     1       4.397   8.621   5.472  0.00  0.00    +0.155 HD
BRANCH  19  27
ATOM     23  C   UNL     1       3.457  13.682   9.095  0.00  0.00    +0.044 C 
ATOM     24  C   UNL     1       3.454  12.466   8.206  0.00  0.00    -0.050 A 
ATOM     25  C   UNL     1       2.431  11.541   8.305  0.00  0.00    +0.005 A 
ATOM     26  C   UNL     1       2.426  10.425   7.491  0.00  0.00    +0.023 A 
ATOM     27  C   UNL     1       3.450  10.232   6.573  0.00  0.00    +0.033 A 
ATOM     28  C   UNL     1       4.479  11.160   6.480  0.00  0.00    +0.023 A 
ATOM     29  C   UNL     1       4.475  12.277   7.292  0.00  0.00    +0.005 A 
ENDBRANCH  19  27
ENDBRANCH  18  20
ENDBRANCH  17  18
ENDBRANCH   1  17
BRANCH  13  30
ATOM     30  C   UNL     1       0.228  -0.023   0.067  0.00  0.00    +0.167 C 
BRANCH  30  31
ATOM     31  C   UNL     1       0.219  -0.523   1.488  0.00  0.00    -0.025 A 
ATOM     32  C   UNL     1       0.074   0.369   2.534  0.00  0.00    +0.005 A 
ATOM     33  C   UNL     1       0.066  -0.090   3.838  0.00  0.00    +0.000 A 
ATOM     34  C   UNL     1       0.202  -1.442   4.096  0.00  0.00    +0.000 A 
ATOM     35  C   UNL     1       0.347  -2.334   3.050  0.00  0.00    +0.003 A 
ATOM     36  C   UNL     1       0.351  -1.875   1.746  0.00  0.00    -0.046 A 
ATOM     37  C   UNL     1       0.503  -2.848   0.605  0.00  0.00    +0.044 C 
ENDBRANCH  30  31
ENDBRANCH  13  30
TORSDOF 6
