REMARK  Name = ZINC13500677
REMARK  12 active torsions:
REMARK  status: ('A' for Active; 'I' for Inactive)
REMARK    1  A    between atoms: C_1  and  C_2
REMARK    2  A    between atoms: C_2  and  O_3
REMARK    3  A    between atoms: O_3  and  C_4
REMARK    4  A    between atoms: C_11  and  C_16
REMARK    5  A    between atoms: C_16  and  N_76
REMARK    6  A    between atoms: C_17  and  N_76
REMARK    7  A    between atoms: C_23  and  C_25
REMARK    8  A    between atoms: C_23  and  C_35
REMARK    9  A    between atoms: C_23  and  N_76
REMARK   10  A    between atoms: N_29  and  C_30
REMARK   11  A    between atoms: C_35  and  C_36
REMARK   12  A    between atoms: C_35  and  C_37
REMARK                            x       y       z     vdW  Elec       q    Type
REMARK                         _______ _______ _______ _____ _____    ______ ____
ROOT
ATOM      1  N   UNL     1       0.638  -2.269  -1.260  0.00  0.00    +0.391 N 
ATOM      2  H   UNL     1      -0.358  -2.422  -1.065  0.00  0.00    -0.080 HD
ENDROOT
BRANCH   1   3
ATOM      3  C   UNL     1       0.932  -0.824  -1.159  0.00  0.00    -0.067 C 
ATOM      4  C   UNL     1       2.362  -0.535  -1.619  0.00  0.00    -0.015 C 
ATOM      5  C   UNL     1       2.640   0.966  -1.507  0.00  0.00    -0.002 C 
ATOM      6  C   UNL     1       1.655   1.734  -2.391  0.00  0.00    -0.000 C 
ATOM      7  C   UNL     1       0.224   1.444  -1.931  0.00  0.00    -0.002 C 
ATOM      8  C   UNL     1      -0.053  -0.057  -2.043  0.00  0.00    -0.015 C 
ENDBRANCH   1   3
BRANCH   1   9
ATOM      9  C   UNL     1       1.441  -3.019  -0.271  0.00  0.00    -0.036 C 
BRANCH   9  17
ATOM     10  C   UNL     1      -2.173  -4.337   4.589  0.00  0.00    +0.121 A 
ATOM     11  C   UNL     1      -1.808  -3.230   5.352  0.00  0.00    +0.047 A 
ATOM     12  C   UNL     1      -0.895  -2.318   4.872  0.00  0.00    +0.030 A 
ATOM     13  C   UNL     1      -0.329  -2.496   3.614  0.00  0.00    +0.049 A 
ATOM     14  C   UNL     1      -0.696  -3.613   2.840  0.00  0.00    +0.002 A 
ATOM     15  C   UNL     1      -1.624  -4.534   3.338  0.00  0.00    +0.055 A 
ATOM     16  C   UNL     1      -0.092  -3.790   1.518  0.00  0.00    +0.017 A 
ATOM     17  C   UNL     1       0.802  -2.867   1.085  0.00  0.00    +0.001 A 
ATOM     18  C   UNL     1       1.141  -1.767   1.902  0.00  0.00    +0.251 A 
ATOM     19  O   UNL     1       1.951  -0.952   1.496  0.00  0.00    -0.268 OA
ATOM     20  N   UNL     1       0.588  -1.593   3.115  0.00  0.00    -0.322 N 
ATOM     21  H   UNL     1       0.839  -0.824   3.649  0.00  0.00    +0.169 HD
BRANCH  10  22
ATOM     22  O   UNL     1      -3.076  -5.228   5.079  0.00  0.00    -0.492 OA
BRANCH  22  24
ATOM     23  C   UNL     1      -4.598  -6.068   6.758  0.00  0.00    +0.048 C 
ATOM     24  C   UNL     1      -3.606  -4.966   6.380  0.00  0.00    +0.225 C 
ENDBRANCH  22  24
ENDBRANCH  10  22
ENDBRANCH   9  17
ENDBRANCH   1   9
BRANCH   1  25
ATOM     25  C   UNL     1       0.939  -2.752  -2.625  0.00  0.00    +0.006 C 
BRANCH  25  26
ATOM     26  C   UNL     1       2.388  -3.152  -2.734  0.00  0.00    +0.139 A 
ATOM     27  N   UNL     1       3.054  -3.912  -1.900  0.00  0.00    -0.115 NA
ATOM     28  N   UNL     1       4.261  -4.021  -2.339  0.00  0.00    -0.023 NA
ATOM     29  N   UNL     1       4.383  -3.344  -3.427  0.00  0.00    -0.044 NA
ATOM     30  N   UNL     1       3.249  -2.793  -3.704  0.00  0.00    -0.228 N 
BRANCH  30  31
ATOM     31  C   UNL     1       2.956  -1.939  -4.856  0.00  0.00    +0.111 C 
ATOM     32  C   UNL     1       3.255  -2.697  -6.166  0.00  0.00    +0.027 C 
ATOM     33  C   UNL     1       3.840  -1.613  -7.106  0.00  0.00    +0.002 C 
ATOM     34  C   UNL     1       4.698  -0.752  -6.146  0.00  0.00    +0.002 C 
ATOM     35  C   UNL     1       3.872  -0.703  -4.843  0.00  0.00    +0.027 C 
ENDBRANCH  30  31
ENDBRANCH  25  26
BRANCH  25  36
ATOM     36  C   UNL     1       0.051  -3.962  -2.921  0.00  0.00    -0.024 C 
ATOM     37  C   UNL     1       0.308  -5.050  -1.876  0.00  0.00    +0.006 C 
ATOM     38  C   UNL     1      -1.419  -3.542  -2.869  0.00  0.00    +0.006 C 
ENDBRANCH  25  36
ENDBRANCH   1  25
TORSDOF 9
