REMARK  Name = ZINC09387295
REMARK  13 active torsions:
REMARK  status: ('A' for Active; 'I' for Inactive)
REMARK    1  A    between atoms: C_1  and  C_2
REMARK    2  A    between atoms: C_2  and  N_61
REMARK    3  A    between atoms: C_3  and  C_4
REMARK    4  A    between atoms: C_3  and  N_61
REMARK    5  A    between atoms: C_5  and  C_6
REMARK    6  A    between atoms: C_5  and  N_61
REMARK    7  A    between atoms: C_6  and  N_7
REMARK    8  A    between atoms: C_11  and  O_18
REMARK    9  A    between atoms: C_14  and  C_17
REMARK   10  A    between atoms: O_18  and  C_19
REMARK   11  A    between atoms: C_20  and  C_22
REMARK   12  A    between atoms: C_22  and  S_23
REMARK   13  A    between atoms: S_23  and  C_26
REMARK                            x       y       z     vdW  Elec       q    Type
REMARK                         _______ _______ _______ _____ _____    ______ ____
ROOT
ATOM      1  N   UNL     1       4.927   5.513   0.138  0.00  0.00    -0.251 N 
ATOM      2  C   UNL     1       3.715   4.851   0.268  0.00  0.00    +0.168 A 
ATOM      3  N   UNL     1       3.485   3.561   0.326  0.00  0.00    -0.221 NA
ATOM      4  C   UNL     1       2.240   3.051   0.454  0.00  0.00    +0.122 A 
ATOM      5  C   UNL     1       1.855   1.688   0.528  0.00  0.00    +0.147 A 
ATOM      6  C   UNL     1       0.532   1.340   0.659  0.00  0.00    +0.048 A 
ATOM      7  C   UNL     1      -0.467   2.301   0.722  0.00  0.00    +0.008 A 
ATOM      8  C   UNL     1      -0.125   3.638   0.652  0.00  0.00    -0.034 A 
ATOM      9  C   UNL     1       1.194   3.998   0.522  0.00  0.00    +0.047 A 
ATOM     10  S   UNL     1       2.071   5.538   0.397  0.00  0.00    -0.051 S 
ATOM     11  C   UNL     1      -1.196   4.697   0.713  0.00  0.00    +0.045 C 
ATOM     12  C   UNL     1       4.958   6.860   0.097  0.00  0.00    +0.243 C 
ATOM     13  O   UNL     1       3.926   7.493   0.172  0.00  0.00    -0.273 OA
ENDROOT
BRANCH   5  14
ATOM     14  O   UNL     1       2.804   0.717   0.469  0.00  0.00    -0.493 OA
ATOM     15  C   UNL     1       2.353  -0.637   0.549  0.00  0.00    +0.277 C 
ENDBRANCH   5  14
BRANCH   1  16
ATOM     16  C   UNL     1       6.173   4.749   0.047  0.00  0.00    +0.097 C 
BRANCH  16  17
ATOM     17  C   UNL     1       6.476   4.441  -1.421  0.00  0.00    -0.059 C 
BRANCH  17  18
ATOM     18  N   UNL     1       7.746   3.688  -1.498  0.00  0.00    +0.380 N 
ATOM     19  H   UNL     1       8.467   4.197  -0.973  0.00  0.00    -0.082 HD
BRANCH  18  21
ATOM     20  C   UNL     1       6.490   1.564  -1.643  0.00  0.00    -0.017 C 
ATOM     21  C   UNL     1       7.575   2.347  -0.901  0.00  0.00    -0.082 C 
ENDBRANCH  18  21
BRANCH  18  22
ATOM     22  C   UNL     1       8.175   3.564  -2.907  0.00  0.00    -0.082 C 
ATOM     23  C   UNL     1       9.638   3.119  -2.938  0.00  0.00    -0.017 C 
ENDBRANCH  18  22
ENDBRANCH  17  18
ENDBRANCH  16  17
ENDBRANCH   1  16
BRANCH  12  24
ATOM     24  C   UNL     1       6.274   7.579  -0.044  0.00  0.00    +0.267 C 
BRANCH  24  25
ATOM     25  S   UNL     1       5.985   9.370  -0.069  0.00  0.00    +0.005 S 
ATOM     26  O   UNL     1       5.299   9.738  -1.258  0.00  0.00    -0.169 OA
ATOM     27  O   UNL     1       5.522   9.809   1.200  0.00  0.00    -0.169 OA
BRANCH  25  28
ATOM     28  C   UNL     1       7.587  10.085  -0.236  0.00  0.00    +0.089 A 
ATOM     29  C   UNL     1       8.321  10.405   0.891  0.00  0.00    +0.028 A 
ATOM     30  C   UNL     1       9.580  10.960   0.761  0.00  0.00    +0.022 A 
ATOM     31  C   UNL     1      10.101  11.207  -0.497  0.00  0.00    +0.041 A 
ATOM     32  C   UNL     1       9.363  10.892  -1.624  0.00  0.00    +0.022 A 
ATOM     33  C   UNL     1       8.107  10.331  -1.493  0.00  0.00    +0.028 A 
ATOM     34 CL   UNL     1      11.679  11.911  -0.660  0.00  0.00    -0.084 Cl
ENDBRANCH  25  28
ENDBRANCH  24  25
ENDBRANCH  12  24
TORSDOF 9
