REMARK  Name = ZINC35155430
REMARK  11 active torsions:
REMARK  status: ('A' for Active; 'I' for Inactive)
REMARK    1  A    between atoms: C_1  and  C_2
REMARK    2  A    between atoms: C_2  and  C_3
REMARK    3  A    between atoms: C_3  and  C_5
REMARK    4  A    between atoms: C_3  and  N_6
REMARK    5  A    between atoms: N_6  and  C_7
REMARK    6  A    between atoms: C_7  and  C_8
REMARK    7  A    between atoms: C_8  and  C_9
REMARK    8  A    between atoms: C_15  and  C_17
REMARK    9  A    between atoms: C_26  and  C_28
REMARK   10  A    between atoms: C_28  and  S_29
REMARK   11  A    between atoms: S_29  and  C_30
REMARK                            x       y       z     vdW  Elec       q    Type
REMARK                         _______ _______ _______ _____ _____    ______ ____
ROOT
ATOM      1  C   UNL     1      -3.953   2.967  -1.614  0.00  0.00    +0.220 C 
ATOM      2  O   UNL     1      -5.070   2.505  -1.512  0.00  0.00    -0.275 OA
ATOM      3  N   UNL     1      -3.787   4.293  -1.792  0.00  0.00    -0.263 N 
ATOM      4  C   UNL     1      -4.894   5.130  -1.858  0.00  0.00    +0.188 A 
ATOM      5  N   UNL     1      -6.186   4.843  -1.765  0.00  0.00    -0.125 NA
ATOM      6  N   UNL     1      -7.075   5.734  -1.847  0.00  0.00    -0.140 NA
ATOM      7  C   UNL     1      -6.770   7.013  -2.030  0.00  0.00    +0.134 A 
ATOM      8  S   UNL     1      -4.983   6.904  -2.084  0.00  0.00    -0.030 S 
ATOM      9  H   UNL     1      -2.894   4.663  -1.873  0.00  0.00    +0.157 HD
ENDROOT
BRANCH   7  10
ATOM     10  C   UNL     1      -7.653   8.192  -2.151  0.00  0.00    +0.013 A 
ATOM     11  C   UNL     1      -7.104   9.460  -2.349  0.00  0.00    +0.014 A 
ATOM     12  C   UNL     1      -7.930  10.559  -2.462  0.00  0.00    +0.050 A 
ATOM     13  C   UNL     1      -9.307  10.409  -2.378  0.00  0.00    +0.166 A 
ATOM     14  C   UNL     1      -9.861   9.146  -2.180  0.00  0.00    +0.167 A 
ATOM     15  C   UNL     1      -9.038   8.040  -2.072  0.00  0.00    +0.060 A 
ATOM     16  O   UNL     1     -11.220   9.268  -2.135  0.00  0.00    -0.453 OA
ATOM     17  C   UNL     1     -11.472  10.665  -1.898  0.00  0.00    +0.466 C 
ATOM     18  O   UNL     1     -10.319  11.321  -2.457  0.00  0.00    -0.453 OA
ENDBRANCH   7  10
BRANCH   1  19
ATOM     19  C   UNL     1      -2.752   2.060  -1.542  0.00  0.00    +0.115 C 
BRANCH  19  20
ATOM     20  C   UNL     1      -3.216   0.616  -1.338  0.00  0.00    +0.117 C 
BRANCH  20  21
ATOM     21  N   UNL     1      -2.048  -0.267  -1.269  0.00  0.00    -0.298 N 
ATOM     22  C   UNL     1      -1.555  -0.822  -2.393  0.00  0.00    +0.226 C 
ATOM     23  O   UNL     1      -2.131  -0.666  -3.449  0.00  0.00    -0.275 OA
BRANCH  21  24
ATOM     24  C   UNL     1      -1.417  -0.545   0.024  0.00  0.00    +0.073 C 
ATOM     25  C   UNL     1      -1.030   0.773   0.697  0.00  0.00    +0.028 C 
BRANCH  24  27
ATOM     26  C   UNL     1      -2.688  -2.677   0.304  0.00  0.00    +0.005 C 
ATOM     27  C   UNL     1      -2.398  -1.306   0.917  0.00  0.00    +0.019 C 
ENDBRANCH  24  27
ENDBRANCH  21  24
BRANCH  22  28
ATOM     28  C   UNL     1      -0.289  -1.637  -2.339  0.00  0.00    +0.170 C 
BRANCH  28  29
ATOM     29  S   UNL     1       0.193  -2.119  -4.020  0.00  0.00    -0.116 S 
BRANCH  29  30
ATOM     30  C   UNL     1       1.669  -3.053  -3.789  0.00  0.00    +0.008 A 
ATOM     31  C   UNL     1       2.172  -3.256  -2.510  0.00  0.00    +0.015 A 
ATOM     32  C   UNL     1       3.329  -3.988  -2.332  0.00  0.00    +0.001 A 
ATOM     33  C   UNL     1       3.988  -4.518  -3.427  0.00  0.00    +0.000 A 
ATOM     34  C   UNL     1       3.491  -4.318  -4.702  0.00  0.00    +0.001 A 
ATOM     35  C   UNL     1       2.331  -3.592  -4.886  0.00  0.00    +0.015 A 
ENDBRANCH  29  30
ENDBRANCH  28  29
ENDBRANCH  22  28
ENDBRANCH  20  21
ENDBRANCH  19  20
ENDBRANCH   1  19
TORSDOF 9
