REMARK  Name = ZINC38486707
REMARK  5 active torsions:
REMARK  status: ('A' for Active; 'I' for Inactive)
REMARK    1  A    between atoms: C_3  and  C_8
REMARK    2  A    between atoms: C_11  and  C_13
REMARK    3  A    between atoms: C_14  and  N_28
REMARK    4  A    between atoms: N_15  and  C_18
REMARK    5  A    between atoms: C_22  and  C_24
REMARK                            x       y       z     vdW  Elec       q    Type
REMARK                         _______ _______ _______ _____ _____    ______ ____
ROOT
ATOM      1  C   UNL     1       4.974   5.645  -0.008  0.00  0.00    +0.159 A 
ATOM      2  C   UNL     1       6.194   6.300  -0.023  0.00  0.00    +0.150 A 
ATOM      3  N   UNL     1       5.912   7.635  -0.005  0.00  0.00    -0.198 N 
ATOM      4  N   UNL     1       4.515   7.749   0.020  0.00  0.00    -0.058 NA
ATOM      5  N   UNL     1       4.001   6.570   0.012  0.00  0.00    -0.125 NA
ENDROOT
BRANCH   3   6
ATOM      6  C   UNL     1       6.838   8.687  -0.011  0.00  0.00    +0.070 A 
ATOM      7  C   UNL     1       8.051   8.550   0.651  0.00  0.00    +0.028 A 
ATOM      8  C   UNL     1       8.962   9.588   0.644  0.00  0.00    +0.003 A 
ATOM      9  C   UNL     1       8.667  10.763  -0.023  0.00  0.00    +0.012 A 
ATOM     10  C   UNL     1       7.461  10.902  -0.684  0.00  0.00    +0.057 A 
ATOM     11  C   UNL     1       6.548   9.865  -0.684  0.00  0.00    +0.040 A 
BRANCH  10  12
ATOM     12  C   UNL     1       7.143  12.185  -1.409  0.00  0.00    +0.417 C 
ATOM     13  F   UNL     1       8.213  13.075  -1.271  0.00  0.00    -0.166 F 
ATOM     14  F   UNL     1       6.933  11.914  -2.765  0.00  0.00    -0.166 F 
ATOM     15  F   UNL     1       5.989  12.756  -0.862  0.00  0.00    -0.166 F 
ENDBRANCH  10  12
ENDBRANCH   3   6
BRANCH   1  19
ATOM     16  C   UNL     1       3.660   2.166  -0.022  0.00  0.00    +0.079 A 
ATOM     17  C   UNL     1       4.856   1.502  -0.042  0.00  0.00    +0.075 A 
ATOM     18  S   UNL     1       5.999   2.877  -0.044  0.00  0.00    -0.073 S 
ATOM     19  C   UNL     1       4.778   4.182  -0.018  0.00  0.00    +0.132 A 
ATOM     20  N   UNL     1       3.650   3.488  -0.015  0.00  0.00    -0.237 NA
BRANCH  16  23
ATOM     21  C   UNL     1      -0.017   1.379   0.010  0.00  0.00    +0.002 A 
ATOM     22  C   UNL     1       1.167   2.088   0.002  0.00  0.00    +0.010 A 
ATOM     23  C   UNL     1       2.384   1.408  -0.013  0.00  0.00    +0.002 A 
ATOM     24  C   UNL     1       2.398   0.015  -0.021  0.00  0.00    +0.030 A 
ATOM     25  C   UNL     1       1.208  -0.685  -0.013  0.00  0.00    +0.042 A 
ATOM     26  C   UNL     1       0.002  -0.004   0.002  0.00  0.00    +0.020 A 
ATOM     27 CL   UNL     1       1.222  -2.421  -0.023  0.00  0.00    -0.084 Cl
ENDBRANCH  16  23
ENDBRANCH   1  19
BRANCH   2  28
ATOM     28  N   UNL     1       7.451   5.716  -0.049  0.00  0.00    -0.341 N 
ATOM     29  H   UNL     1       7.537   4.750  -0.060  0.00  0.00    +0.144 HD
ATOM     30  H   UNL     1       8.245   6.274  -0.057  0.00  0.00    +0.144 HD
ENDBRANCH   2  28
TORSDOF 5
