REMARK  Name = ZINC11789385
REMARK  8 active torsions:
REMARK  status: ('A' for Active; 'I' for Inactive)
REMARK    1  A    between atoms: C_9  and  S_11
REMARK    2  A    between atoms: S_11  and  C_12
REMARK    3  A    between atoms: C_15  and  C_28
REMARK    4  A    between atoms: C_18  and  C_19
REMARK    5  A    between atoms: C_18  and  N_64
REMARK    6  A    between atoms: N_30  and  C_31
REMARK    7  A    between atoms: C_31  and  C_32
REMARK    8  A    between atoms: C_32  and  C_33
REMARK                            x       y       z     vdW  Elec       q    Type
REMARK                         _______ _______ _______ _____ _____    ______ ____
ROOT
ATOM      1  C   UNL     1      -2.727   0.918  -5.147  0.00  0.00    +0.037 C 
ATOM      2  C   UNL     1      -2.438   1.206  -3.660  0.00  0.00    +0.006 C 
ATOM      3  C   UNL     1      -0.997   1.758  -3.630  0.00  0.00    +0.021 C 
ATOM      4  C   UNL     1      -1.435   1.320  -5.891  0.00  0.00    -0.063 C 
ATOM      5  N   UNL     1      -0.401   1.228  -4.854  0.00  0.00    +0.391 N 
ATOM      6  H   UNL     1      -0.128   0.248  -4.716  0.00  0.00    -0.080 HD
ENDROOT
BRANCH   3   7
ATOM      7  C   UNL     1      -0.268   1.258  -2.409  0.00  0.00    +0.200 C 
ATOM      8  O   UNL     1       0.726   0.575  -2.534  0.00  0.00    -0.278 OA
ATOM      9  N   UNL     1      -0.721   1.571  -1.179  0.00  0.00    -0.316 N 
ATOM     10  H   UNL     1      -1.516   2.118  -1.079  0.00  0.00    +0.149 HD
BRANCH   9  11
ATOM     11  C   UNL     1      -0.013   1.086   0.008  0.00  0.00    +0.109 C 
BRANCH  11  12
ATOM     12  C   UNL     1      -0.729   1.579   1.267  0.00  0.00    +0.054 C 
BRANCH  12  13
ATOM     13  C   UNL     1       0.000   1.080   2.488  0.00  0.00    -0.043 A 
ATOM     14  C   UNL     1      -0.348  -0.133   3.052  0.00  0.00    +0.004 A 
ATOM     15  C   UNL     1       0.323  -0.595   4.169  0.00  0.00    +0.003 A 
ATOM     16  C   UNL     1       1.335   0.161   4.729  0.00  0.00    +0.038 A 
ATOM     17  C   UNL     1       1.681   1.379   4.168  0.00  0.00    +0.124 A 
ATOM     18  C   UNL     1       1.012   1.838   3.046  0.00  0.00    +0.042 A 
ATOM     19  F   UNL     1       2.670   2.119   4.715  0.00  0.00    -0.205 F 
ENDBRANCH  12  13
ENDBRANCH  11  12
ENDBRANCH   9  11
ENDBRANCH   3   7
BRANCH   1  20
ATOM     20  S   UNL     1      -4.123   1.916  -5.722  0.00  0.00    -0.086 S 
BRANCH  20  29
ATOM     21  C   UNL     1      -5.245   0.034 -11.617  0.00  0.00    +0.002 A 
ATOM     22  C   UNL     1      -4.181  -0.819 -11.364  0.00  0.00    +0.002 A 
ATOM     23  C   UNL     1      -3.545  -0.799 -10.143  0.00  0.00    +0.030 A 
ATOM     24  C   UNL     1      -3.975   0.085  -9.151  0.00  0.00    +0.090 A 
ATOM     25  C   UNL     1      -5.053   0.947  -9.413  0.00  0.00    +0.067 A 
ATOM     26  C   UNL     1      -5.682   0.914 -10.648  0.00  0.00    +0.028 A 
ATOM     27  N   UNL     1      -5.242   1.690  -8.259  0.00  0.00    -0.333 N 
ATOM     28  H   UNL     1      -5.934   2.397  -8.115  0.00  0.00    +0.168 HD
ATOM     29  C   UNL     1      -4.305   1.277  -7.354  0.00  0.00    +0.167 A 
ATOM     30  N   UNL     1      -3.559   0.338  -7.883  0.00  0.00    -0.222 NA
ENDBRANCH  20  29
ENDBRANCH   1  20
BRANCH   5  31
ATOM     31  C   UNL     1       0.804   2.025  -5.247  0.00  0.00    -0.042 C 
BRANCH  31  32
ATOM     32  C   UNL     1       1.557   1.321  -6.346  0.00  0.00    -0.060 A 
ATOM     33  C   UNL     1       1.242   1.573  -7.668  0.00  0.00    +0.005 A 
ATOM     34  C   UNL     1       1.930   0.929  -8.680  0.00  0.00    +0.050 A 
ATOM     35  C   UNL     1       2.938   0.031  -8.371  0.00  0.00    +0.166 A 
ATOM     36  C   UNL     1       3.256  -0.222  -7.039  0.00  0.00    +0.166 A 
ATOM     37  C   UNL     1       2.566   0.430  -6.030  0.00  0.00    +0.051 A 
ATOM     38  O   UNL     1       4.272  -1.133  -6.998  0.00  0.00    -0.453 OA
ATOM     39  C   UNL     1       4.847  -1.127  -8.319  0.00  0.00    +0.466 C 
ATOM     40  O   UNL     1       3.755  -0.721  -9.165  0.00  0.00    -0.453 OA
ENDBRANCH  31  32
ENDBRANCH   5  31
TORSDOF 8
