REMARK  Name = ZINC40008632
REMARK  13 active torsions:
REMARK  status: ('A' for Active; 'I' for Inactive)
REMARK    1  A    between atoms: C_1  and  C_2
REMARK    2  A    between atoms: C_2  and  C_3
REMARK    3  A    between atoms: C_3  and  O_4
REMARK    4  A    between atoms: O_4  and  C_5
REMARK    5  A    between atoms: C_9  and  C_11
REMARK    6  A    between atoms: N_26  and  C_27
REMARK    7  A    between atoms: C_27  and  C_28
REMARK    8  A    between atoms: C_28  and  C_29
REMARK    9  A    between atoms: C_29  and  N_30
REMARK   10  A    between atoms: N_30  and  C_31
REMARK   11  A    between atoms: N_30  and  C_33
REMARK   12  A    between atoms: C_31  and  C_32
REMARK   13  A    between atoms: C_33  and  C_34
REMARK                            x       y       z     vdW  Elec       q    Type
REMARK                         _______ _______ _______ _____ _____    ______ ____
ROOT
ATOM      1  C   UNL     1      -3.873  -7.602   0.670  0.00  0.00    +0.145 C 
ATOM      2  C   UNL     1      -4.281  -8.399   1.865  0.00  0.00    +0.072 A 
ATOM      3  C   UNL     1      -3.592  -8.662   3.133  0.00  0.00    +0.199 A 
ATOM      4  O   UNL     1      -2.574  -8.084   3.472  0.00  0.00    -0.287 OA
ATOM      5  C   UNL     1      -4.252  -9.701   3.964  0.00  0.00    +0.065 A 
ATOM      6  C   UNL     1      -3.618 -10.206   5.098  0.00  0.00    +0.030 A 
ATOM      7  C   UNL     1      -4.243 -11.173   5.854  0.00  0.00    +0.019 A 
ATOM      8  C   UNL     1      -5.498 -11.640   5.486  0.00  0.00    +0.019 A 
ATOM      9  C   UNL     1      -6.134 -11.148   4.369  0.00  0.00    +0.048 A 
ATOM     10  C   UNL     1      -5.523 -10.167   3.589  0.00  0.00    +0.140 A 
ATOM     11  O   UNL     1      -6.175  -9.693   2.502  0.00  0.00    -0.450 OA
ATOM     12  C   UNL     1      -5.517  -8.923   1.613  0.00  0.00    +0.199 A 
ATOM     13  C   UNL     1      -5.936  -8.493   0.268  0.00  0.00    +0.283 C 
ATOM     14  O   UNL     1      -6.988  -8.792  -0.262  0.00  0.00    -0.267 OA
ATOM     15  N   UNL     1      -4.980  -7.720  -0.292  0.00  0.00    -0.284 N 
ATOM     16 BR   UNL     1      -3.392 -11.865   7.395  0.00  0.00    -0.050 Br
ENDROOT
BRANCH   1  21
ATOM     17  C   UNL     1      -2.203  -4.334   1.573  0.00  0.00    +0.121 A 
ATOM     18  C   UNL     1      -3.302  -3.506   1.756  0.00  0.00    +0.045 A 
ATOM     19  C   UNL     1      -4.578  -4.007   1.588  0.00  0.00    +0.004 A 
ATOM     20  C   UNL     1      -4.762  -5.332   1.236  0.00  0.00    +0.006 A 
ATOM     21  C   UNL     1      -3.669  -6.158   1.053  0.00  0.00    -0.019 A 
ATOM     22  C   UNL     1      -2.390  -5.661   1.215  0.00  0.00    +0.051 A 
BRANCH  17  23
ATOM     23  O   UNL     1      -0.947  -3.844   1.738  0.00  0.00    -0.492 OA
BRANCH  23  24
ATOM     24  C   UNL     1      -0.830  -2.468   2.106  0.00  0.00    +0.229 C 
BRANCH  24  26
ATOM     25  C   UNL     1       0.773  -0.627   2.640  0.00  0.00    +0.007 C 
ATOM     26  C   UNL     1       0.648  -2.100   2.245  0.00  0.00    +0.038 C 
ENDBRANCH  24  26
ENDBRANCH  23  24
ENDBRANCH  17  23
ENDBRANCH   1  21
BRANCH  15  27
ATOM     27  C   UNL     1      -5.036  -7.107  -1.621  0.00  0.00    +0.107 C 
BRANCH  27  28
ATOM     28  C   UNL     1      -4.437  -8.067  -2.651  0.00  0.00    +0.000 C 
BRANCH  28  29
ATOM     29  C   UNL     1      -4.495  -7.426  -4.039  0.00  0.00    -0.077 C 
BRANCH  29  30
ATOM     30  N   UNL     1      -3.920  -8.347  -5.028  0.00  0.00    +0.379 N 
ATOM     31  H   UNL     1      -2.987  -8.607  -4.743  0.00  0.00    -0.082 HD
BRANCH  30  32
ATOM     32  C   UNL     1      -4.756  -9.551  -5.120  0.00  0.00    -0.082 C 
ATOM     33  C   UNL     1      -4.083 -10.570  -6.042  0.00  0.00    -0.017 C 
ENDBRANCH  30  32
BRANCH  30  34
ATOM     34  C   UNL     1      -3.865  -7.687  -6.339  0.00  0.00    -0.082 C 
ATOM     35  C   UNL     1      -2.882  -6.516  -6.280  0.00  0.00    -0.017 C 
ENDBRANCH  30  34
ENDBRANCH  29  30
ENDBRANCH  28  29
ENDBRANCH  27  28
ENDBRANCH  15  27
TORSDOF 10
