REMARK  Name = ZINC22715928
REMARK  16 active torsions:
REMARK  status: ('A' for Active; 'I' for Inactive)
REMARK    1  A    between atoms: C_1  and  C_2
REMARK    2  A    between atoms: C_2  and  C_4
REMARK    3  A    between atoms: C_2  and  N_11
REMARK    4  A    between atoms: C_12  and  C_14
REMARK    5  A    between atoms: C_14  and  C_16
REMARK    6  A    between atoms: C_14  and  S_17
REMARK    7  A    between atoms: S_17  and  C_18
REMARK    8  A    between atoms: N_28  and  C_29
REMARK    9  A    between atoms: C_29  and  C_30
REMARK   10  A    between atoms: C_30  and  N_31
REMARK   11  A    between atoms: N_31  and  C_32
REMARK   12  A    between atoms: N_31  and  C_35
REMARK   13  A    between atoms: C_32  and  C_33
REMARK   14  A    between atoms: C_32  and  C_34
REMARK   15  A    between atoms: C_35  and  C_36
REMARK   16  A    between atoms: C_35  and  C_37
REMARK                            x       y       z     vdW  Elec       q    Type
REMARK                         _______ _______ _______ _____ _____    ______ ____
ROOT
ATOM      1  C   UNL     1       1.341  -0.677   7.236  0.00  0.00    +0.173 A 
ATOM      2  N   UNL     1       2.573  -1.084   7.057  0.00  0.00    -0.223 NA
ATOM      3  C   UNL     1       3.314  -1.561   8.077  0.00  0.00    +0.079 A 
ATOM      4  C   UNL     1       4.630  -1.995   7.887  0.00  0.00    +0.028 A 
ATOM      5  C   UNL     1       5.345  -2.471   8.949  0.00  0.00    +0.002 A 
ATOM      6  C   UNL     1       4.785  -2.532  10.219  0.00  0.00    +0.001 A 
ATOM      7  C   UNL     1       3.501  -2.115  10.436  0.00  0.00    +0.015 A 
ATOM      8  C   UNL     1       2.748  -1.624   9.370  0.00  0.00    +0.065 A 
ATOM      9  C   UNL     1       1.364  -1.161   9.545  0.00  0.00    +0.262 A 
ATOM     10  O   UNL     1       0.822  -1.190  10.635  0.00  0.00    -0.267 OA
ATOM     11  N   UNL     1       0.718  -0.697   8.451  0.00  0.00    -0.289 N 
ENDROOT
BRANCH   1  12
ATOM     12  S   UNL     1       0.447  -0.068   5.844  0.00  0.00    -0.075 S 
BRANCH  12  13
ATOM     13  C   UNL     1       1.622  -0.216   4.470  0.00  0.00    +0.137 C 
ATOM     14  C   UNL     1       1.929  -1.694   4.219  0.00  0.00    +0.029 C 
BRANCH  13  16
ATOM     15  N   UNL     1       1.817   0.763   2.207  0.00  0.00    -0.308 N 
ATOM     16  C   UNL     1       1.020   0.390   3.228  0.00  0.00    +0.227 C 
ATOM     17  O   UNL     1      -0.180   0.541   3.147  0.00  0.00    -0.275 OA
ATOM     18  H   UNL     1       2.777   0.642   2.271  0.00  0.00    +0.149 HD
BRANCH  15  20
ATOM     19  C   UNL     1       1.041   2.856   1.207  0.00  0.00    +0.033 C 
ATOM     20  C   UNL     1       1.233   1.353   0.999  0.00  0.00    +0.100 C 
BRANCH  20  21
ATOM     21  C   UNL     1       2.155   1.121  -0.170  0.00  0.00    -0.027 A 
ATOM     22  C   UNL     1       3.523   1.232  -0.003  0.00  0.00    +0.008 A 
ATOM     23  C   UNL     1       4.370   1.019  -1.074  0.00  0.00    +0.038 A 
ATOM     24  C   UNL     1       3.848   0.695  -2.315  0.00  0.00    +0.123 A 
ATOM     25  C   UNL     1       2.477   0.583  -2.481  0.00  0.00    +0.038 A 
ATOM     26  C   UNL     1       1.633   0.791  -1.407  0.00  0.00    +0.008 A 
ATOM     27  F   UNL     1       4.674   0.487  -3.363  0.00  0.00    -0.205 F 
ENDBRANCH  20  21
ENDBRANCH  15  20
ENDBRANCH  13  16
ENDBRANCH  12  13
ENDBRANCH   1  12
BRANCH  11  28
ATOM     28  C   UNL     1      -0.662  -0.218   8.569  0.00  0.00    +0.109 C 
BRANCH  28  29
ATOM     29  C   UNL     1      -1.627  -1.382   8.340  0.00  0.00    -0.056 C 
BRANCH  29  30
ATOM     30  N   UNL     1      -3.003  -0.935   8.598  0.00  0.00    +0.384 N 
ATOM     31  H   UNL     1      -3.058  -0.534   9.523  0.00  0.00    -0.081 HD
BRANCH  30  32
ATOM     32  C   UNL     1      -3.385   0.075   7.603  0.00  0.00    -0.074 C 
ATOM     33  C   UNL     1      -3.884  -0.622   6.335  0.00  0.00    -0.014 C 
ATOM     34  C   UNL     1      -4.499   0.956   8.172  0.00  0.00    -0.014 C 
ENDBRANCH  30  32
BRANCH  30  35
ATOM     35  C   UNL     1      -3.916  -2.083   8.507  0.00  0.00    -0.074 C 
ATOM     36  C   UNL     1      -3.433  -3.194   9.441  0.00  0.00    -0.014 C 
ATOM     37  C   UNL     1      -5.324  -1.648   8.917  0.00  0.00    -0.014 C 
ENDBRANCH  30  35
ENDBRANCH  29  30
ENDBRANCH  28  29
ENDBRANCH  11  28
TORSDOF 10
