REMARK  Name = ZINC30730478
REMARK  11 active torsions:
REMARK  status: ('A' for Active; 'I' for Inactive)
REMARK    1  A    between atoms: C_1  and  C_2
REMARK    2  A    between atoms: C_2  and  C_4
REMARK    3  A    between atoms: C_2  and  C_8
REMARK    4  A    between atoms: C_4  and  C_5
REMARK    5  A    between atoms: C_5  and  C_6
REMARK    6  A    between atoms: C_6  and  O_7
REMARK    7  A    between atoms: C_14  and  C_37
REMARK    8  A    between atoms: C_15  and  O_36
REMARK    9  A    between atoms: C_22  and  O_35
REMARK   10  A    between atoms: C_27  and  C_34
REMARK   11  A    between atoms: C_30  and  O_33
REMARK                            x       y       z     vdW  Elec       q    Type
REMARK                         _______ _______ _______ _____ _____    ______ ____
ROOT
ATOM      1  C   UNL     1       4.108   1.474   5.056  0.00  0.00    +0.001 C 
ATOM      2  C   UNL     1       2.981   1.225   6.090  0.00  0.00    +0.005 C 
ATOM      3  C   UNL     1       1.640   1.441   5.336  0.00  0.00    +0.005 C 
ATOM      4  C   UNL     1       2.023   1.186   3.874  0.00  0.00    +0.003 C 
ATOM      5  C   UNL     1       3.395   1.906   3.779  0.00  0.00    +0.000 C 
ATOM      6  C   UNL     1       4.037   1.490   2.470  0.00  0.00    +0.121 C 
ATOM      7  C   UNL     1       3.148   2.023   1.335  0.00  0.00    +0.036 C 
ATOM      8  C   UNL     1       1.720   1.502   1.455  0.00  0.00    +0.003 C 
ATOM      9  C   UNL     1       1.118   1.816   2.833  0.00  0.00    +0.025 C 
ATOM     10  C   UNL     1      -0.286   1.216   2.915  0.00  0.00    +0.118 C 
ATOM     11  C   UNL     1      -1.168   1.834   1.825  0.00  0.00    +0.035 C 
ATOM     12  C   UNL     1      -0.566   1.533   0.451  0.00  0.00    +0.000 C 
ATOM     13  C   UNL     1       0.842   2.125   0.369  0.00  0.00    -0.026 C 
ATOM     14  C   UNL     1       1.442   1.825  -1.006  0.00  0.00    +0.010 C 
ATOM     15  C   UNL     1       0.562   2.445  -2.094  0.00  0.00    +0.032 C 
ATOM     16  C   UNL     1      -0.846   1.851  -2.011  0.00  0.00    +0.115 C 
ATOM     17  C   UNL     1      -1.446   2.153  -0.636  0.00  0.00    +0.035 C 
ATOM     18  C   UNL     1       0.772   3.640   0.576  0.00  0.00    +0.012 C 
ATOM     19  C   UNL     1       3.185   3.422   3.793  0.00  0.00    +0.014 C 
ENDROOT
BRANCH   1  21
ATOM     20  C   UNL     1       6.169   2.785   4.533  0.00  0.00    +0.008 C 
ATOM     21  C   UNL     1       5.040   2.584   5.545  0.00  0.00    -0.010 C 
BRANCH  21  22
ATOM     22  C   UNL     1       5.634   2.191   6.900  0.00  0.00    +0.006 C 
BRANCH  22  23
ATOM     23  C   UNL     1       6.467   3.352   7.447  0.00  0.00    +0.028 C 
BRANCH  23  24
ATOM     24  C   UNL     1       7.060   2.960   8.802  0.00  0.00    +0.156 C 
BRANCH  24  25
ATOM     25  O   UNL     1       7.838   4.044   9.313  0.00  0.00    -0.395 OA
ATOM     26  H   UNL     1       8.347   3.947  10.284  0.00  0.00    +0.209 HD
ENDBRANCH  24  25
ENDBRANCH  23  24
ENDBRANCH  22  23
ENDBRANCH  21  22
ENDBRANCH   1  21
BRANCH  16  27
ATOM     27  O   UNL     1      -0.778   0.437  -2.201  0.00  0.00    -0.392 OA
ATOM     28  H   UNL     1      -1.698  -0.166  -2.174  0.00  0.00    +0.210 HD
ENDBRANCH  16  27
BRANCH  10  29
ATOM     29  O   UNL     1      -0.212  -0.198   2.725  0.00  0.00    -0.391 OA
ATOM     30  H   UNL     1      -1.129  -0.805   2.750  0.00  0.00    +0.210 HD
ENDBRANCH  10  29
BRANCH   6  31
ATOM     31  O   UNL     1       4.114   0.065   2.399  0.00  0.00    -0.391 OA
ATOM     32  H   UNL     1       4.554  -0.419   1.514  0.00  0.00    +0.210 HD
ENDBRANCH   6  31
TORSDOF 8
