REMARK  Name = ZINC40170705
REMARK  14 active torsions:
REMARK  status: ('A' for Active; 'I' for Inactive)
REMARK    1  A    between atoms: C_1  and  C_2
REMARK    2  A    between atoms: C_2  and  N_3
REMARK    3  A    between atoms: N_3  and  C_4
REMARK    4  A    between atoms: N_3  and  S_6
REMARK    5  A    between atoms: C_4  and  C_5
REMARK    6  A    between atoms: S_6  and  C_9
REMARK    7  A    between atoms: C_12  and  N_15
REMARK    8  A    between atoms: C_16  and  C_18
REMARK    9  A    between atoms: C_18  and  C_19
REMARK   10  A    between atoms: C_19  and  S_20
REMARK   11  A    between atoms: S_20  and  C_21
REMARK   12  A    between atoms: C_27  and  C_36
REMARK   13  A    between atoms: C_29  and  C_35
REMARK   14  A    between atoms: C_32  and  C_34
REMARK                            x       y       z     vdW  Elec       q    Type
REMARK                         _______ _______ _______ _____ _____    ______ ____
ROOT
ATOM      1  C   UNL     1       0.055   5.756  -7.435  0.00  0.00    +0.107 C 
ENDROOT
BRANCH   1   3
ATOM      2  N   UNL     1      -0.897   4.148  -5.814  0.00  0.00    -0.285 N 
ATOM      3  C   UNL     1       0.085   4.449  -6.687  0.00  0.00    +0.218 C 
ATOM      4  O   UNL     1       0.994   3.666  -6.870  0.00  0.00    -0.275 OA
ATOM      5  H   UNL     1      -1.663   4.737  -5.724  0.00  0.00    +0.155 HD
BRANCH   2   9
ATOM      6  C   UNL     1      -0.647   0.690  -3.504  0.00  0.00    +0.106 A 
ATOM      7  C   UNL     1       0.504   1.375  -3.848  0.00  0.00    +0.030 A 
ATOM      8  C   UNL     1       0.424   2.522  -4.614  0.00  0.00    +0.025 A 
ATOM      9  C   UNL     1      -0.813   2.987  -5.039  0.00  0.00    +0.033 A 
ATOM     10  C   UNL     1      -1.967   2.296  -4.692  0.00  0.00    +0.025 A 
ATOM     11  C   UNL     1      -1.881   1.148  -3.930  0.00  0.00    +0.030 A 
BRANCH   6  12
ATOM     12  S   UNL     1      -0.542  -0.772  -2.527  0.00  0.00    +0.061 S 
ATOM     13  O   UNL     1      -1.802  -0.926  -1.889  0.00  0.00    -0.153 OA
ATOM     14  O   UNL     1       0.675  -0.686  -1.798  0.00  0.00    -0.153 OA
BRANCH  12  15
ATOM     15  N   UNL     1      -0.380  -2.047  -3.571  0.00  0.00    -0.177 NA
BRANCH  15  17
ATOM     16  C   UNL     1       1.319  -1.827  -5.316  0.00  0.00    +0.022 C 
ATOM     17  C   UNL     1       0.954  -2.490  -3.986  0.00  0.00    +0.106 C 
ENDBRANCH  15  17
BRANCH  15  18
ATOM     18  C   UNL     1      -1.570  -2.734  -4.079  0.00  0.00    +0.106 C 
ATOM     19  C   UNL     1      -1.865  -3.957  -3.207  0.00  0.00    +0.022 C 
ENDBRANCH  15  18
ENDBRANCH  12  15
ENDBRANCH   6  12
ENDBRANCH   2   9
ENDBRANCH   1   3
BRANCH   1  20
ATOM     20  C   UNL     1       1.275   5.847  -8.353  0.00  0.00    +0.086 C 
BRANCH  20  21
ATOM     21  S   UNL     1       1.239   7.421  -9.254  0.00  0.00    -0.085 S 
BRANCH  21  22
ATOM     22  C   UNL     1       2.689   7.375 -10.253  0.00  0.00    +0.196 A 
ATOM     23  N   UNL     1       3.566   6.387 -10.254  0.00  0.00    -0.122 NA
ATOM     24  N   UNL     1       4.447   6.584 -11.163  0.00  0.00    -0.129 NA
ATOM     25  C   UNL     1       4.156   7.688 -11.822  0.00  0.00    +0.162 A 
ATOM     26  N   UNL     1       3.138   8.318 -11.126  0.00  0.00    -0.270 N 
ATOM     27  C   UNL     1       2.846   9.639 -11.409  0.00  0.00    +0.061 A 
ATOM     28  C   UNL     1       2.276  10.516 -10.500  0.00  0.00    -0.026 A 
ATOM     29  C   UNL     1       1.809  11.749 -10.918  0.00  0.00    +0.008 A 
ATOM     30  C   UNL     1       1.999  12.172 -12.223  0.00  0.00    -0.050 A 
ATOM     31  C   UNL     1       2.728  11.393 -13.094  0.00  0.00    +0.013 A 
ATOM     32  C   UNL     1       3.226  10.161 -12.668  0.00  0.00    +0.002 A 
ATOM     33  C   UNL     1       4.208   9.427 -13.471  0.00  0.00    -0.038 A 
ATOM     34  C   UNL     1       4.676   8.246 -13.011  0.00  0.00    +0.052 A 
ATOM     35  C   UNL     1       4.700   9.966 -14.790  0.00  0.00    +0.044 C 
ATOM     36  C   UNL     1       1.413  13.479 -12.689  0.00  0.00    +0.044 C 
ATOM     37  C   UNL     1       2.219  10.207  -9.026  0.00  0.00    +0.046 C 
ENDBRANCH  21  22
ENDBRANCH  20  21
ENDBRANCH   1  20
TORSDOF 9
