REMARK  Name = ZINC12531357
REMARK  15 active torsions:
REMARK  status: ('A' for Active; 'I' for Inactive)
REMARK    1  A    between atoms: C_1  and  C_2
REMARK    2  A    between atoms: C_2  and  C_3
REMARK    3  A    between atoms: C_3  and  C_5
REMARK    4  A    between atoms: C_3  and  C_6
REMARK    5  A    between atoms: C_11  and  N_12
REMARK    6  A    between atoms: C_14  and  C_19
REMARK    7  A    between atoms: C_19  and  O_21
REMARK    8  A    between atoms: O_21  and  C_22
REMARK    9  A    between atoms: C_22  and  C_23
REMARK   10  A    between atoms: N_25  and  C_26
REMARK   11  A    between atoms: C_27  and  C_34
REMARK   12  A    between atoms: C_28  and  C_31
REMARK   13  A    between atoms: C_34  and  O_36
REMARK   14  A    between atoms: O_36  and  C_37
REMARK   15  A    between atoms: C_37  and  C_38
REMARK                            x       y       z     vdW  Elec       q    Type
REMARK                         _______ _______ _______ _____ _____    ______ ____
ROOT
ATOM      1  O   UNL     1       0.908   1.106  -2.898  0.00  0.00    -0.455 OA
ENDROOT
BRANCH   1   2
ATOM      2  C   UNL     1       0.114   2.023  -2.323  0.00  0.00    +0.313 C 
ATOM      3  O   UNL     1       0.140   3.169  -2.705  0.00  0.00    -0.250 OA
BRANCH   2   6
ATOM      4  N   UNL     1      -1.608   2.586   0.844  0.00  0.00    -0.270 N 
ATOM      5  C   UNL     1      -1.511   2.859  -0.595  0.00  0.00    +0.128 C 
ATOM      6  C   UNL     1      -0.811   1.623  -1.203  0.00  0.00    +0.124 C 
ATOM      7  C   UNL     1      -0.013   1.086   0.008  0.00  0.00    +0.112 C 
ATOM      8  C   UNL     1      -0.771   1.598   1.213  0.00  0.00    +0.221 C 
ATOM      9  O   UNL     1      -0.643   1.179   2.344  0.00  0.00    -0.275 OA
BRANCH   4  15
ATOM     10  C   UNL     1      -2.021   4.413   2.368  0.00  0.00    -0.023 A 
ATOM     11  C   UNL     1      -2.864   5.083   3.233  0.00  0.00    +0.006 A 
ATOM     12  C   UNL     1      -4.145   4.612   3.454  0.00  0.00    +0.000 A 
ATOM     13  C   UNL     1      -4.586   3.470   2.810  0.00  0.00    +0.002 A 
ATOM     14  C   UNL     1      -3.750   2.800   1.940  0.00  0.00    +0.024 A 
ATOM     15  C   UNL     1      -2.460   3.267   1.720  0.00  0.00    +0.040 A 
BRANCH  10  16
ATOM     16  C   UNL     1      -0.624   4.927   2.128  0.00  0.00    +0.017 C 
ATOM     17  C   UNL     1       0.145   4.950   3.450  0.00  0.00    +0.012 C 
BRANCH  16  19
ATOM     18  C   UNL     1       0.716   6.817   1.193  0.00  0.00    +0.004 C 
ATOM     19  C   UNL     1      -0.693   6.343   1.553  0.00  0.00    +0.004 C 
ENDBRANCH  16  19
ENDBRANCH  10  16
ENDBRANCH   4  15
ENDBRANCH   2   6
ENDBRANCH   1   2
BRANCH   1  20
ATOM     20  C   UNL     1       1.773   1.563  -3.971  0.00  0.00    +0.328 C 
BRANCH  20  21
ATOM     21  C   UNL     1       2.584   0.404  -4.490  0.00  0.00    +0.255 C 
ATOM     22  O   UNL     1       2.448  -0.698  -4.003  0.00  0.00    -0.272 OA
ATOM     23  N   UNL     1       3.462   0.592  -5.495  0.00  0.00    -0.277 N 
ATOM     24  H   UNL     1       3.571   1.474  -5.885  0.00  0.00    +0.155 HD
BRANCH  23  25
ATOM     25  C   UNL     1       4.209  -0.474  -5.973  0.00  0.00    +0.086 A 
ATOM     26  C   UNL     1       5.155  -0.478  -6.992  0.00  0.00    +0.091 A 
ATOM     27  C   UNL     1       5.787  -1.743  -7.285  0.00  0.00    -0.021 A 
ATOM     28  C   UNL     1       5.408  -2.804  -6.549  0.00  0.00    +0.051 A 
ATOM     29  S   UNL     1       4.195  -2.121  -5.439  0.00  0.00    -0.081 S 
BRANCH  27  30
ATOM     30  C   UNL     1       6.827  -1.870  -8.368  0.00  0.00    +0.020 C 
ATOM     31  C   UNL     1       7.289  -3.279  -8.743  0.00  0.00    +0.009 C 
ATOM     32  C   UNL     1       8.220  -2.352  -7.958  0.00  0.00    +0.009 C 
ENDBRANCH  27  30
BRANCH  26  33
ATOM     33  C   UNL     1       5.494   0.739  -7.732  0.00  0.00    +0.342 C 
ATOM     34  O   UNL     1       6.390   1.461  -7.338  0.00  0.00    -0.245 OA
BRANCH  33  35
ATOM     35  O   UNL     1       4.811   1.061  -8.850  0.00  0.00    -0.461 OA
BRANCH  35  36
ATOM     36  C   UNL     1       5.201   2.282  -9.532  0.00  0.00    +0.229 C 
ATOM     37  C   UNL     1       4.322   2.479 -10.768  0.00  0.00    +0.048 C 
ENDBRANCH  35  36
ENDBRANCH  33  35
ENDBRANCH  26  33
ENDBRANCH  23  25
ENDBRANCH  20  21
ENDBRANCH   1  20
TORSDOF 12
