REMARK  Name = ZINC06630649
REMARK  6 active torsions:
REMARK  status: ('A' for Active; 'I' for Inactive)
REMARK    1  A    between atoms: C_1  and  C_2
REMARK    2  A    between atoms: C_2  and  O_3
REMARK    3  A    between atoms: O_3  and  C_4
REMARK    4  A    between atoms: C_4  and  C_6
REMARK    5  A    between atoms: C_19  and  C_22
REMARK    6  A    between atoms: C_26  and  N_28
REMARK                            x       y       z     vdW  Elec       q    Type
REMARK                         _______ _______ _______ _____ _____    ______ ____
ROOT
ATOM      1  C   UNL     1      -5.106   6.002  -0.179  0.00  0.00    +0.059 A 
ATOM      2  C   UNL     1      -4.771   6.226   1.160  0.00  0.00    +0.017 A 
ATOM      3  C   UNL     1      -3.461   6.386   1.512  0.00  0.00    +0.024 A 
ATOM      4  C   UNL     1      -2.461   6.327   0.544  0.00  0.00    +0.031 A 
ATOM      5  C   UNL     1      -2.777   6.105  -0.791  0.00  0.00    -0.019 A 
ATOM      6  C   UNL     1      -4.104   5.943  -1.148  0.00  0.00    +0.021 A 
ATOM      7  C   UNL     1      -1.733   6.036  -1.860  0.00  0.00    +0.049 C 
ATOM      8  C   UNL     1      -1.463   4.599  -2.317  0.00  0.00    -0.023 C 
ATOM      9  C   UNL     1      -0.190   4.434  -2.582  0.00  0.00    -0.030 C 
ATOM     10  C   UNL     1       0.573   5.724  -2.350  0.00  0.00    +0.033 C 
ATOM     11  C   UNL     1      -0.351   6.520  -1.381  0.00  0.00    +0.029 C 
ATOM     12  C   UNL     1      -0.079   6.003   0.035  0.00  0.00    +0.105 C 
ATOM     13  N   UNL     1      -1.144   6.475   0.926  0.00  0.00    -0.336 N 
ATOM     14  H   UNL     1      -0.931   6.904   1.769  0.00  0.00    +0.147 HD
ENDROOT
BRANCH  12  15
ATOM     15  C   UNL     1      -0.059   4.497   0.027  0.00  0.00    -0.025 A 
ATOM     16  C   UNL     1      -1.247   3.789   0.034  0.00  0.00    +0.007 A 
ATOM     17  C   UNL     1      -1.229   2.408   0.021  0.00  0.00    +0.022 A 
ATOM     18  C   UNL     1      -0.021   1.732   0.012  0.00  0.00    +0.071 A 
ATOM     19  C   UNL     1       1.167   2.440   0.004  0.00  0.00    +0.145 A 
ATOM     20  C   UNL     1       1.147   3.822   0.012  0.00  0.00    +0.039 A 
ATOM     21 CL   UNL     1       0.002  -0.004   0.002  0.00  0.00    -0.081 Cl
BRANCH  19  22
ATOM     22  N   UNL     1       2.459   1.718  -0.012  0.00  0.00    +0.058 N 
ATOM     23  O   UNL     1       3.505   2.341  -0.018  0.00  0.00    -0.126 OA
ATOM     24  O   UNL     1       2.476   0.500  -0.018  0.00  0.00    -0.126 OA
ENDBRANCH  19  22
ENDBRANCH  12  15
BRANCH   1  25
ATOM     25  C   UNL     1      -6.518   5.827  -0.566  0.00  0.00    +0.339 C 
ATOM     26  O   UNL     1      -6.809   5.632  -1.730  0.00  0.00    -0.245 OA
BRANCH  25  27
ATOM     27  O   UNL     1      -7.485   5.884   0.370  0.00  0.00    -0.461 OA
BRANCH  27  29
ATOM     28  C   UNL     1      -9.803   5.800   1.112  0.00  0.00    +0.048 C 
ATOM     29  C   UNL     1      -8.853   5.704  -0.083  0.00  0.00    +0.229 C 
ENDBRANCH  27  29
ENDBRANCH  25  27
ENDBRANCH   1  25
TORSDOF 5
