REMARK  Name = ZINC38894068
REMARK  10 active torsions:
REMARK  status: ('A' for Active; 'I' for Inactive)
REMARK    1  A    between atoms: C_1  and  C_2
REMARK    2  A    between atoms: C_2  and  C_3
REMARK    3  A    between atoms: C_2  and  C_4
REMARK    4  A    between atoms: C_2  and  N_5
REMARK    5  A    between atoms: C_6  and  C_8
REMARK    6  A    between atoms: C_13  and  N_14
REMARK    7  A    between atoms: C_15  and  C_17
REMARK    8  A    between atoms: N_22  and  C_24
REMARK    9  A    between atoms: C_24  and  C_25
REMARK   10  A    between atoms: C_27  and  C_30
REMARK                            x       y       z     vdW  Elec       q    Type
REMARK                         _______ _______ _______ _____ _____    ______ ____
ROOT
ATOM      1  C   UNL     1       6.449   2.079  -1.266  0.00  0.00    +0.059 C 
ATOM      2  C   UNL     1       5.587   3.304  -0.944  0.00  0.00    +0.009 C 
ATOM      3  C   UNL     1       6.349   4.209   0.029  0.00  0.00    -0.018 C 
ATOM      4  C   UNL     1       7.695   4.594  -0.588  0.00  0.00    -0.078 C 
ATOM      5  N   UNL     1       8.482   3.382  -0.849  0.00  0.00    +0.386 N 
ATOM      6  C   UNL     1       7.792   2.542  -1.835  0.00  0.00    -0.065 C 
ATOM      7  H   UNL     1       8.596   2.865   0.010  0.00  0.00    -0.081 HD
ENDROOT
BRANCH   1   9
ATOM      8  N   UNL     1       4.531   0.699  -1.998  0.00  0.00    -0.285 N 
ATOM      9  C   UNL     1       5.741   1.220  -2.282  0.00  0.00    +0.219 C 
ATOM     10  O   UNL     1       6.260   0.998  -3.355  0.00  0.00    -0.275 OA
ATOM     11  H   UNL     1       4.089   0.925  -1.165  0.00  0.00    +0.155 HD
BRANCH   8  17
ATOM     12  C   UNL     1       3.270  -1.322  -2.441  0.00  0.00    +0.058 A 
ATOM     13  C   UNL     1       2.652  -2.177  -3.357  0.00  0.00    +0.015 A 
ATOM     14  C   UNL     1       2.684  -1.883  -4.702  0.00  0.00    +0.001 A 
ATOM     15  C   UNL     1       3.327  -0.741  -5.154  0.00  0.00    +0.002 A 
ATOM     16  C   UNL     1       3.942   0.113  -4.261  0.00  0.00    +0.024 A 
ATOM     17  C   UNL     1       3.915  -0.165  -2.901  0.00  0.00    +0.046 A 
BRANCH  12  19
ATOM     18  N   UNL     1       2.519  -2.678  -0.550  0.00  0.00    -0.307 N 
ATOM     19  C   UNL     1       3.239  -1.631  -0.999  0.00  0.00    +0.246 C 
ATOM     20  O   UNL     1       3.864  -0.942  -0.216  0.00  0.00    -0.270 OA
ATOM     21  H   UNL     1       2.020  -3.228  -1.175  0.00  0.00    +0.150 HD
BRANCH  18  23
ATOM     22  C   UNL     1       1.920  -1.789   1.648  0.00  0.00    +0.031 C 
ATOM     23  C   UNL     1       2.488  -2.985   0.882  0.00  0.00    +0.026 C 
ATOM     24  C   UNL     1       3.908  -3.276   1.372  0.00  0.00    +0.031 C 
ATOM     25  C   UNL     1       1.604  -4.211   1.122  0.00  0.00    +0.031 C 
ENDBRANCH  18  23
ENDBRANCH  12  19
ENDBRANCH   8  17
ENDBRANCH   1   9
BRANCH   5  26
ATOM     26  C   UNL     1       9.803   3.760  -1.369  0.00  0.00    +0.022 C 
BRANCH  26  27
ATOM     27  C   UNL     1      10.565   4.510  -0.306  0.00  0.00    +0.211 A 
ATOM     28  N   UNL     1      11.354   3.978   0.583  0.00  0.00    -0.193 NA
ATOM     29  C   UNL     1      11.869   4.936   1.374  0.00  0.00    +0.202 A 
ATOM     30  N   UNL     1      11.401   6.097   0.984  0.00  0.00    -0.056 NA
ATOM     31  O   UNL     1      10.549   5.836  -0.121  0.00  0.00    -0.340 OA
BRANCH  29  32
ATOM     32  C   UNL     1      12.810   4.716   2.500  0.00  0.00    +0.023 A 
ATOM     33  C   UNL     1      13.238   3.427   2.811  0.00  0.00    +0.014 A 
ATOM     34  C   UNL     1      14.113   3.227   3.858  0.00  0.00    +0.039 A 
ATOM     35  C   UNL     1      14.566   4.306   4.601  0.00  0.00    +0.123 A 
ATOM     36  C   UNL     1      14.142   5.589   4.296  0.00  0.00    +0.039 A 
ATOM     37  C   UNL     1      13.272   5.799   3.246  0.00  0.00    +0.014 A 
ATOM     38  F   UNL     1      15.423   4.105   5.626  0.00  0.00    -0.205 F 
ENDBRANCH  29  32
ENDBRANCH  26  27
ENDBRANCH   5  26
TORSDOF 7
