REMARK  Name = ZINC15009227
REMARK  9 active torsions:
REMARK  status: ('A' for Active; 'I' for Inactive)
REMARK    1  A    between atoms: C_1  and  C_2
REMARK    2  A    between atoms: C_2  and  O_3
REMARK    3  A    between atoms: O_3  and  C_4
REMARK    4  A    between atoms: C_4  and  C_6
REMARK    5  A    between atoms: C_9  and  C_11
REMARK    6  A    between atoms: C_11  and  C_12
REMARK    7  A    between atoms: C_12  and  N_59
REMARK    8  A    between atoms: C_13  and  N_59
REMARK    9  A    between atoms: N_24  and  C_27
REMARK                            x       y       z     vdW  Elec       q    Type
REMARK                         _______ _______ _______ _____ _____    ______ ____
ROOT
ATOM      1  C   UNL     1       6.452  -1.337   0.316  0.00  0.00    -0.067 C 
ATOM      2  C   UNL     1       5.497  -2.197  -0.516  0.00  0.00    -0.011 C 
ATOM      3  C   UNL     1       4.059  -1.983  -0.043  0.00  0.00    +0.035 C 
ATOM      4  C   UNL     1       3.760  -0.486  -0.034  0.00  0.00    -0.023 A 
ATOM      5  C   UNL     1       4.764   0.417  -0.040  0.00  0.00    -0.006 A 
ATOM      6  S   UNL     1       3.960   1.997  -0.026  0.00  0.00    -0.073 S 
ATOM      7  C   UNL     1       2.276   1.438  -0.012  0.00  0.00    +0.116 A 
ATOM      8  C   UNL     1       2.396   0.039  -0.020  0.00  0.00    +0.076 A 
ATOM      9  C   UNL     1       1.161  -0.689  -0.012  0.00  0.00    +0.263 A 
ATOM     10  O   UNL     1       1.160  -1.908  -0.019  0.00  0.00    -0.267 OA
ATOM     11  N   UNL     1       0.002  -0.004   0.002  0.00  0.00    -0.296 N 
ATOM     12  C   UNL     1      -0.016   1.354   0.009  0.00  0.00    +0.203 A 
ATOM     13  N   UNL     1       1.092   2.045   0.003  0.00  0.00    -0.230 NA
ATOM     14  C   UNL     1       6.236   0.138  -0.054  0.00  0.00    +0.027 C 
ENDROOT
BRANCH  11  15
ATOM     15  C   UNL     1      -1.265  -0.739   0.010  0.00  0.00    +0.092 C 
ATOM     16  C   UNL     1      -2.128  -0.317  -1.198  0.00  0.00    +0.025 C 
ATOM     17  C   UNL     1      -3.576  -0.316  -0.648  0.00  0.00    +0.002 C 
ATOM     18  C   UNL     1      -3.397   0.240   0.787  0.00  0.00    +0.002 C 
ATOM     19  C   UNL     1      -2.072  -0.385   1.272  0.00  0.00    +0.025 C 
ENDBRANCH  11  15
BRANCH   1  20
ATOM     20  N   UNL     1       7.844  -1.724   0.015  0.00  0.00    +0.381 N 
ATOM     21  H   UNL     1       7.884  -2.734  -0.161  0.00  0.00    -0.086 HD
ATOM     22  H   UNL     1       8.163  -1.218  -0.820  0.00  0.00    -0.086 HD
BRANCH  20  23
ATOM     23  C   UNL     1       8.725  -1.393   1.151  0.00  0.00    -0.075 C 
BRANCH  23  24
ATOM     24  C   UNL     1      10.158  -1.804   0.810  0.00  0.00    +0.044 C 
BRANCH  24  28
ATOM     25  C   UNL     1      12.214  -1.737   3.926  0.00  0.00    +0.155 A 
ATOM     26  C   UNL     1      12.697  -0.464   3.757  0.00  0.00    +0.082 A 
ATOM     27  S   UNL     1      11.941  -0.003   2.264  0.00  0.00    -0.080 S 
ATOM     28  C   UNL     1      11.065  -1.469   1.966  0.00  0.00    +0.077 A 
ATOM     29  N   UNL     1      11.382  -2.210   2.996  0.00  0.00    -0.238 NA
BRANCH  25  30
ATOM     30  C   UNL     1      12.594  -2.549   5.093  0.00  0.00    +0.358 C 
ATOM     31  O   UNL     1      13.349  -2.093   5.929  0.00  0.00    -0.243 OA
BRANCH  30  32
ATOM     32  O   UNL     1      12.104  -3.796   5.235  0.00  0.00    -0.460 OA
BRANCH  32  34
ATOM     33  C   UNL     1      11.869  -5.923   6.398  0.00  0.00    +0.048 C 
ATOM     34  C   UNL     1      12.522  -4.539   6.410  0.00  0.00    +0.229 C 
ENDBRANCH  32  34
ENDBRANCH  30  32
ENDBRANCH  25  30
ENDBRANCH  24  28
ENDBRANCH  23  24
ENDBRANCH  20  23
ENDBRANCH   1  20
TORSDOF 8
