REMARK  Name = ZINC01279120
REMARK  9 active torsions:
REMARK  status: ('A' for Active; 'I' for Inactive)
REMARK    1  A    between atoms: C_1  and  C_2
REMARK    2  A    between atoms: C_5  and  C_8
REMARK    3  A    between atoms: C_11  and  C_25
REMARK    4  A    between atoms: C_14  and  C_16
REMARK    5  A    between atoms: C_19  and  O_23
REMARK    6  A    between atoms: C_21  and  O_22
REMARK    7  A    between atoms: O_23  and  C_24
REMARK    8  A    between atoms: C_28  and  O_31
REMARK    9  A    between atoms: O_31  and  C_32
REMARK                            x       y       z     vdW  Elec       q    Type
REMARK                         _______ _______ _______ _____ _____    ______ ____
ROOT
ATOM      1  C   UNL     1       0.061  -4.251  -0.021  0.00  0.00    +0.266 C 
ATOM      2  O   UNL     1      -0.036  -4.854  -1.073  0.00  0.00    -0.268 OA
ATOM      3  N   UNL     1       0.177  -4.930   1.137  0.00  0.00    -0.181 N 
ATOM      4  C   UNL     1       0.320  -6.389   1.264  0.00  0.00    +0.137 C 
ATOM      5  C   UNL     1       0.412  -6.613   2.786  0.00  0.00    +0.087 C 
ATOM      6  C   UNL     1       0.308  -5.220   3.366  0.00  0.00    +0.072 C 
ATOM      7  N   UNL     1       0.189  -4.364   2.410  0.00  0.00    -0.180 NA
ENDROOT
BRANCH   1  12
ATOM      8  C   UNL     1       0.017   1.503   0.007  0.00  0.00    +0.044 C 
ATOM      9  C   UNL     1       0.028  -0.004  -0.000  0.00  0.00    -0.050 A 
ATOM     10  C   UNL     1       0.044  -0.686  -1.204  0.00  0.00    +0.004 A 
ATOM     11  C   UNL     1       0.055  -2.066  -1.218  0.00  0.00    +0.013 A 
ATOM     12  C   UNL     1       0.050  -2.773  -0.014  0.00  0.00    +0.039 A 
ATOM     13  C   UNL     1       0.033  -2.078   1.196  0.00  0.00    +0.013 A 
ATOM     14  C   UNL     1       0.028  -0.698   1.196  0.00  0.00    +0.004 A 
ENDBRANCH   1  12
BRANCH   6  15
ATOM     15  C   UNL     1       0.342  -4.893   4.802  0.00  0.00    +0.039 A 
ATOM     16  C   UNL     1       0.487  -5.910   5.750  0.00  0.00    +0.017 A 
ATOM     17  C   UNL     1       0.519  -5.599   7.092  0.00  0.00    +0.046 A 
ATOM     18  C   UNL     1       0.408  -4.277   7.507  0.00  0.00    +0.124 A 
ATOM     19  C   UNL     1       0.264  -3.261   6.574  0.00  0.00    +0.091 A 
ATOM     20  C   UNL     1       0.236  -3.559   5.223  0.00  0.00    +0.129 A 
BRANCH  20  21
ATOM     21  O   UNL     1       0.102  -2.565   4.308  0.00  0.00    -0.506 OA
ATOM     22  H   UNL     1      -0.816  -2.359   4.082  0.00  0.00    +0.292 HD
ENDBRANCH  20  21
BRANCH  18  23
ATOM     23  O   UNL     1       0.440  -3.979   8.832  0.00  0.00    -0.495 OA
ATOM     24  C   UNL     1       0.590  -5.073   9.739  0.00  0.00    +0.277 C 
ENDBRANCH  18  23
ENDBRANCH   6  15
BRANCH   4  25
ATOM     25  C   UNL     1       1.577  -6.860   0.579  0.00  0.00    -0.024 A 
ATOM     26  C   UNL     1       2.732  -6.103   0.659  0.00  0.00    +0.009 A 
ATOM     27  C   UNL     1       3.885  -6.533   0.032  0.00  0.00    +0.046 A 
ATOM     28  C   UNL     1       3.885  -7.724  -0.679  0.00  0.00    +0.120 A 
ATOM     29  C   UNL     1       2.725  -8.481  -0.758  0.00  0.00    +0.046 A 
ATOM     30  C   UNL     1       1.576  -8.050  -0.124  0.00  0.00    +0.009 A 
BRANCH  28  31
ATOM     31  O   UNL     1       5.018  -8.148  -1.298  0.00  0.00    -0.495 OA
ATOM     32  C   UNL     1       4.944  -9.384  -2.011  0.00  0.00    +0.277 C 
ENDBRANCH  28  31
ENDBRANCH   4  25
TORSDOF 6
