REMARK  Name = ZINC35845578
REMARK  6 active torsions:
REMARK  status: ('A' for Active; 'I' for Inactive)
REMARK    1  A    between atoms: C_1  and  C_2
REMARK    2  A    between atoms: C_11  and  N_23
REMARK    3  A    between atoms: C_13  and  C_15
REMARK    4  A    between atoms: C_15  and  C_16
REMARK    5  A    between atoms: C_16  and  C_17
REMARK    6  A    between atoms: N_31  and  C_32
REMARK                            x       y       z     vdW  Elec       q    Type
REMARK                         _______ _______ _______ _____ _____    ______ ____
ROOT
ATOM      1  C   UNL     1       1.376   0.078  -1.182  0.00  0.00    +0.008 C 
ATOM      2  C   UNL     1       1.023  -1.384  -0.903  0.00  0.00    -0.009 C 
ATOM      3  C   UNL     1      -0.497  -1.531  -0.778  0.00  0.00    +0.008 C 
ATOM      4  C   UNL     1      -0.874  -3.012  -0.748  0.00  0.00    +0.037 C 
ATOM      5  C   UNL     1      -0.059  -3.708   0.339  0.00  0.00    -0.025 A 
ATOM      6  C   UNL     1       1.067  -3.137   0.825  0.00  0.00    -0.004 A 
ATOM      7  S   UNL     1       1.678  -4.273   2.045  0.00  0.00    -0.073 S 
ATOM      8  C   UNL     1       0.427  -5.508   1.906  0.00  0.00    +0.114 A 
ATOM      9  C   UNL     1      -0.435  -4.993   0.904  0.00  0.00    +0.051 A 
ATOM     10  C   UNL     1      -1.568  -5.785   0.561  0.00  0.00    +0.133 A 
ATOM     11  N   UNL     1      -1.696  -6.932   1.225  0.00  0.00    -0.217 NA
ATOM     12  C   UNL     1      -0.852  -7.347   2.148  0.00  0.00    +0.133 A 
ATOM     13  N   UNL     1       0.223  -6.659   2.514  0.00  0.00    -0.225 NA
ATOM     14  C   UNL     1       1.672  -1.829   0.415  0.00  0.00    +0.046 C 
ENDROOT
BRANCH  10  15
ATOM     15  N   UNL     1      -2.478  -5.387  -0.401  0.00  0.00    -0.312 N 
ATOM     16  C   UNL     1      -2.217  -5.633  -1.826  0.00  0.00    +0.125 C 
ATOM     17  C   UNL     1      -3.399  -6.413  -2.414  0.00  0.00    +0.128 C 
ATOM     18  N   UNL     1      -4.646  -5.737  -2.030  0.00  0.00    -0.282 N 
ATOM     19  C   UNL     1      -4.908  -5.491  -0.605  0.00  0.00    +0.128 C 
ATOM     20  C   UNL     1      -3.728  -4.716  -0.016  0.00  0.00    +0.125 C 
ATOM     21  C   UNL     1      -5.533  -5.350  -2.967  0.00  0.00    +0.307 C 
ATOM     22  O   UNL     1      -5.370  -5.671  -4.128  0.00  0.00    -0.252 OA
ATOM     23  N   UNL     1      -6.601  -4.606  -2.617  0.00  0.00    -0.269 N 
ATOM     24  H   UNL     1      -6.663  -4.237  -1.722  0.00  0.00    +0.156 HD
BRANCH  23  25
ATOM     25  C   UNL     1      -7.621  -4.366  -3.545  0.00  0.00    +0.035 A 
ATOM     26  C   UNL     1      -7.351  -4.423  -4.906  0.00  0.00    +0.023 A 
ATOM     27  C   UNL     1      -8.359  -4.186  -5.819  0.00  0.00    +0.002 A 
ATOM     28  C   UNL     1      -9.637  -3.892  -5.380  0.00  0.00    +0.000 A 
ATOM     29  C   UNL     1      -9.909  -3.834  -4.025  0.00  0.00    +0.002 A 
ATOM     30  C   UNL     1      -8.906  -4.076  -3.107  0.00  0.00    +0.023 A 
ENDBRANCH  23  25
ENDBRANCH  10  15
BRANCH  12  31
ATOM     31  C   UNL     1      -1.120  -8.669   2.821  0.00  0.00    +0.081 C 
BRANCH  31  32
ATOM     32  C   UNL     1      -0.434  -9.789   2.035  0.00  0.00    +0.043 C 
BRANCH  32  33
ATOM     33  C   UNL     1      -0.702 -11.111   2.708  0.00  0.00    -0.047 A 
ATOM     34  C   UNL     1       0.159 -11.576   3.685  0.00  0.00    +0.003 A 
ATOM     35  C   UNL     1      -0.086 -12.788   4.302  0.00  0.00    +0.000 A 
ATOM     36  C   UNL     1      -1.193 -13.535   3.943  0.00  0.00    +0.000 A 
ATOM     37  C   UNL     1      -2.054 -13.070   2.967  0.00  0.00    +0.000 A 
ATOM     38  C   UNL     1      -1.811 -11.855   2.353  0.00  0.00    +0.003 A 
ENDBRANCH  32  33
ENDBRANCH  31  32
ENDBRANCH  12  31
TORSDOF 5
