REMARK  Name = ZINC67315358
REMARK  11 active torsions:
REMARK  status: ('A' for Active; 'I' for Inactive)
REMARK    1  A    between atoms: C_1  and  C_2
REMARK    2  A    between atoms: C_2  and  C_3
REMARK    3  A    between atoms: C_3  and  C_4
REMARK    4  A    between atoms: C_4  and  C_5
REMARK    5  A    between atoms: C_5  and  C_7
REMARK    6  A    between atoms: C_5  and  N_22
REMARK    7  A    between atoms: N_9  and  C_10
REMARK    8  A    between atoms: C_13  and  C_20
REMARK    9  A    between atoms: C_14  and  S_16
REMARK   10  A    between atoms: S_16  and  N_19
REMARK   11  A    between atoms: C_20  and  C_21
REMARK                            x       y       z     vdW  Elec       q    Type
REMARK                         _______ _______ _______ _____ _____    ______ ____
ROOT
ATOM      1  C   UNL     1      -3.002  -4.089   0.086  0.00  0.00    +0.238 C 
ATOM      2  O   UNL     1      -2.978  -4.770  -0.917  0.00  0.00    -0.273 OA
ATOM      3  N   UNL     1      -2.916  -4.671   1.299  0.00  0.00    -0.284 N 
ATOM      4  H   UNL     1      -2.861  -4.123   2.097  0.00  0.00    +0.155 HD
ENDROOT
BRANCH   3   5
ATOM      5  C   UNL     1      -2.908  -6.066   1.406  0.00  0.00    +0.035 A 
ATOM      6  C   UNL     1      -2.180  -6.682   2.416  0.00  0.00    +0.024 A 
ATOM      7  C   UNL     1      -2.174  -8.059   2.519  0.00  0.00    +0.007 A 
ATOM      8  C   UNL     1      -2.891  -8.825   1.618  0.00  0.00    -0.021 A 
ATOM      9  C   UNL     1      -3.616  -8.215   0.611  0.00  0.00    +0.110 A 
ATOM     10  C   UNL     1      -3.631  -6.837   0.506  0.00  0.00    +0.052 A 
BRANCH   9  11
ATOM     11  S   UNL     1      -4.526  -9.195  -0.536  0.00  0.00    +0.056 S 
ATOM     12  O   UNL     1      -5.200  -8.289  -1.399  0.00  0.00    -0.153 OA
ATOM     13  O   UNL     1      -3.633 -10.188  -1.021  0.00  0.00    -0.153 OA
BRANCH  11  14
ATOM     14  N   UNL     1      -5.697  -9.991   0.323  0.00  0.00    -0.204 NA
ATOM     15  H   UNL     1      -5.817  -9.805   1.267  0.00  0.00    +0.144 HD
ATOM     16  H   UNL     1      -6.263 -10.643  -0.119  0.00  0.00    +0.144 HD
ENDBRANCH  11  14
ENDBRANCH   9  11
BRANCH   8  17
ATOM     17  C   UNL     1      -2.881 -10.327   1.733  0.00  0.00    +0.034 C 
ATOM     18  C   UNL     1      -1.726 -10.895   0.906  0.00  0.00    +0.009 C 
ENDBRANCH   8  17
ENDBRANCH   3   5
BRANCH   1  19
ATOM     19  C   UNL     1      -3.127  -2.591  -0.023  0.00  0.00    +0.161 C 
BRANCH  19  20
ATOM     20  N   UNL     1      -3.671  -2.241  -1.338  0.00  0.00    -0.288 N 
ATOM     21  C   UNL     1      -3.009  -2.596  -2.457  0.00  0.00    +0.298 C 
ATOM     22  O   UNL     1      -1.960  -3.205  -2.376  0.00  0.00    -0.253 OA
ATOM     23  N   UNL     1      -3.510  -2.274  -3.667  0.00  0.00    -0.313 N 
ATOM     24  H   UNL     1      -4.508  -1.755  -1.403  0.00  0.00    +0.151 HD
ATOM     25  H   UNL     1      -4.346  -1.787  -3.731  0.00  0.00    +0.146 HD
ATOM     26  H   UNL     1      -3.033  -2.529  -4.472  0.00  0.00    +0.146 HD
ENDBRANCH  19  20
BRANCH  19  27
ATOM     27  C   UNL     1      -1.748  -1.950   0.145  0.00  0.00    +0.032 C 
BRANCH  27  28
ATOM     28  C   UNL     1      -1.891  -0.427   0.158  0.00  0.00    +0.002 C 
BRANCH  28  30
ATOM     29  C   UNL     1      -0.655   1.737   0.339  0.00  0.00    +0.004 C 
ATOM     30  C   UNL     1      -0.512   0.213   0.326  0.00  0.00    -0.003 C 
ENDBRANCH  28  30
ENDBRANCH  27  28
ENDBRANCH  19  27
ENDBRANCH   1  19
TORSDOF 9
