REMARK  Name = ZINC02411752
REMARK  8 active torsions:
REMARK  status: ('A' for Active; 'I' for Inactive)
REMARK    1  A    between atoms: C_1  and  C_2
REMARK    2  A    between atoms: C_2  and  S_3
REMARK    3  A    between atoms: S_3  and  C_4
REMARK    4  A    between atoms: C_15  and  C_17
REMARK    5  A    between atoms: C_15  and  C_18
REMARK    6  A    between atoms: C_24  and  C_25
REMARK    7  A    between atoms: C_24  and  C_31
REMARK    8  A    between atoms: C_24  and  N_71
REMARK                            x       y       z     vdW  Elec       q    Type
REMARK                         _______ _______ _______ _____ _____    ______ ____
ROOT
ATOM      1  C   UNL     1       0.358   0.580  -1.073  0.00  0.00    +0.191 A 
ATOM      2  N   UNL     1       1.481  -0.129  -1.040  0.00  0.00    -0.206 NA
ATOM      3  C   UNL     1       2.298  -0.101  -0.001  0.00  0.00    +0.134 A 
ATOM      4  C   UNL     1       1.971   0.711   1.121  0.00  0.00    +0.051 A 
ATOM      5  C   UNL     1       2.715   0.897   2.366  0.00  0.00    -0.020 A 
ATOM      6  C   UNL     1       2.181   1.734   3.282  0.00  0.00    +0.021 A 
ATOM      7  S   UNL     1       0.677   2.317   2.553  0.00  0.00    -0.071 S 
ATOM      8  C   UNL     1       0.766   1.435   1.016  0.00  0.00    +0.115 A 
ATOM      9  N   UNL     1       0.003   1.354  -0.057  0.00  0.00    -0.215 NA
ATOM     10  C   UNL     1       2.765   2.072   4.618  0.00  0.00    +0.203 C 
ATOM     11  O   UNL     1       3.810   1.127   4.897  0.00  0.00    -0.368 OA
ATOM     12  C   UNL     1       4.724   0.951   3.811  0.00  0.00    +0.068 C 
ATOM     13  C   UNL     1       4.040   0.200   2.664  0.00  0.00    +0.071 C 
ATOM     14  C   UNL     1       5.191   2.320   3.314  0.00  0.00    +0.041 C 
ATOM     15  C   UNL     1       5.933   0.145   4.290  0.00  0.00    +0.041 C 
ATOM     16  N   UNL     1       3.458  -0.854  -0.005  0.00  0.00    -0.318 N 
ATOM     17  C   UNL     1       4.325  -0.479  -1.131  0.00  0.00    +0.088 C 
ATOM     18  C   UNL     1       5.630  -1.276  -1.054  0.00  0.00    -0.058 C 
ATOM     19  C   UNL     1       4.458  -3.088   0.043  0.00  0.00    -0.058 C 
ATOM     20  C   UNL     1       3.154  -2.291  -0.034  0.00  0.00    +0.088 C 
ATOM     21  N   UNL     1       5.311  -2.718  -1.106  0.00  0.00    +0.389 N 
ATOM     22  H   UNL     1       4.803  -2.916  -1.976  0.00  0.00    -0.080 HD
ENDROOT
BRANCH   1  23
ATOM     23  S   UNL     1      -0.679   0.489  -2.495  0.00  0.00    -0.086 S 
BRANCH  23  25
ATOM     24  C   UNL     1      -3.052   1.700  -3.101  0.00  0.00    +0.016 C 
ATOM     25  C   UNL     1      -2.003   1.616  -1.991  0.00  0.00    +0.074 C 
ENDBRANCH  23  25
ENDBRANCH   1  23
BRANCH  21  26
ATOM     26  C   UNL     1       6.558  -3.512  -1.087  0.00  0.00    -0.007 C 
BRANCH  26  27
ATOM     27  C   UNL     1       6.208  -4.976  -1.174  0.00  0.00    -0.057 A 
ATOM     28  C   UNL     1       5.238  -5.402  -2.062  0.00  0.00    +0.002 A 
ATOM     29  C   UNL     1       4.920  -6.745  -2.145  0.00  0.00    +0.000 A 
ATOM     30  C   UNL     1       5.565  -7.660  -1.334  0.00  0.00    +0.000 A 
ATOM     31  C   UNL     1       6.531  -7.232  -0.442  0.00  0.00    +0.000 A 
ATOM     32  C   UNL     1       6.852  -5.890  -0.362  0.00  0.00    +0.002 A 
ENDBRANCH  26  27
BRANCH  26  33
ATOM     33  C   UNL     1       7.403  -3.127  -2.273  0.00  0.00    -0.057 A 
ATOM     34  C   UNL     1       6.822  -2.990  -3.520  0.00  0.00    +0.002 A 
ATOM     35  C   UNL     1       7.596  -2.632  -4.608  0.00  0.00    +0.000 A 
ATOM     36  C   UNL     1       8.953  -2.419  -4.450  0.00  0.00    +0.000 A 
ATOM     37  C   UNL     1       9.535  -2.561  -3.204  0.00  0.00    +0.000 A 
ATOM     38  C   UNL     1       8.760  -2.914  -2.116  0.00  0.00    +0.002 A 
ENDBRANCH  26  33
ENDBRANCH  21  26
TORSDOF 5
