REMARK  Name = ZINC20082283
REMARK  13 active torsions:
REMARK  status: ('A' for Active; 'I' for Inactive)
REMARK    1  A    between atoms: C_1  and  C_2
REMARK    2  A    between atoms: C_2  and  C_3
REMARK    3  A    between atoms: C_3  and  C_4
REMARK    4  A    between atoms: C_3  and  C_5
REMARK    5  A    between atoms: C_3  and  N_6
REMARK    6  A    between atoms: C_7  and  C_11
REMARK    7  A    between atoms: C_11  and  C_13
REMARK    8  A    between atoms: C_11  and  N_26
REMARK    9  A    between atoms: C_17  and  C_25
REMARK   10  A    between atoms: N_26  and  C_27
REMARK   11  A    between atoms: N_26  and  C_34
REMARK   12  A    between atoms: C_27  and  C_28
REMARK   13  A    between atoms: C_34  and  C_35
REMARK                            x       y       z     vdW  Elec       q    Type
REMARK                         _______ _______ _______ _____ _____    ______ ____
ROOT
ATOM      1  C   UNL     1       3.023   1.473  -0.283  0.00  0.00    +0.163 C 
ENDROOT
BRANCH   1   2
ATOM      2  C   UNL     1       1.562   1.840  -0.280  0.00  0.00    +0.042 A 
ATOM      3  C   UNL     1       0.657   1.004   0.287  0.00  0.00    +0.021 A 
ATOM      4  C   UNL     1      -0.756   1.387   0.269  0.00  0.00    -0.001 A 
ATOM      5  C   UNL     1      -1.736   0.564   0.835  0.00  0.00    +0.013 A 
ATOM      6  C   UNL     1      -3.046   0.949   0.801  0.00  0.00    -0.050 A 
ATOM      7  C   UNL     1      -3.414   2.151   0.212  0.00  0.00    +0.005 A 
ATOM      8  C   UNL     1      -2.464   2.982  -0.343  0.00  0.00    +0.026 A 
ATOM      9  C   UNL     1      -1.125   2.608  -0.325  0.00  0.00    +0.049 A 
ATOM     10  N   UNL     1      -0.156   3.413  -0.885  0.00  0.00    -0.322 N 
ATOM     11  H   UNL     1      -0.437   4.367  -1.355  0.00  0.00    +0.169 HD
ATOM     12  C   UNL     1       1.139   3.051  -0.868  0.00  0.00    +0.254 A 
ATOM     13  O   UNL     1       1.969   3.788  -1.373  0.00  0.00    -0.268 OA
ATOM     14  C   UNL     1      -4.101   0.062   1.410  0.00  0.00    +0.044 C 
ENDBRANCH   1   2
BRANCH   1  16
ATOM     15  N   UNL     1       4.432   2.013   1.774  0.00  0.00    -0.222 N 
ATOM     16  C   UNL     1       3.771   2.380   0.660  0.00  0.00    +0.174 A 
ATOM     17  N   UNL     1       3.908   3.679   0.553  0.00  0.00    -0.111 NA
ATOM     18  N   UNL     1       4.609   4.089   1.553  0.00  0.00    -0.023 NA
ATOM     19  N   UNL     1       4.930   3.084   2.291  0.00  0.00    -0.043 NA
BRANCH  15  20
ATOM     20  C   UNL     1       4.561   0.651   2.299  0.00  0.00    +0.062 C 
ATOM     21  C   UNL     1       3.171   0.083   2.593  0.00  0.00    +0.036 C 
ATOM     22  C   UNL     1       5.264  -0.230   1.264  0.00  0.00    +0.036 C 
BRANCH  20  24
ATOM     23  C   UNL     1       5.519  -0.743   4.138  0.00  0.00    +0.006 C 
ATOM     24  C   UNL     1       5.384   0.679   3.589  0.00  0.00    +0.026 C 
ENDBRANCH  20  24
ENDBRANCH  15  20
ENDBRANCH   1  16
BRANCH   1  25
ATOM     25  N   UNL     1       3.564   1.627  -1.641  0.00  0.00    -0.280 NA
BRANCH  25  26
ATOM     26  C   UNL     1       5.032   1.671  -1.621  0.00  0.00    +0.121 C 
BRANCH  26  27
ATOM     27  C   UNL     1       5.541   2.072  -2.982  0.00  0.00    -0.033 A 
ATOM     28  C   UNL     1       5.818   1.103  -3.929  0.00  0.00    +0.005 A 
ATOM     29  C   UNL     1       6.280   1.472  -5.179  0.00  0.00    +0.000 A 
ATOM     30  C   UNL     1       6.475   2.807  -5.478  0.00  0.00    +0.000 A 
ATOM     31  C   UNL     1       6.203   3.775  -4.529  0.00  0.00    +0.000 A 
ATOM     32  C   UNL     1       5.736   3.407  -3.281  0.00  0.00    +0.005 A 
ENDBRANCH  26  27
ENDBRANCH  25  26
BRANCH  25  33
ATOM     33  C   UNL     1       3.081   0.557  -2.524  0.00  0.00    +0.128 C 
BRANCH  33  34
ATOM     34  C   UNL     1       1.669   0.861  -2.956  0.00  0.00    +0.004 A 
ATOM     35  C   UNL     1       1.233   1.751  -3.880  0.00  0.00    +0.012 A 
ATOM     36  C   UNL     1      -0.125   1.861  -4.116  0.00  0.00    +0.008 A 
ATOM     37  C   UNL     1      -0.980   1.076  -3.415  0.00  0.00    +0.045 A 
ATOM     38  S   UNL     1       0.139   0.137  -2.388  0.00  0.00    -0.100 S 
ENDBRANCH  33  34
ENDBRANCH  25  33
ENDBRANCH   1  25
TORSDOF 9
