REMARK  Name = ZINC47137342
REMARK  10 active torsions:
REMARK  status: ('A' for Active; 'I' for Inactive)
REMARK    1  A    between atoms: C_1  and  C_2
REMARK    2  A    between atoms: C_2  and  C_3
REMARK    3  A    between atoms: C_2  and  C_4
REMARK    4  A    between atoms: C_2  and  C_5
REMARK    5  A    between atoms: C_8  and  C_11
REMARK    6  A    between atoms: N_15  and  C_28
REMARK    7  A    between atoms: N_17  and  N_18
REMARK    8  A    between atoms: C_19  and  C_20
REMARK    9  A    between atoms: C_23  and  O_26
REMARK   10  A    between atoms: C_28  and  C_29
REMARK                            x       y       z     vdW  Elec       q    Type
REMARK                         _______ _______ _______ _____ _____    ______ ____
ROOT
ATOM      1  C   UNL     1       2.595  -1.621  -4.825  0.00  0.00    +0.028 C 
ATOM      2  C   UNL     1       3.871  -1.239  -5.082  0.00  0.00    +0.078 C 
ATOM      3  C   UNL     1       4.709  -1.507  -6.268  0.00  0.00    +0.259 C 
ATOM      4  O   UNL     1       4.290  -2.154  -7.210  0.00  0.00    -0.269 OA
ATOM      5  N   UNL     1       5.934  -1.011  -6.261  0.00  0.00    -0.237 N 
ATOM      6  C   UNL     1       6.390  -0.280  -5.185  0.00  0.00    +0.190 C 
ATOM      7  N   UNL     1       7.571   0.280  -5.016  0.00  0.00    -0.126 NA
ATOM      8  S   UNL     1       4.988  -0.270  -4.079  0.00  0.00    -0.047 S 
ENDROOT
BRANCH   1  12
ATOM      9  C   UNL     1       0.911  -0.948  -0.992  0.00  0.00    -0.042 A 
ATOM     10  C   UNL     1       0.110  -1.401  -2.026  0.00  0.00    +0.005 A 
ATOM     11  C   UNL     1       0.649  -1.622  -3.275  0.00  0.00    +0.008 A 
ATOM     12  C   UNL     1       2.011  -1.387  -3.496  0.00  0.00    -0.024 A 
ATOM     13  C   UNL     1       2.814  -0.929  -2.446  0.00  0.00    +0.008 A 
ATOM     14  C   UNL     1       2.257  -0.708  -1.204  0.00  0.00    +0.005 A 
BRANCH   9  16
ATOM     15  C   UNL     1       0.494   0.760   0.757  0.00  0.00    +0.015 C 
ATOM     16  C   UNL     1       0.313  -0.710   0.370  0.00  0.00    -0.013 C 
ATOM     17  C   UNL     1       1.016  -1.597   1.399  0.00  0.00    +0.015 C 
ATOM     18  C   UNL     1      -1.179  -1.048   0.339  0.00  0.00    +0.015 C 
ENDBRANCH   9  16
ENDBRANCH   1  12
BRANCH   7  19
ATOM     19  N   UNL     1       8.472   0.175  -5.933  0.00  0.00    -0.155 NA
ATOM     20  C   UNL     1       9.643   0.730  -5.766  0.00  0.00    +0.143 C 
BRANCH  20  21
ATOM     21  C   UNL     1       9.960   1.409  -4.501  0.00  0.00    -0.005 A 
ATOM     22  C   UNL     1      11.228   1.966  -4.302  0.00  0.00    +0.013 A 
ATOM     23  C   UNL     1      11.520   2.602  -3.115  0.00  0.00    +0.046 A 
ATOM     24  C   UNL     1      10.559   2.690  -2.117  0.00  0.00    +0.117 A 
ATOM     25  C   UNL     1       9.298   2.138  -2.309  0.00  0.00    +0.046 A 
ATOM     26  C   UNL     1       8.993   1.506  -3.494  0.00  0.00    +0.013 A 
BRANCH  24  27
ATOM     27  O   UNL     1      10.852   3.317  -0.948  0.00  0.00    -0.507 OA
ATOM     28  H   UNL     1      10.654   4.264  -0.949  0.00  0.00    +0.292 HD
ENDBRANCH  24  27
ENDBRANCH  20  21
ENDBRANCH   7  19
BRANCH   5  29
ATOM     29  C   UNL     1       6.817  -1.240  -7.407  0.00  0.00    +0.190 C 
BRANCH  29  30
ATOM     30  C   UNL     1       6.641  -0.127  -8.407  0.00  0.00    +0.123 A 
ATOM     31  C   UNL     1       7.342   1.020  -8.439  0.00  0.00    +0.046 A 
ATOM     32  C   UNL     1       6.853   1.770  -9.533  0.00  0.00    +0.041 A 
ATOM     33  C   UNL     1       5.881   1.035 -10.105  0.00  0.00    +0.195 A 
ATOM     34  O   UNL     1       5.761  -0.115  -9.422  0.00  0.00    -0.466 OA
ENDBRANCH  29  30
ENDBRANCH   5  29
TORSDOF 7
