REMARK  Name = ZINC66234786
REMARK  8 active torsions:
REMARK  status: ('A' for Active; 'I' for Inactive)
REMARK    1  A    between atoms: C_3  and  C_8
REMARK    2  A    between atoms: C_5  and  O_7
REMARK    3  A    between atoms: C_8  and  C_9
REMARK    4  A    between atoms: C_9  and  N_10
REMARK    5  A    between atoms: N_13  and  C_14
REMARK    6  A    between atoms: C_14  and  C_15
REMARK    7  A    between atoms: C_15  and  C_17
REMARK    8  A    between atoms: C_15  and  O_24
REMARK                            x       y       z     vdW  Elec       q    Type
REMARK                         _______ _______ _______ _____ _____    ______ ____
ROOT
ATOM      1  N   UNL     1       5.378   3.199   1.411  0.00  0.00    -0.299 N 
ATOM      2  C   UNL     1       5.967   3.539   2.574  0.00  0.00    +0.300 C 
ATOM      3  O   UNL     1       5.456   3.221   3.630  0.00  0.00    -0.253 OA
ATOM      4  N   UNL     1       7.123   4.233   2.567  0.00  0.00    -0.297 N 
ATOM      5  H   UNL     1       5.786   3.453   0.568  0.00  0.00    +0.150 HD
ATOM      6  H   UNL     1       7.530   4.487   1.724  0.00  0.00    +0.150 HD
ENDROOT
BRANCH   1   7
ATOM      7  C   UNL     1       4.122   2.445   1.419  0.00  0.00    +0.110 C 
BRANCH   7   8
ATOM      8  C   UNL     1       3.671   2.190  -0.021  0.00  0.00    +0.054 C 
BRANCH   8  11
ATOM      9  C   UNL     1      -0.017   1.377   0.010  0.00  0.00    +0.004 A 
ATOM     10  C   UNL     1       1.171   2.086   0.002  0.00  0.00    +0.004 A 
ATOM     11  C   UNL     1       2.379   1.415  -0.013  0.00  0.00    -0.042 A 
ATOM     12  C   UNL     1       2.403   0.033  -0.021  0.00  0.00    +0.049 A 
ATOM     13  C   UNL     1       1.214  -0.680  -0.013  0.00  0.00    +0.117 A 
ATOM     14  C   UNL     1       0.002  -0.004   0.002  0.00  0.00    +0.045 A 
BRANCH  13  15
ATOM     15  O   UNL     1       1.235  -2.039  -0.021  0.00  0.00    -0.507 OA
ATOM     16  H   UNL     1       1.249  -2.437   0.860  0.00  0.00    +0.292 HD
ENDBRANCH  13  15
ENDBRANCH   8  11
ENDBRANCH   7   8
ENDBRANCH   1   7
BRANCH   4  17
ATOM     17  C   UNL     1       7.763   4.603   3.831  0.00  0.00    +0.141 C 
BRANCH  17  18
ATOM     18  C   UNL     1       9.050   5.379   3.544  0.00  0.00    +0.162 C 
BRANCH  18  19
ATOM     19  C   UNL     1       9.708   5.760   4.845  0.00  0.00    -0.017 A 
ATOM     20  C   UNL     1      10.552   4.867   5.479  0.00  0.00    +0.009 A 
ATOM     21  C   UNL     1      11.156   5.215   6.672  0.00  0.00    +0.039 A 
ATOM     22  C   UNL     1      10.917   6.459   7.231  0.00  0.00    +0.123 A 
ATOM     23  C   UNL     1      10.073   7.353   6.595  0.00  0.00    +0.039 A 
ATOM     24  C   UNL     1       9.473   7.004   5.399  0.00  0.00    +0.009 A 
ATOM     25  F   UNL     1      11.508   6.801   8.398  0.00  0.00    -0.205 F 
ENDBRANCH  18  19
BRANCH  18  26
ATOM     26  O   UNL     1       9.939   4.560   2.781  0.00  0.00    -0.386 OA
ATOM     27  H   UNL     1      10.194   3.739   3.224  0.00  0.00    +0.210 HD
ENDBRANCH  18  26
ENDBRANCH  17  18
ENDBRANCH   4  17
TORSDOF 8
