REMARK  Name = ZINC38653130
REMARK  8 active torsions:
REMARK  status: ('A' for Active; 'I' for Inactive)
REMARK    1  A    between atoms: C_1  and  C_2
REMARK    2  A    between atoms: C_4  and  C_31
REMARK    3  A    between atoms: C_8  and  C_12
REMARK    4  A    between atoms: C_12  and  C_14
REMARK    5  A    between atoms: C_12  and  S_15
REMARK    6  A    between atoms: S_15  and  C_16
REMARK    7  A    between atoms: C_20  and  C_23
REMARK    8  A    between atoms: N_21  and  N_22
REMARK                            x       y       z     vdW  Elec       q    Type
REMARK                         _______ _______ _______ _____ _____    ______ ____
ROOT
ATOM      1  C   UNL     1      -4.109  -5.246   6.334  0.00  0.00    +0.252 C 
ATOM      2  N   UNL     1      -3.772  -4.219   7.334  0.00  0.00    -0.236 N 
ATOM      3  N   UNL     1      -2.613  -4.665   7.980  0.00  0.00    -0.167 NA
ATOM      4  C   UNL     1      -2.216  -5.801   7.510  0.00  0.00    +0.162 C 
ATOM      5  N   UNL     1      -3.056  -6.262   6.494  0.00  0.00    -0.220 N 
ATOM      6  H   UNL     1      -4.256  -3.397   7.510  0.00  0.00    +0.171 HD
ENDROOT
BRANCH   4   7
ATOM      7  C   UNL     1      -1.020  -6.526   7.990  0.00  0.00    +0.018 A 
ATOM      8  C   UNL     1      -0.627  -6.422   9.325  0.00  0.00    +0.013 A 
ATOM      9  C   UNL     1       0.489  -7.101   9.768  0.00  0.00    +0.021 A 
ATOM     10  C   UNL     1       1.220  -7.884   8.889  0.00  0.00    +0.041 A 
ATOM     11  C   UNL     1       0.835  -7.991   7.564  0.00  0.00    +0.021 A 
ATOM     12  C   UNL     1      -0.283  -7.321   7.111  0.00  0.00    +0.013 A 
ATOM     13 CL   UNL     1       2.624  -8.735   9.453  0.00  0.00    -0.084 Cl
ENDBRANCH   4   7
BRANCH   5  14
ATOM     14  N   UNL     1      -2.927  -7.424   5.787  0.00  0.00    -0.250 NA
ATOM     15  H   UNL     1      -2.171  -7.985   6.148  0.00  0.00    +0.141 HD
ATOM     16  H   UNL     1      -3.793  -7.943   5.784  0.00  0.00    +0.141 HD
ENDBRANCH   5  14
BRANCH   1  17
ATOM     17  S   UNL     1      -4.067  -4.543   4.662  0.00  0.00    -0.106 S 
BRANCH  17  18
ATOM     18  C   UNL     1      -2.390  -3.869   4.511  0.00  0.00    +0.112 C 
ATOM     19  C   UNL     1      -1.374  -5.012   4.565  0.00  0.00    +0.027 C 
BRANCH  18  26
ATOM     20  C   UNL     1      -0.292   0.867  -0.668  0.00  0.00    +0.024 C 
ATOM     21  C   UNL     1      -0.343  -0.659  -0.570  0.00  0.00    +0.076 C 
ATOM     22  C   UNL     1      -1.757  -1.140  -0.336  0.00  0.00    -0.045 C 
ATOM     23  C   UNL     1      -2.009  -1.807   0.800  0.00  0.00    +0.071 C 
ATOM     24  C   UNL     1      -0.884  -2.019   1.736  0.00  0.00    +0.111 C 
ATOM     25  N   UNL     1      -1.068  -2.663   2.864  0.00  0.00    -0.226 NA
ATOM     26  C   UNL     1      -2.257  -3.140   3.199  0.00  0.00    +0.136 C 
ATOM     27  N   UNL     1      -3.325  -3.011   2.449  0.00  0.00    -0.160 NA
ATOM     28  C   UNL     1      -3.310  -2.383   1.269  0.00  0.00    +0.271 C 
ATOM     29  O   UNL     1      -4.322  -2.282   0.597  0.00  0.00    -0.268 OA
ATOM     30  S   UNL     1       0.509  -1.251   0.948  0.00  0.00    -0.098 S 
ATOM     31  C   UNL     1      -2.845  -0.879  -1.345  0.00  0.00    +0.041 C 
ENDBRANCH  18  26
ENDBRANCH  17  18
ENDBRANCH   1  17
TORSDOF 5
