REMARK  Name = ZINC34835912
REMARK  12 active torsions:
REMARK  status: ('A' for Active; 'I' for Inactive)
REMARK    1  A    between atoms: C_1  and  C_2
REMARK    2  A    between atoms: C_2  and  C_3
REMARK    3  A    between atoms: C_3  and  N_4
REMARK    4  A    between atoms: N_4  and  C_5
REMARK    5  A    between atoms: N_4  and  S_27
REMARK    6  A    between atoms: C_5  and  C_6
REMARK    7  A    between atoms: C_7  and  C_26
REMARK    8  A    between atoms: N_9  and  C_19
REMARK    9  A    between atoms: C_10  and  N_11
REMARK   10  A    between atoms: N_14  and  C_17
REMARK   11  A    between atoms: C_17  and  C_18
REMARK   12  A    between atoms: S_27  and  C_30
REMARK                            x       y       z     vdW  Elec       q    Type
REMARK                         _______ _______ _______ _____ _____    ______ ____
ROOT
ATOM      1  C   UNL     1       3.397  -2.630   1.362  0.00  0.00    +0.031 A 
ATOM      2  C   UNL     1       4.048  -1.409   1.563  0.00  0.00    +0.067 A 
ATOM      3  N   UNL     1       4.646  -1.444   2.726  0.00  0.00    -0.170 NA
ATOM      4  N   UNL     1       4.399  -2.691   3.314  0.00  0.00    -0.218 N 
ATOM      5  C   UNL     1       3.621  -3.408   2.457  0.00  0.00    +0.129 A 
ATOM      6  C   UNL     1       4.059  -0.248   0.601  0.00  0.00    +0.068 C 
ENDROOT
BRANCH   5   7
ATOM      7  N   UNL     1       3.145  -4.699   2.661  0.00  0.00    -0.318 N 
ATOM      8  C   UNL     1       3.828  -5.860   2.069  0.00  0.00    +0.088 C 
ATOM      9  C   UNL     1       4.065  -6.898   3.171  0.00  0.00    -0.060 C 
ATOM     10  N   UNL     1       2.789  -7.214   3.827  0.00  0.00    +0.382 N 
ATOM     11  C   UNL     1       2.269  -6.023   4.511  0.00  0.00    -0.060 C 
ATOM     12  C   UNL     1       1.947  -4.943   3.479  0.00  0.00    +0.088 C 
ATOM     13  H   UNL     1       2.123  -7.520   3.133  0.00  0.00    -0.082 HD
BRANCH  10  14
ATOM     14  C   UNL     1       2.998  -8.288   4.807  0.00  0.00    -0.082 C 
ATOM     15  C   UNL     1       1.651  -8.705   5.401  0.00  0.00    -0.017 C 
ENDBRANCH  10  14
ENDBRANCH   5   7
BRANCH   4  16
ATOM     16  C   UNL     1       4.865  -3.122   4.563  0.00  0.00    +0.070 A 
ATOM     17  C   UNL     1       3.966  -3.554   5.530  0.00  0.00    +0.028 A 
ATOM     18  C   UNL     1       4.426  -3.979   6.760  0.00  0.00    +0.005 A 
ATOM     19  C   UNL     1       5.782  -3.976   7.032  0.00  0.00    +0.038 A 
ATOM     20  C   UNL     1       6.682  -3.546   6.071  0.00  0.00    +0.125 A 
ATOM     21  C   UNL     1       6.226  -3.124   4.835  0.00  0.00    +0.066 A 
ATOM     22  F   UNL     1       8.006  -3.543   6.339  0.00  0.00    -0.205 F 
ENDBRANCH   4  16
BRANCH   1  23
ATOM     23  C   UNL     1       2.587  -3.014   0.151  0.00  0.00    +0.149 C 
BRANCH  23  24
ATOM     24  N   UNL     1       1.222  -2.502   0.294  0.00  0.00    -0.172 NA
BRANCH  24  25
ATOM     25  S   UNL     1      -0.049  -3.555   0.421  0.00  0.00    +0.061 S 
ATOM     26  O   UNL     1       0.503  -4.818   0.768  0.00  0.00    -0.153 OA
ATOM     27  O   UNL     1      -1.033  -2.910   1.218  0.00  0.00    -0.153 OA
BRANCH  25  28
ATOM     28  C   UNL     1      -0.742  -3.733  -1.189  0.00  0.00    +0.105 A 
ATOM     29  C   UNL     1      -1.748  -2.882  -1.606  0.00  0.00    +0.028 A 
ATOM     30  C   UNL     1      -2.292  -3.022  -2.869  0.00  0.00    +0.002 A 
ATOM     31  C   UNL     1      -1.829  -4.012  -3.716  0.00  0.00    +0.000 A 
ATOM     32  C   UNL     1      -0.822  -4.862  -3.299  0.00  0.00    +0.002 A 
ATOM     33  C   UNL     1      -0.275  -4.720  -2.037  0.00  0.00    +0.028 A 
ENDBRANCH  25  28
ENDBRANCH  24  25
BRANCH  24  34
ATOM     34  C   UNL     1       0.981  -1.057   0.324  0.00  0.00    +0.109 C 
BRANCH  34  36
ATOM     35  C   UNL     1       0.622   0.981  -1.075  0.00  0.00    +0.005 C 
ATOM     36  C   UNL     1       0.873  -0.528  -1.107  0.00  0.00    +0.014 C 
ENDBRANCH  34  36
ENDBRANCH  24  34
ENDBRANCH  23  24
ENDBRANCH   1  23
TORSDOF 9
