REMARK  Name = ZINC36643446
REMARK  16 active torsions:
REMARK  status: ('A' for Active; 'I' for Inactive)
REMARK    1  A    between atoms: C_1  and  C_2
REMARK    2  A    between atoms: C_2  and  N_3
REMARK    3  A    between atoms: N_3  and  C_4
REMARK    4  A    between atoms: N_3  and  S_6
REMARK    5  A    between atoms: C_4  and  C_5
REMARK    6  A    between atoms: S_6  and  C_9
REMARK    7  A    between atoms: C_12  and  C_15
REMARK    8  A    between atoms: N_17  and  C_18
REMARK    9  A    between atoms: C_18  and  C_19
REMARK   10  A    between atoms: C_19  and  C_20
REMARK   11  A    between atoms: C_20  and  N_21
REMARK   12  A    between atoms: N_21  and  C_22
REMARK   13  A    between atoms: N_21  and  C_23
REMARK   14  A    between atoms: C_27  and  O_33
REMARK   15  A    between atoms: O_33  and  C_34
REMARK   16  A    between atoms: C_34  and  C_35
REMARK                            x       y       z     vdW  Elec       q    Type
REMARK                         _______ _______ _______ _____ _____    ______ ____
ROOT
ATOM      1  C   UNL     1       5.095   3.832   2.359  0.00  0.00    +0.252 C 
ATOM      2  O   UNL     1       5.421   4.394   1.332  0.00  0.00    -0.270 OA
ATOM      3  N   UNL     1       5.550   4.278   3.546  0.00  0.00    -0.246 N 
ATOM      4  C   UNL     1       6.289   5.448   3.609  0.00  0.00    +0.168 A 
ATOM      5  N   UNL     1       6.640   6.253   2.634  0.00  0.00    -0.221 NA
ATOM      6  C   UNL     1       7.369   7.372   2.843  0.00  0.00    +0.122 A 
ATOM      7  C   UNL     1       7.812   8.320   1.886  0.00  0.00    +0.147 A 
ATOM      8  C   UNL     1       8.553   9.411   2.272  0.00  0.00    +0.048 A 
ATOM      9  C   UNL     1       8.892   9.623   3.600  0.00  0.00    +0.005 A 
ATOM     10  C   UNL     1       8.475   8.718   4.558  0.00  0.00    +0.017 A 
ATOM     11  C   UNL     1       7.734   7.623   4.184  0.00  0.00    +0.044 A 
ATOM     12  S   UNL     1       7.001   6.249   5.039  0.00  0.00    -0.052 S 
ENDROOT
BRANCH   1  16
ATOM     13  C   UNL     1       2.520   0.457   2.204  0.00  0.00    +0.106 A 
ATOM     14  C   UNL     1       2.224   1.585   1.459  0.00  0.00    +0.029 A 
ATOM     15  C   UNL     1       3.055   2.684   1.505  0.00  0.00    +0.015 A 
ATOM     16  C   UNL     1       4.199   2.658   2.305  0.00  0.00    +0.037 A 
ATOM     17  C   UNL     1       4.492   1.517   3.055  0.00  0.00    +0.015 A 
ATOM     18  C   UNL     1       3.649   0.426   3.004  0.00  0.00    +0.029 A 
BRANCH  13  19
ATOM     19  S   UNL     1       1.452  -0.943   2.139  0.00  0.00    +0.061 S 
ATOM     20  O   UNL     1       2.237  -2.069   2.508  0.00  0.00    -0.153 OA
ATOM     21  O   UNL     1       0.761  -0.869   0.900  0.00  0.00    -0.153 OA
BRANCH  19  22
ATOM     22  N   UNL     1       0.316  -0.748   3.328  0.00  0.00    -0.177 NA
BRANCH  22  24
ATOM     23  C   UNL     1      -0.806   1.423   3.426  0.00  0.00    +0.022 C 
ATOM     24  C   UNL     1      -0.938  -0.050   3.035  0.00  0.00    +0.106 C 
ENDBRANCH  22  24
BRANCH  22  25
ATOM     25  C   UNL     1       0.566  -1.272   4.673  0.00  0.00    +0.106 C 
ATOM     26  C   UNL     1      -0.066  -2.660   4.804  0.00  0.00    +0.022 C 
ENDBRANCH  22  25
ENDBRANCH  19  22
ENDBRANCH  13  19
ENDBRANCH   1  16
BRANCH   3  27
ATOM     27  C   UNL     1       5.264   3.526   4.770  0.00  0.00    +0.114 C 
BRANCH  27  28
ATOM     28  C   UNL     1       6.468   2.652   5.126  0.00  0.00    +0.001 C 
BRANCH  28  29
ATOM     29  C   UNL     1       6.121   1.768   6.324  0.00  0.00    -0.078 C 
BRANCH  29  30
ATOM     30  N   UNL     1       7.277   0.928   6.666  0.00  0.00    +0.376 N 
ATOM     31  C   UNL     1       8.384   1.781   7.120  0.00  0.00    -0.097 C 
ATOM     32  C   UNL     1       6.906  -0.004   7.738  0.00  0.00    -0.097 C 
ATOM     33  H   UNL     1       7.566   0.407   5.852  0.00  0.00    -0.083 HD
ENDBRANCH  29  30
ENDBRANCH  28  29
ENDBRANCH  27  28
ENDBRANCH   3  27
BRANCH   7  34
ATOM     34  O   UNL     1       7.501   8.147   0.574  0.00  0.00    -0.490 OA
BRANCH  34  35
ATOM     35  C   UNL     1       7.976   9.137  -0.341  0.00  0.00    +0.226 C 
ATOM     36  C   UNL     1       7.530   8.776  -1.760  0.00  0.00    +0.048 C 
ENDBRANCH  34  35
ENDBRANCH   7  34
TORSDOF 11
