REMARK  Name = ZINC08779819
REMARK  9 active torsions:
REMARK  status: ('A' for Active; 'I' for Inactive)
REMARK    1  A    between atoms: C_1  and  C_2
REMARK    2  A    between atoms: C_2  and  C_4
REMARK    3  A    between atoms: C_2  and  N_63
REMARK    4  A    between atoms: N_6  and  C_7
REMARK    5  A    between atoms: C_8  and  C_15
REMARK    6  A    between atoms: C_18  and  N_63
REMARK    7  A    between atoms: C_19  and  C_20
REMARK    8  A    between atoms: C_19  and  N_63
REMARK    9  A    between atoms: C_23  and  N_26
REMARK                            x       y       z     vdW  Elec       q    Type
REMARK                         _______ _______ _______ _____ _____    ______ ____
ROOT
ATOM      1  C   UNL     1      -0.368   2.595  -5.208  0.00  0.00    -0.004 C 
ATOM      2  C   UNL     1      -1.825   2.251  -4.895  0.00  0.00    +0.016 C 
ENDROOT
BRANCH   2   3
ATOM      3  C   UNL     1      -1.996   0.753  -4.880  0.00  0.00    +0.204 C 
ATOM      4  O   UNL     1      -2.699   0.215  -5.710  0.00  0.00    -0.277 OA
ATOM      5  N   UNL     1      -1.369   0.013  -3.945  0.00  0.00    -0.281 N 
ATOM      6  H   UNL     1      -0.807   0.443  -3.282  0.00  0.00    +0.155 HD
BRANCH   5   7
ATOM      7  C   UNL     1      -1.526  -1.365  -3.932  0.00  0.00    +0.084 A 
ATOM      8  C   UNL     1      -0.970  -2.286  -3.061  0.00  0.00    +0.068 A 
ATOM      9  C   UNL     1      -1.303  -3.696  -3.262  0.00  0.00    -0.023 A 
ATOM     10  C   UNL     1      -2.128  -3.946  -4.295  0.00  0.00    -0.004 A 
ATOM     11  S   UNL     1      -2.464  -2.351  -5.001  0.00  0.00    -0.077 S 
ATOM     12  C   UNL     1      -2.428  -5.413  -4.435  0.00  0.00    +0.043 C 
ATOM     13  C   UNL     1      -2.017  -6.026  -3.078  0.00  0.00    +0.010 C 
ATOM     14  C   UNL     1      -0.952  -5.024  -2.590  0.00  0.00    +0.037 C 
BRANCH   8  15
ATOM     15  C   UNL     1      -0.083  -1.863  -1.973  0.00  0.00    +0.244 C 
ATOM     16  O   UNL     1       1.118  -1.794  -2.159  0.00  0.00    -0.270 OA
ATOM     17  N   UNL     1      -0.598  -1.546  -0.768  0.00  0.00    -0.325 N 
ATOM     18  H   UNL     1      -0.011  -1.262  -0.050  0.00  0.00    +0.145 HD
ATOM     19  H   UNL     1      -1.555  -1.601  -0.620  0.00  0.00    +0.145 HD
ENDBRANCH   8  15
ENDBRANCH   5   7
ENDBRANCH   2   3
BRANCH   2  21
ATOM     20  C   UNL     1      -2.834   4.284  -5.738  0.00  0.00    -0.095 C 
ATOM     21  N   UNL     1      -2.724   2.821  -5.920  0.00  0.00    +0.388 N 
ATOM     22  H   UNL     1      -3.656   2.402  -5.817  0.00  0.00    -0.081 HD
BRANCH  21  23
ATOM     23  C   UNL     1      -2.207   2.518  -7.271  0.00  0.00    -0.042 C 
BRANCH  23  24
ATOM     24  C   UNL     1      -3.245   2.914  -8.289  0.00  0.00    -0.064 A 
ATOM     25  C   UNL     1      -4.208   2.002  -8.683  0.00  0.00    +0.003 A 
ATOM     26  C   UNL     1      -5.164   2.364  -9.612  0.00  0.00    +0.023 A 
ATOM     27  C   UNL     1      -5.151   3.640 -10.159  0.00  0.00    +0.030 A 
ATOM     28  C   UNL     1      -4.179   4.552  -9.765  0.00  0.00    +0.023 A 
ATOM     29  C   UNL     1      -3.229   4.186  -8.831  0.00  0.00    +0.003 A 
BRANCH  27  30
ATOM     30  N   UNL     1      -6.113   4.007 -11.102  0.00  0.00    -0.330 N 
ATOM     31  C   UNL     1      -6.838   5.210 -10.674  0.00  0.00    +0.105 C 
ATOM     32  C   UNL     1      -7.779   5.666 -11.792  0.00  0.00    +0.019 C 
ATOM     33  C   UNL     1      -8.765   4.540 -12.113  0.00  0.00    +0.003 C 
ATOM     34  C   UNL     1      -7.983   3.285 -12.509  0.00  0.00    +0.019 C 
ATOM     35  C   UNL     1      -7.037   2.898 -11.370  0.00  0.00    +0.105 C 
ENDBRANCH  27  30
ENDBRANCH  23  24
ENDBRANCH  21  23
ENDBRANCH   2  21
TORSDOF 7
