REMARK  Name = ZINC35142090
REMARK  14 active torsions:
REMARK  status: ('A' for Active; 'I' for Inactive)
REMARK    1  A    between atoms: C_1  and  C_2
REMARK    2  A    between atoms: C_6  and  N_8
REMARK    3  A    between atoms: C_9  and  N_17
REMARK    4  A    between atoms: C_11  and  C_13
REMARK    5  A    between atoms: C_13  and  C_14
REMARK    6  A    between atoms: C_13  and  C_15
REMARK    7  A    between atoms: C_13  and  C_16
REMARK    8  A    between atoms: C_18  and  C_20
REMARK    9  A    between atoms: C_20  and  N_21
REMARK   10  A    between atoms: N_21  and  C_22
REMARK   11  A    between atoms: C_22  and  C_23
REMARK   12  A    between atoms: C_23  and  O_24
REMARK   13  A    between atoms: O_24  and  C_25
REMARK   14  A    between atoms: C_26  and  C_28
REMARK                            x       y       z     vdW  Elec       q    Type
REMARK                         _______ _______ _______ _____ _____    ______ ____
ROOT
ATOM      1  N   UNL     1      -2.355  -4.754   0.161  0.00  0.00    -0.269 N 
ATOM      2  C   UNL     1      -2.634  -5.795   0.971  0.00  0.00    +0.236 C 
ATOM      3  O   UNL     1      -2.535  -5.671   2.174  0.00  0.00    -0.274 OA
ATOM      4  H   UNL     1      -2.434  -4.854  -0.800  0.00  0.00    +0.156 HD
ENDROOT
BRANCH   1   6
ATOM      5  N   UNL     1      -1.640  -2.407   0.011  0.00  0.00    -0.218 N 
ATOM      6  C   UNL     1      -1.952  -3.535   0.706  0.00  0.00    +0.129 A 
ATOM      7  C   UNL     1      -1.799  -3.256   2.029  0.00  0.00    +0.069 A 
ATOM      8  C   UNL     1      -1.384  -1.925   2.141  0.00  0.00    +0.071 A 
ATOM      9  N   UNL     1      -1.283  -1.420   0.938  0.00  0.00    -0.169 NA
BRANCH   5  15
ATOM     10  C   UNL     1      -2.470   0.406  -3.937  0.00  0.00    +0.044 C 
ATOM     11  C   UNL     1      -2.064  -0.909  -3.322  0.00  0.00    -0.048 A 
ATOM     12  C   UNL     1      -1.717  -1.974  -4.134  0.00  0.00    +0.003 A 
ATOM     13  C   UNL     1      -1.345  -3.182  -3.573  0.00  0.00    +0.002 A 
ATOM     14  C   UNL     1      -1.319  -3.328  -2.200  0.00  0.00    +0.028 A 
ATOM     15  C   UNL     1      -1.666  -2.261  -1.382  0.00  0.00    +0.068 A 
ATOM     16  C   UNL     1      -2.034  -1.048  -1.948  0.00  0.00    +0.031 A 
ENDBRANCH   5  15
BRANCH   8  17
ATOM     17  C   UNL     1      -1.096  -1.199   3.429  0.00  0.00    +0.006 C 
ATOM     18  C   UNL     1       0.247  -1.670   3.991  0.00  0.00    +0.017 C 
ATOM     19  C   UNL     1      -1.037   0.307   3.163  0.00  0.00    +0.017 C 
ATOM     20  C   UNL     1      -2.204  -1.495   4.442  0.00  0.00    +0.017 C 
ENDBRANCH   8  17
ENDBRANCH   1   6
BRANCH   2  21
ATOM     21  C   UNL     1      -3.069  -7.112   0.383  0.00  0.00    +0.204 C 
BRANCH  21  22
ATOM     22  N   UNL     1      -3.310  -8.073   1.462  0.00  0.00    -0.287 N 
ATOM     23  C   UNL     1      -2.366  -8.981   1.780  0.00  0.00    +0.247 C 
ATOM     24  O   UNL     1      -2.584  -9.809   2.643  0.00  0.00    -0.270 OA
BRANCH  23  25
ATOM     25  C   UNL     1      -1.064  -8.969   1.079  0.00  0.00    +0.037 A 
ATOM     26  C   UNL     1      -0.412  -7.760   0.833  0.00  0.00    +0.014 A 
ATOM     27  C   UNL     1       0.802  -7.756   0.178  0.00  0.00    +0.016 A 
ATOM     28  C   UNL     1       1.374  -8.947  -0.235  0.00  0.00    +0.018 A 
ATOM     29  C   UNL     1       0.731 -10.150   0.007  0.00  0.00    +0.016 A 
ATOM     30  C   UNL     1      -0.480 -10.168   0.665  0.00  0.00    +0.014 A 
ATOM     31 BR   UNL     1       3.038  -8.933  -1.132  0.00  0.00    -0.050 Br
ENDBRANCH  23  25
BRANCH  22  32
ATOM     32  C   UNL     1      -4.578  -8.048   2.196  0.00  0.00    +0.136 C 
BRANCH  32  33
ATOM     33  C   UNL     1      -5.627  -8.855   1.430  0.00  0.00    +0.178 C 
BRANCH  33  34
ATOM     34  O   UNL     1      -5.239 -10.229   1.394  0.00  0.00    -0.381 OA
ATOM     35  C   UNL     1      -6.156 -11.075   0.697  0.00  0.00    +0.194 C 
ENDBRANCH  33  34
ENDBRANCH  32  33
ENDBRANCH  22  32
ENDBRANCH  21  22
ENDBRANCH   2  21
TORSDOF 9
