REMARK  Name = ZINC38051250
REMARK  3 active torsions:
REMARK  status: ('A' for Active; 'I' for Inactive)
REMARK    1  A    between atoms: C_6  and  N_7
REMARK    2  A    between atoms: C_12  and  C_14
REMARK    3  A    between atoms: C_14  and  C_15
REMARK                            x       y       z     vdW  Elec       q    Type
REMARK                         _______ _______ _______ _____ _____    ______ ____
ROOT
ATOM      1  C   UNL     1      -0.032   1.357  -0.082  0.00  0.00    +0.024 A 
ATOM      2  C   UNL     1       1.151   2.069  -0.061  0.00  0.00    +0.018 A 
ATOM      3  C   UNL     1       2.371   1.403  -0.042  0.00  0.00    +0.029 A 
ATOM      4  C   UNL     1       2.408   0.012  -0.040  0.00  0.00    +0.051 A 
ATOM      5  C   UNL     1       1.212  -0.700  -0.068  0.00  0.00    +0.047 A 
ATOM      6  C   UNL     1      -0.002  -0.031  -0.088  0.00  0.00    +0.026 A 
ATOM      7  N   UNL     1       3.602  -0.712   0.001  0.00  0.00    -0.269 N 
ATOM      8  C   UNL     1       4.894  -0.137  -0.361  0.00  0.00    +0.124 C 
ATOM      9  C   UNL     1       5.120   1.135   0.471  0.00  0.00    +0.094 C 
ATOM     10  S   UNL     1       3.861   2.349  -0.025  0.00  0.00    -0.122 S 
ATOM     11  C   UNL     1       3.559  -2.000   0.395  0.00  0.00    +0.228 C 
ATOM     12  O   UNL     1       2.524  -2.472   0.815  0.00  0.00    -0.275 OA
ENDROOT
BRANCH   6  13
ATOM     13  N   UNL     1      -1.199  -0.756  -0.114  0.00  0.00    -0.358 N 
ATOM     14  H   UNL     1      -2.049  -0.289  -0.127  0.00  0.00    +0.142 HD
ATOM     15  H   UNL     1      -1.179  -1.726  -0.118  0.00  0.00    +0.142 HD
ENDBRANCH   6  13
BRANCH  11  16
ATOM     16  C   UNL     1       4.798  -2.854   0.314  0.00  0.00    +0.209 C 
BRANCH  16  17
ATOM     17  C   UNL     1       4.480  -4.263   0.817  0.00  0.00    +0.398 C 
ATOM     18  F   UNL     1       3.473  -4.825   0.025  0.00  0.00    -0.170 F 
ATOM     19  F   UNL     1       5.630  -5.056   0.742  0.00  0.00    -0.170 F 
ATOM     20  F   UNL     1       4.046  -4.197   2.146  0.00  0.00    -0.170 F 
ENDBRANCH  16  17
ENDBRANCH  11  16
TORSDOF 3
