REMARK  Name = ZINC34791429
REMARK  16 active torsions:
REMARK  status: ('A' for Active; 'I' for Inactive)
REMARK    1  A    between atoms: C_1  and  C_2
REMARK    2  A    between atoms: C_2  and  C_3
REMARK    3  A    between atoms: C_3  and  N_4
REMARK    4  A    between atoms: N_4  and  C_5
REMARK    5  A    between atoms: C_5  and  C_6
REMARK    6  A    between atoms: C_6  and  C_7
REMARK    7  A    between atoms: C_8  and  C_10
REMARK    8  A    between atoms: C_10  and  C_12
REMARK    9  A    between atoms: C_10  and  N_16
REMARK   10  A    between atoms: C_12  and  C_13
REMARK   11  A    between atoms: C_13  and  C_14
REMARK   12  A    between atoms: C_13  and  C_15
REMARK   13  A    between atoms: C_22  and  C_30
REMARK   14  A    between atoms: N_27  and  C_28
REMARK   15  A    between atoms: C_28  and  C_29
REMARK   16  A    between atoms: C_35  and  C_36
REMARK                            x       y       z     vdW  Elec       q    Type
REMARK                         _______ _______ _______ _____ _____    ______ ____
ROOT
ATOM      1  N   UNL     1      -1.943  -4.787   1.495  0.00  0.00    -0.281 N 
ATOM      2  C   UNL     1      -2.360  -5.855   0.574  0.00  0.00    +0.160 C 
ATOM      3  C   UNL     1      -3.461  -6.591   1.305  0.00  0.00    +0.042 C 
ATOM      4  C   UNL     1      -3.608  -5.971   2.493  0.00  0.00    +0.058 C 
ATOM      5  C   UNL     1      -2.698  -4.900   2.603  0.00  0.00    +0.247 C 
ATOM      6  O   UNL     1      -2.608  -4.170   3.574  0.00  0.00    -0.270 OA
ATOM      7  C   UNL     1      -4.660  -6.508   3.443  0.00  0.00    +0.142 C 
ATOM      8  N   UNL     1      -5.439  -7.670   2.986  0.00  0.00    -0.288 N 
ATOM      9  C   UNL     1      -5.175  -8.181   1.767  0.00  0.00    +0.307 C 
ATOM     10  O   UNL     1      -5.814  -9.141   1.380  0.00  0.00    -0.252 OA
ATOM     11  N   UNL     1      -4.232  -7.666   0.967  0.00  0.00    -0.257 N 
ATOM     12  H   UNL     1      -6.127  -8.060   3.549  0.00  0.00    +0.151 HD
ENDROOT
BRANCH   7  13
ATOM     13  C   UNL     1      -3.974  -6.886   4.730  0.00  0.00    -0.011 A 
ATOM     14  C   UNL     1      -3.054  -7.919   4.746  0.00  0.00    +0.006 A 
ATOM     15  C   UNL     1      -2.425  -8.266   5.927  0.00  0.00    +0.000 A 
ATOM     16  C   UNL     1      -2.715  -7.580   7.092  0.00  0.00    +0.001 A 
ATOM     17  C   UNL     1      -3.634  -6.548   7.076  0.00  0.00    +0.013 A 
ATOM     18  C   UNL     1      -4.260  -6.197   5.894  0.00  0.00    +0.060 A 
BRANCH  18  19
ATOM     19  C   UNL     1      -5.257  -5.068   5.875  0.00  0.00    +0.418 C 
ATOM     20  F   UNL     1      -5.345  -4.503   7.152  0.00  0.00    -0.166 F 
ATOM     21  F   UNL     1      -4.842  -4.094   4.962  0.00  0.00    -0.166 F 
ATOM     22  F   UNL     1      -6.511  -5.559   5.496  0.00  0.00    -0.166 F 
ENDBRANCH  18  19
ENDBRANCH   7  13
BRANCH  11  23
ATOM     23  C   UNL     1      -4.017  -8.289  -0.341  0.00  0.00    +0.111 C 
ATOM     24  C   UNL     1      -2.964  -9.391  -0.214  0.00  0.00    +0.025 C 
ENDBRANCH  11  23
BRANCH   1  25
ATOM     25  C   UNL     1      -0.897  -3.790   1.254  0.00  0.00    +0.163 C 
BRANCH  25  27
ATOM     26  N   UNL     1      -0.692  -1.327   1.345  0.00  0.00    -0.300 N 
ATOM     27  C   UNL     1      -1.392  -2.431   1.675  0.00  0.00    +0.236 C 
ATOM     28  O   UNL     1      -2.419  -2.330   2.312  0.00  0.00    -0.274 OA
BRANCH  26  29
ATOM     29  C   UNL     1      -1.117  -0.015   1.840  0.00  0.00    +0.107 C 
BRANCH  29  31
ATOM     30  C   UNL     1      -2.535   1.985   1.360  0.00  0.00    +0.005 C 
ATOM     31  C   UNL     1      -2.091   0.615   0.843  0.00  0.00    +0.016 C 
ENDBRANCH  29  31
ENDBRANCH  26  29
BRANCH  26  32
ATOM     32  C   UNL     1       0.493  -1.439   0.491  0.00  0.00    +0.107 C 
BRANCH  32  33
ATOM     33  C   UNL     1       1.749  -1.187   1.327  0.00  0.00    +0.016 C 
ATOM     34  C   UNL     1       2.987  -1.313   0.438  0.00  0.00    +0.005 C 
ENDBRANCH  32  33
ENDBRANCH  26  32
ENDBRANCH  25  27
BRANCH  25  35
ATOM     35  C   UNL     1       0.349  -4.153   2.063  0.00  0.00    +0.035 C 
BRANCH  35  36
ATOM     36  C   UNL     1      -0.021  -4.274   3.543  0.00  0.00    -0.015 C 
ATOM     37  C   UNL     1       1.154  -4.880   4.314  0.00  0.00    +0.007 C 
ATOM     38  C   UNL     1      -0.338  -2.886   4.104  0.00  0.00    +0.007 C 
ENDBRANCH  35  36
ENDBRANCH  25  35
ENDBRANCH   1  25
TORSDOF 11
