REMARK  Name = ZINC40661779
REMARK  8 active torsions:
REMARK  status: ('A' for Active; 'I' for Inactive)
REMARK    1  A    between atoms: C_1  and  C_2
REMARK    2  A    between atoms: C_2  and  N_3
REMARK    3  A    between atoms: N_3  and  C_4
REMARK    4  A    between atoms: C_8  and  C_10
REMARK    5  A    between atoms: C_12  and  N_25
REMARK    6  A    between atoms: C_13  and  N_17
REMARK    7  A    between atoms: N_17  and  N_18
REMARK    8  A    between atoms: N_18  and  C_19
REMARK                            x       y       z     vdW  Elec       q    Type
REMARK                         _______ _______ _______ _____ _____    ______ ____
ROOT
ATOM      1  N   UNL     1       0.685  -0.471  -1.201  0.00  0.00    -0.285 N 
ATOM      2  C   UNL     1      -0.121  -0.676  -2.315  0.00  0.00    +0.129 A 
ATOM      3  C   UNL     1      -1.484  -0.378  -2.269  0.00  0.00    +0.105 A 
ATOM      4  C   UNL     1      -2.247  -0.602  -3.416  0.00  0.00    +0.161 A 
ATOM      5  N   UNL     1      -1.651  -1.086  -4.503  0.00  0.00    -0.219 NA
ATOM      6  C   UNL     1      -0.360  -1.354  -4.505  0.00  0.00    +0.200 A 
ATOM      7  N   UNL     1       0.396  -1.153  -3.445  0.00  0.00    -0.332 N 
ATOM      8  H   UNL     1       1.343  -1.359  -3.487  0.00  0.00    +0.168 HD
ENDROOT
BRANCH   1   9
ATOM      9  C   UNL     1       0.943  -1.527  -0.322  0.00  0.00    +0.035 A 
ATOM     10  C   UNL     1       0.487  -2.806  -0.617  0.00  0.00    +0.023 A 
ATOM     11  C   UNL     1       0.744  -3.847   0.253  0.00  0.00    +0.002 A 
ATOM     12  C   UNL     1       1.455  -3.617   1.417  0.00  0.00    +0.003 A 
ATOM     13  C   UNL     1       1.910  -2.346   1.714  0.00  0.00    -0.049 A 
ATOM     14  C   UNL     1       1.662  -1.302   0.845  0.00  0.00    +0.026 A 
ATOM     15  C   UNL     1       2.684  -2.101   2.983  0.00  0.00    +0.044 C 
ENDBRANCH   1   9
BRANCH   3  16
ATOM     16  N   UNL     1      -2.072   0.132  -1.100  0.00  0.00    -0.353 N 
ATOM     17  H   UNL     1      -1.547   0.213  -0.288  0.00  0.00    +0.143 HD
ATOM     18  H   UNL     1      -3.003   0.403  -1.104  0.00  0.00    +0.143 HD
ENDBRANCH   3  16
BRANCH   1  20
ATOM     19  C   UNL     1       2.682   0.905  -1.516  0.00  0.00    +0.025 C 
ATOM     20  C   UNL     1       1.262   0.851  -0.947  0.00  0.00    +0.109 C 
ENDBRANCH   1  20
BRANCH   4  21
ATOM     21  N   UNL     1      -3.609  -0.323  -3.424  0.00  0.00    -0.249 N 
ATOM     22  H   UNL     1      -4.036   0.030  -2.628  0.00  0.00    +0.172 HD
BRANCH  21  23
ATOM     23  N   UNL     1      -4.364  -0.551  -4.582  0.00  0.00    -0.265 N 
ATOM     24  H   UNL     1      -3.937  -0.904  -5.378  0.00  0.00    +0.170 HD
BRANCH  23  25
ATOM     25  C   UNL     1      -5.732  -0.271  -4.589  0.00  0.00    +0.044 A 
ATOM     26  C   UNL     1      -6.345   0.239  -3.452  0.00  0.00    +0.024 A 
ATOM     27  C   UNL     1      -7.698   0.516  -3.463  0.00  0.00    +0.002 A 
ATOM     28  C   UNL     1      -8.443   0.284  -4.604  0.00  0.00    +0.000 A 
ATOM     29  C   UNL     1      -7.837  -0.224  -5.738  0.00  0.00    +0.002 A 
ATOM     30  C   UNL     1      -6.483  -0.497  -5.736  0.00  0.00    +0.024 A 
ENDBRANCH  23  25
ENDBRANCH  21  23
ENDBRANCH   4  21
TORSDOF 6
