REMARK  Name = ZINC36583954
REMARK  14 active torsions:
REMARK  status: ('A' for Active; 'I' for Inactive)
REMARK    1  A    between atoms: C_1  and  C_2
REMARK    2  A    between atoms: C_2  and  C_3
REMARK    3  A    between atoms: C_2  and  C_4
REMARK    4  A    between atoms: C_2  and  N_5
REMARK    5  A    between atoms: C_6  and  C_8
REMARK    6  A    between atoms: C_8  and  C_10
REMARK    7  A    between atoms: C_8  and  N_19
REMARK    8  A    between atoms: C_13  and  N_16
REMARK    9  A    between atoms: N_19  and  C_30
REMARK   10  A    between atoms: C_20  and  C_22
REMARK   11  A    between atoms: C_22  and  C_23
REMARK   12  A    between atoms: C_30  and  C_31
REMARK   13  A    between atoms: C_30  and  C_32
REMARK   14  A    between atoms: C_30  and  C_33
REMARK                            x       y       z     vdW  Elec       q    Type
REMARK                         _______ _______ _______ _____ _____    ______ ____
ROOT
ATOM      1  C   UNL     1       1.916   0.405  -3.790  0.00  0.00    +0.193 C 
ENDROOT
BRANCH   1   2
ATOM      2  C   UNL     1       1.917  -0.716  -4.798  0.00  0.00    -0.018 A 
ATOM      3  C   UNL     1       2.586  -1.893  -4.521  0.00  0.00    +0.008 A 
ATOM      4  C   UNL     1       2.587  -2.922  -5.444  0.00  0.00    +0.033 A 
ATOM      5  C   UNL     1       1.918  -2.773  -6.645  0.00  0.00    +0.126 A 
ATOM      6  C   UNL     1       1.248  -1.596  -6.921  0.00  0.00    +0.033 A 
ATOM      7  C   UNL     1       1.244  -0.569  -5.996  0.00  0.00    +0.008 A 
BRANCH   5   8
ATOM      8  N   UNL     1       1.920  -3.873  -7.635  0.00  0.00    +0.056 N 
ATOM      9  O   UNL     1       2.506  -4.903  -7.393  0.00  0.00    -0.126 OA
ATOM     10  O   UNL     1       1.335  -3.743  -8.685  0.00  0.00    -0.126 OA
ENDBRANCH   5   8
ENDBRANCH   1   2
BRANCH   1  12
ATOM     11  N   UNL     1      -0.526   0.164  -3.479  0.00  0.00    -0.309 N 
ATOM     12  C   UNL     1       0.692   0.296  -2.918  0.00  0.00    +0.239 C 
ATOM     13  O   UNL     1       0.803   0.326  -1.711  0.00  0.00    -0.273 OA
ATOM     14  H   UNL     1      -0.615   0.140  -4.445  0.00  0.00    +0.149 HD
BRANCH  11  16
ATOM     15  C   UNL     1      -1.841   1.315  -1.768  0.00  0.00    +0.031 C 
ATOM     16  C   UNL     1      -1.716   0.058  -2.631  0.00  0.00    +0.026 C 
ATOM     17  C   UNL     1      -1.591  -1.171  -1.728  0.00  0.00    +0.031 C 
ATOM     18  C   UNL     1      -2.959  -0.082  -3.512  0.00  0.00    +0.031 C 
ENDBRANCH  11  16
ENDBRANCH   1  12
BRANCH   1  19
ATOM     19  N   UNL     1       3.118   0.315  -2.958  0.00  0.00    -0.281 N 
ATOM     20  C   UNL     1       3.239  -0.676  -2.053  0.00  0.00    +0.221 C 
ATOM     21  O   UNL     1       2.307  -1.425  -1.846  0.00  0.00    -0.275 OA
BRANCH  19  22
ATOM     22  C   UNL     1       4.190   1.302  -3.110  0.00  0.00    +0.030 C 
ATOM     23  C   UNL     1       3.807   2.307  -4.199  0.00  0.00    +0.031 C 
ATOM     24  C   UNL     1       4.396   2.039  -1.785  0.00  0.00    +0.031 C 
ATOM     25  C   UNL     1       5.486   0.592  -3.506  0.00  0.00    +0.031 C 
ENDBRANCH  19  22
BRANCH  20  26
ATOM     26  C   UNL     1       4.530  -0.854  -1.298  0.00  0.00    +0.131 C 
BRANCH  26  27
ATOM     27  C   UNL     1       4.347  -1.900  -0.229  0.00  0.00    -0.039 A 
ATOM     28  C   UNL     1       3.922  -1.531   1.034  0.00  0.00    +0.005 A 
ATOM     29  C   UNL     1       3.754  -2.490   2.015  0.00  0.00    +0.015 A 
ATOM     30  C   UNL     1       4.011  -3.820   1.732  0.00  0.00    +0.018 A 
ATOM     31  C   UNL     1       4.436  -4.189   0.469  0.00  0.00    +0.015 A 
ATOM     32  C   UNL     1       4.599  -3.229  -0.512  0.00  0.00    +0.005 A 
ATOM     33 BR   UNL     1       3.781  -5.133   3.074  0.00  0.00    -0.050 Br
ENDBRANCH  26  27
ENDBRANCH  20  26
ENDBRANCH   1  19
TORSDOF 8
