REMARK  Name = ZINC22842788
REMARK  9 active torsions:
REMARK  status: ('A' for Active; 'I' for Inactive)
REMARK    1  A    between atoms: C_1  and  C_2
REMARK    2  A    between atoms: C_5  and  C_8
REMARK    3  A    between atoms: C_10  and  C_13
REMARK    4  A    between atoms: C_13  and  N_14
REMARK    5  A    between atoms: N_17  and  C_20
REMARK    6  A    between atoms: C_20  and  C_21
REMARK    7  A    between atoms: N_23  and  C_24
REMARK    8  A    between atoms: C_24  and  C_26
REMARK    9  A    between atoms: C_24  and  C_32
REMARK                            x       y       z     vdW  Elec       q    Type
REMARK                         _______ _______ _______ _____ _____    ______ ____
ROOT
ATOM      1  N   UNL     1      -1.278  -7.884   1.946  0.00  0.00    +0.387 N 
ATOM      2  C   UNL     1      -1.930  -8.363   0.720  0.00  0.00    -0.063 C 
ATOM      3  C   UNL     1      -3.373  -8.765   1.033  0.00  0.00    +0.066 C 
ATOM      4  N   UNL     1      -3.374  -9.822   2.054  0.00  0.00    -0.298 NA
ATOM      5  C   UNL     1      -2.702  -9.365   3.279  0.00  0.00    +0.066 C 
ATOM      6  C   UNL     1      -1.265  -8.959   2.948  0.00  0.00    -0.063 C 
ATOM      7  H   UNL     1      -1.787  -7.092   2.310  0.00  0.00    -0.081 HD
ENDROOT
BRANCH   1   8
ATOM      8  C   UNL     1       0.102  -7.482   1.642  0.00  0.00    +0.022 C 
BRANCH   8  11
ATOM      9  C   UNL     1       0.059  -4.256  -0.021  0.00  0.00    +0.202 A 
ATOM     10  N   UNL     1       0.070  -5.047   1.067  0.00  0.00    -0.193 NA
ATOM     11  C   UNL     1       0.086  -6.299   0.708  0.00  0.00    +0.211 A 
ATOM     12  O   UNL     1       0.086  -6.357  -0.630  0.00  0.00    -0.340 OA
ATOM     13  N   UNL     1       0.064  -5.015  -1.090  0.00  0.00    -0.056 NA
BRANCH   9  18
ATOM     14  C   UNL     1      -0.018   1.503   0.010  0.00  0.00    +0.044 C 
ATOM     15  C   UNL     1       0.002  -0.004   0.002  0.00  0.00    -0.050 A 
ATOM     16  C   UNL     1       0.006  -0.686  -1.201  0.00  0.00    +0.004 A 
ATOM     17  C   UNL     1       0.024  -2.067  -1.214  0.00  0.00    +0.012 A 
ATOM     18  C   UNL     1       0.040  -2.772  -0.013  0.00  0.00    +0.022 A 
ATOM     19  C   UNL     1       0.036  -2.080   1.196  0.00  0.00    +0.012 A 
ATOM     20  C   UNL     1       0.023  -0.700   1.198  0.00  0.00    +0.004 A 
ENDBRANCH   9  18
ENDBRANCH   8  11
ENDBRANCH   1   8
BRANCH   4  21
ATOM     21  C   UNL     1      -4.742 -10.275   2.342  0.00  0.00    +0.180 C 
BRANCH  21  22
ATOM     22  C   UNL     1      -4.691 -11.513   3.199  0.00  0.00    +0.228 C 
ATOM     23  O   UNL     1      -3.620 -11.973   3.538  0.00  0.00    -0.274 OA
ATOM     24  N   UNL     1      -5.834 -12.110   3.590  0.00  0.00    -0.303 N 
ATOM     25  H   UNL     1      -6.690 -11.742   3.319  0.00  0.00    +0.150 HD
BRANCH  24  26
ATOM     26  C   UNL     1      -5.785 -13.313   4.424  0.00  0.00    +0.140 C 
BRANCH  26  27
ATOM     27  C   UNL     1      -7.045 -14.115   4.224  0.00  0.00    -0.022 A 
ATOM     28  C   UNL     1      -8.262 -13.471   4.106  0.00  0.00    +0.006 A 
ATOM     29  C   UNL     1      -9.419 -14.206   3.922  0.00  0.00    +0.000 A 
ATOM     30  C   UNL     1      -9.357 -15.586   3.857  0.00  0.00    +0.000 A 
ATOM     31  C   UNL     1      -8.140 -16.230   3.974  0.00  0.00    +0.000 A 
ATOM     32  C   UNL     1      -6.983 -15.494   4.153  0.00  0.00    +0.006 A 
ENDBRANCH  26  27
BRANCH  26  33
ATOM     33  C   UNL     1      -5.666 -12.916   5.873  0.00  0.00    +0.014 A 
ATOM     34  C   UNL     1      -4.914 -13.475   6.852  0.00  0.00    +0.013 A 
ATOM     35  C   UNL     1      -4.963 -12.937   8.124  0.00  0.00    +0.008 A 
ATOM     36  C   UNL     1      -5.762 -11.867   8.355  0.00  0.00    +0.045 A 
ATOM     37  S   UNL     1      -6.475 -11.584   6.743  0.00  0.00    -0.099 S 
ENDBRANCH  26  33
ENDBRANCH  24  26
ENDBRANCH  21  22
ENDBRANCH   4  21
TORSDOF 8
