REMARK  Name = ZINC63348927
REMARK  3 active torsions:
REMARK  status: ('A' for Active; 'I' for Inactive)
REMARK    1  A    between atoms: C_8  and  C_13
REMARK    2  A    between atoms: C_10  and  N_12
REMARK    3  A    between atoms: N_18  and  C_19
REMARK                            x       y       z     vdW  Elec       q    Type
REMARK                         _______ _______ _______ _____ _____    ______ ____
ROOT
ATOM      1  C   UNL     1       0.186  -0.187  -0.437  0.00  0.00    +0.020 A 
ATOM      2  C   UNL     1       1.196   0.758  -0.404  0.00  0.00    +0.009 A 
ATOM      3  C   UNL     1       2.526   0.339  -0.316  0.00  0.00    +0.003 A 
ATOM      4  C   UNL     1       2.748  -1.038  -0.278  0.00  0.00    +0.102 A 
ATOM      5  N   UNL     1       1.760  -1.911  -0.301  0.00  0.00    -0.248 NA
ATOM      6  C   UNL     1       0.498  -1.530  -0.380  0.00  0.00    +0.112 A 
ATOM      7  S   UNL     1       4.513  -1.260  -0.219  0.00  0.00    -0.092 S 
ATOM      8  C   UNL     1       5.027   0.452  -0.658  0.00  0.00    +0.142 C 
ATOM      9  C   UNL     1       3.749   1.218  -0.247  0.00  0.00    +0.105 C 
ENDROOT
BRANCH   8  10
ATOM     10  C   UNL     1       6.218   0.893   0.153  0.00  0.00    +0.150 A 
ATOM     11  N   UNL     1       6.394   0.705   1.431  0.00  0.00    -0.132 NA
ATOM     12  N   UNL     1       7.518   1.207   1.799  0.00  0.00    -0.122 NA
ATOM     13  C   UNL     1       8.124   1.749   0.768  0.00  0.00    +0.203 A 
ATOM     14  S   UNL     1       9.689   2.559   0.780  0.00  0.00    -0.009 SA
ATOM     15  N   UNL     1       7.316   1.561  -0.315  0.00  0.00    -0.301 N 
BRANCH  15  16
ATOM     16  C   UNL     1       7.569   1.988  -1.694  0.00  0.00    +0.091 C 
ATOM     17  C   UNL     1       9.006   2.360  -2.064  0.00  0.00    +0.027 C 
ATOM     18  C   UNL     1       7.945   3.453  -1.921  0.00  0.00    +0.027 C 
ENDBRANCH  15  16
ENDBRANCH   8  10
BRANCH   9  19
ATOM     19  N   UNL     1       3.566   2.364  -1.148  0.00  0.00    -0.322 NA
ATOM     20  H   UNL     1       2.772   2.920  -0.869  0.00  0.00    +0.119 HD
ATOM     21  H   UNL     1       4.403   2.926  -1.192  0.00  0.00    +0.119 HD
ENDBRANCH   9  19
TORSDOF 3
