REMARK  Name = ZINC48743382
REMARK  9 active torsions:
REMARK  status: ('A' for Active; 'I' for Inactive)
REMARK    1  A    between atoms: C_1  and  N_2
REMARK    2  A    between atoms: N_2  and  C_3
REMARK    3  A    between atoms: N_2  and  C_4
REMARK    4  A    between atoms: C_4  and  C_6
REMARK    5  A    between atoms: C_4  and  C_23
REMARK    6  A    between atoms: C_6  and  N_7
REMARK    7  A    between atoms: C_8  and  C_10
REMARK    8  A    between atoms: N_12  and  C_13
REMARK    9  A    between atoms: C_17  and  C_19
REMARK                            x       y       z     vdW  Elec       q    Type
REMARK                         _______ _______ _______ _____ _____    ______ ____
ROOT
ATOM      1  C   UNL     1      -1.967   3.724  -2.268  0.00  0.00    +0.303 C 
ATOM      2  O   UNL     1      -1.286   4.253  -1.414  0.00  0.00    -0.265 OA
ATOM      3  N   UNL     1      -2.470   4.459  -3.279  0.00  0.00    -0.278 N 
ATOM      4  H   UNL     1      -3.076   4.053  -3.919  0.00  0.00    +0.155 HD
ENDROOT
BRANCH   3   5
ATOM      5  C   UNL     1      -2.120   5.807  -3.406  0.00  0.00    +0.035 A 
ATOM      6  C   UNL     1      -0.842   6.229  -3.055  0.00  0.00    +0.025 A 
ATOM      7  C   UNL     1      -0.490   7.559  -3.178  0.00  0.00    +0.022 A 
ATOM      8  C   UNL     1      -1.406   8.480  -3.650  0.00  0.00    +0.053 A 
ATOM      9  C   UNL     1      -2.693   8.066  -4.005  0.00  0.00    +0.057 A 
ATOM     10  C   UNL     1      -3.045   6.721  -3.886  0.00  0.00    +0.037 A 
ATOM     11 CL   UNL     1      -0.959  10.150  -3.801  0.00  0.00    -0.083 Cl
BRANCH   9  12
ATOM     12  C   UNL     1      -3.675   9.048  -4.510  0.00  0.00    +0.243 C 
ATOM     13  O   UNL     1      -3.364  10.218  -4.617  0.00  0.00    -0.270 OA
ATOM     14  N   UNL     1      -4.915   8.646  -4.852  0.00  0.00    -0.325 N 
ATOM     15  H   UNL     1      -5.163   7.712  -4.767  0.00  0.00    +0.145 HD
ATOM     16  H   UNL     1      -5.559   9.290  -5.184  0.00  0.00    +0.145 HD
ENDBRANCH   9  12
ENDBRANCH   3   5
BRANCH   1  18
ATOM     17  N   UNL     1      -1.744   1.524  -1.186  0.00  0.00    -0.309 N 
ATOM     18  C   UNL     1      -2.248   2.259  -2.198  0.00  0.00    +0.299 C 
ATOM     19  O   UNL     1      -2.929   1.730  -3.052  0.00  0.00    -0.265 OA
ATOM     20  H   UNL     1      -1.200   1.947  -0.504  0.00  0.00    +0.149 HD
BRANCH  17  21
ATOM     21  C   UNL     1      -2.020   0.087  -1.118  0.00  0.00    +0.094 C 
BRANCH  21  22
ATOM     22  C   UNL     1      -1.238  -0.527   0.045  0.00  0.00    -0.014 C 
BRANCH  22  23
ATOM     23  C   UNL     1      -1.753   0.030   1.347  0.00  0.00    -0.022 A 
ATOM     24  C   UNL     1      -1.236   1.020   2.116  0.00  0.00    +0.009 A 
ATOM     25  C   UNL     1      -1.887   1.370   3.284  0.00  0.00    +0.008 A 
ATOM     26  C   UNL     1      -3.023   0.714   3.626  0.00  0.00    +0.045 A 
ATOM     27  S   UNL     1      -3.207  -0.435   2.272  0.00  0.00    -0.103 S 
ENDBRANCH  22  23
BRANCH  22  29
ATOM     28  C   UNL     1      -0.807  -2.541  -1.184  0.00  0.00    -0.096 C 
ATOM     29  N   UNL     1      -1.410  -1.986   0.035  0.00  0.00    +0.382 N 
ATOM     30  C   UNL     1      -0.752  -2.565   1.214  0.00  0.00    -0.096 C 
ATOM     31  H   UNL     1      -2.394  -2.209   0.056  0.00  0.00    -0.082 HD
ENDBRANCH  22  29
ENDBRANCH  21  22
ENDBRANCH  17  21
ENDBRANCH   1  18
TORSDOF 7
