REMARK  Name = ZINC12159508
REMARK  15 active torsions:
REMARK  status: ('A' for Active; 'I' for Inactive)
REMARK    1  A    between atoms: C_1  and  C_2
REMARK    2  A    between atoms: C_2  and  C_4
REMARK    3  A    between atoms: C_2  and  C_10
REMARK    4  A    between atoms: C_4  and  C_5
REMARK    5  A    between atoms: C_5  and  C_6
REMARK    6  A    between atoms: C_7  and  C_8
REMARK    7  A    between atoms: C_7  and  C_9
REMARK    8  A    between atoms: C_10  and  N_74
REMARK    9  A    between atoms: C_13  and  C_16
REMARK   10  A    between atoms: C_16  and  C_27
REMARK   11  A    between atoms: N_19  and  C_23
REMARK   12  A    between atoms: C_23  and  C_24
REMARK   13  A    between atoms: C_24  and  O_25
REMARK   14  A    between atoms: O_25  and  C_26
REMARK   15  A    between atoms: C_27  and  C_28
REMARK                            x       y       z     vdW  Elec       q    Type
REMARK                         _______ _______ _______ _____ _____    ______ ____
ROOT
ATOM      1  C   UNL     1      -0.704   5.767  -1.199  0.00  0.00    +0.119 C 
ATOM      2  C   UNL     1      -1.842   5.354  -2.111  0.00  0.00    +0.247 C 
ATOM      3  O   UNL     1      -3.008   5.671  -2.017  0.00  0.00    -0.273 OA
ATOM      4  N   UNL     1      -1.287   4.561  -3.049  0.00  0.00    -0.222 N 
ATOM      5  C   UNL     1       0.029   4.418  -2.858  0.00  0.00    +0.309 C 
ATOM      6  O   UNL     1       0.747   3.749  -3.575  0.00  0.00    -0.252 OA
ATOM      7  N   UNL     1       0.470   5.096  -1.783  0.00  0.00    -0.284 N 
ATOM      8  H   UNL     1       1.383   5.136  -1.457  0.00  0.00    +0.151 HD
ENDROOT
BRANCH   1  11
ATOM      9  C   UNL     1      -0.279   9.296  -2.678  0.00  0.00    -0.078 C 
ATOM     10  C   UNL     1      -0.402   7.771  -2.664  0.00  0.00    -0.013 C 
ATOM     11  C   UNL     1      -0.520   7.286  -1.216  0.00  0.00    +0.018 C 
ATOM     12  C   UNL     1      -1.729   7.956  -0.558  0.00  0.00    -0.013 C 
ATOM     13  C   UNL     1      -1.569   9.476  -0.634  0.00  0.00    -0.078 C 
ATOM     14  N   UNL     1      -1.485   9.880  -2.054  0.00  0.00    +0.380 N 
ATOM     15  H   UNL     1      -2.317   9.535  -2.548  0.00  0.00    -0.082 HD
BRANCH  14  16
ATOM     16  C   UNL     1      -1.444  11.354  -2.157  0.00  0.00    -0.076 C 
BRANCH  16  18
ATOM     17  C   UNL     1      -3.268  11.315  -3.864  0.00  0.00    +0.005 C 
ATOM     18  C   UNL     1      -1.830  11.755  -3.582  0.00  0.00    -0.030 C 
BRANCH  18  19
ATOM     19  C   UNL     1      -1.724  13.274  -3.731  0.00  0.00    +0.005 C 
BRANCH  19  20
ATOM     20  C   UNL     1      -1.988  13.663  -5.187  0.00  0.00    +0.027 C 
BRANCH  20  21
ATOM     21  C   UNL     1      -1.883  15.160  -5.333  0.00  0.00    -0.028 C 
ATOM     22  C   UNL     1      -1.066  15.675  -6.218  0.00  0.00    -0.080 C 
ATOM     23  C   UNL     1      -0.232  14.772  -7.090  0.00  0.00    +0.038 C 
ATOM     24  C   UNL     1      -0.961  17.171  -6.365  0.00  0.00    +0.038 C 
ENDBRANCH  20  21
ENDBRANCH  19  20
ENDBRANCH  18  19
ENDBRANCH  16  18
ENDBRANCH  14  16
ENDBRANCH   1  11
BRANCH   4  25
ATOM     25  C   UNL     1      -2.033   3.934  -4.143  0.00  0.00    +0.146 C 
BRANCH  25  26
ATOM     26  C   UNL     1      -2.539   2.562  -3.693  0.00  0.00    +0.179 C 
BRANCH  26  27
ATOM     27  O   UNL     1      -3.485   2.726  -2.635  0.00  0.00    -0.381 OA
ATOM     28  C   UNL     1      -4.022   1.498  -2.139  0.00  0.00    +0.194 C 
ENDBRANCH  26  27
ENDBRANCH  25  26
ENDBRANCH   4  25
BRANCH   1  29
ATOM     29  C   UNL     1      -0.952   5.273   0.228  0.00  0.00    +0.070 C 
BRANCH  29  30
ATOM     30  C   UNL     1      -1.059   3.770   0.227  0.00  0.00    -0.042 A 
ATOM     31  C   UNL     1      -2.290   3.165   0.051  0.00  0.00    +0.004 A 
ATOM     32  C   UNL     1      -2.389   1.787   0.044  0.00  0.00    +0.003 A 
ATOM     33  C   UNL     1      -1.260   1.011   0.225  0.00  0.00    +0.038 A 
ATOM     34  C   UNL     1      -0.027   1.615   0.401  0.00  0.00    +0.124 A 
ATOM     35  C   UNL     1       0.072   2.997   0.402  0.00  0.00    +0.042 A 
ATOM     36  F   UNL     1       1.079   0.858   0.572  0.00  0.00    -0.205 F 
ENDBRANCH  29  30
ENDBRANCH   1  29
TORSDOF 11
