REMARK  Name = ZINC34998524
REMARK  12 active torsions:
REMARK  status: ('A' for Active; 'I' for Inactive)
REMARK    1  A    between atoms: C_1  and  C_2
REMARK    2  A    between atoms: C_9  and  C_11
REMARK    3  A    between atoms: C_11  and  C_12
REMARK    4  A    between atoms: C_12  and  C_13
REMARK    5  A    between atoms: C_18  and  C_20
REMARK    6  A    between atoms: C_20  and  C_22
REMARK    7  A    between atoms: C_20  and  N_25
REMARK    8  A    between atoms: C_22  and  C_23
REMARK    9  A    between atoms: C_22  and  C_24
REMARK   10  A    between atoms: C_26  and  C_28
REMARK   11  A    between atoms: C_29  and  C_30
REMARK   12  A    between atoms: C_33  and  N_36
REMARK                            x       y       z     vdW  Elec       q    Type
REMARK                         _______ _______ _______ _____ _____    ______ ____
ROOT
ATOM      1  C   UNL     1      -3.819   0.586   2.807  0.00  0.00    +0.162 C 
ENDROOT
BRANCH   1  11
ATOM      2  C   UNL     1      -0.136   1.922   0.040  0.00  0.00    +0.029 C 
ATOM      3  C   UNL     1       0.151   0.425   0.168  0.00  0.00    +0.090 C 
ATOM      4  C   UNL     1      -1.170  -0.353   0.195  0.00  0.00    +0.130 C 
ATOM      5  N   UNL     1      -1.847  -0.084   1.471  0.00  0.00    -0.297 N 
ATOM      6  C   UNL     1      -1.125  -0.342   2.725  0.00  0.00    +0.127 C 
ATOM      7  C   UNL     1       0.197   0.436   2.697  0.00  0.00    +0.127 C 
ATOM      8  N   UNL     1       0.878   0.167   1.419  0.00  0.00    -0.296 N 
ATOM      9  C   UNL     1       2.139  -0.309   1.395  0.00  0.00    +0.216 C 
ATOM     10  O   UNL     1       2.684  -0.528   0.334  0.00  0.00    -0.276 OA
ATOM     11  C   UNL     1      -3.108   0.392   1.492  0.00  0.00    +0.236 C 
ATOM     12  O   UNL     1      -3.671   0.663   0.452  0.00  0.00    -0.274 OA
BRANCH   9  13
ATOM     13  C   UNL     1       2.871  -0.568   2.686  0.00  0.00    +0.096 C 
BRANCH  13  14
ATOM     14  C   UNL     1       4.272  -1.100   2.380  0.00  0.00    +0.013 C 
BRANCH  14  15
ATOM     15  C   UNL     1       5.016  -1.364   3.691  0.00  0.00    -0.011 C 
ATOM     16  C   UNL     1       5.309  -0.030   4.409  0.00  0.00    +0.003 C 
ATOM     17  C   UNL     1       6.709  -0.237   5.038  0.00  0.00    +0.000 C 
ATOM     18  C   UNL     1       7.453  -1.056   3.954  0.00  0.00    +0.000 C 
ATOM     19  C   UNL     1       6.379  -2.016   3.402  0.00  0.00    +0.003 C 
ENDBRANCH  14  15
ENDBRANCH  13  14
ENDBRANCH   9  13
ENDBRANCH   1  11
BRANCH   1  20
ATOM     20  N   UNL     1      -4.846   1.620   2.658  0.00  0.00    -0.300 N 
ATOM     21  C   UNL     1      -5.256   2.321   3.734  0.00  0.00    +0.238 C 
ATOM     22  O   UNL     1      -4.773   2.095   4.828  0.00  0.00    -0.271 OA
ATOM     23  H   UNL     1      -5.230   1.800   1.786  0.00  0.00    +0.150 HD
BRANCH  21  24
ATOM     24  C   UNL     1      -6.282   3.355   3.586  0.00  0.00    +0.068 C 
ATOM     25  C   UNL     1      -6.692   4.057   4.661  0.00  0.00    +0.013 C 
BRANCH  25  26
ATOM     26  C   UNL     1      -7.724   5.096   4.513  0.00  0.00    -0.025 A 
ATOM     27  C   UNL     1      -8.285   5.355   3.258  0.00  0.00    +0.010 A 
ATOM     28  C   UNL     1      -9.251   6.330   3.127  0.00  0.00    +0.033 A 
ATOM     29  C   UNL     1      -9.666   7.052   4.232  0.00  0.00    +0.126 A 
ATOM     30  C   UNL     1      -9.115   6.802   5.477  0.00  0.00    +0.033 A 
ATOM     31  C   UNL     1      -8.152   5.826   5.626  0.00  0.00    +0.010 A 
BRANCH  29  32
ATOM     32  N   UNL     1     -10.703   8.097   4.083  0.00  0.00    +0.056 N 
ATOM     33  O   UNL     1     -11.186   8.318   2.997  0.00  0.00    -0.126 OA
ATOM     34  O   UNL     1     -11.068   8.729   5.047  0.00  0.00    -0.126 OA
ENDBRANCH  29  32
ENDBRANCH  25  26
ENDBRANCH  21  24
ENDBRANCH   1  20
BRANCH   1  35
ATOM     35  C   UNL     1      -4.477  -0.729   3.230  0.00  0.00    +0.012 C 
ATOM     36  C   UNL     1      -3.400  -1.798   3.428  0.00  0.00    +0.009 C 
ATOM     37  C   UNL     1      -5.235  -0.520   4.542  0.00  0.00    +0.009 C 
ENDBRANCH   1  35
TORSDOF 9
