REMARK  Name = ZINC38847395
REMARK  11 active torsions:
REMARK  status: ('A' for Active; 'I' for Inactive)
REMARK    1  A    between atoms: C_1  and  C_2
REMARK    2  A    between atoms: C_2  and  C_3
REMARK    3  A    between atoms: N_12  and  C_13
REMARK    4  A    between atoms: C_13  and  C_14
REMARK    5  A    between atoms: C_14  and  N_15
REMARK    6  A    between atoms: N_15  and  C_16
REMARK    7  A    between atoms: N_15  and  C_17
REMARK    8  A    between atoms: C_18  and  C_20
REMARK    9  A    between atoms: N_23  and  S_26
REMARK   10  A    between atoms: S_26  and  C_29
REMARK   11  A    between atoms: C_32  and  C_35
REMARK                            x       y       z     vdW  Elec       q    Type
REMARK                         _______ _______ _______ _____ _____    ______ ____
ROOT
ATOM      1  C   UNL     1       0.622  -2.079  -0.906  0.00  0.00    -0.046 A 
ATOM      2  C   UNL     1      -0.043  -2.646  -1.984  0.00  0.00    +0.006 A 
ATOM      3  C   UNL     1       0.611  -2.957  -3.147  0.00  0.00    +0.029 A 
ATOM      4  C   UNL     1       1.996  -2.708  -3.285  0.00  0.00    +0.080 A 
ATOM      5  C   UNL     1       2.641  -2.131  -2.167  0.00  0.00    +0.041 A 
ATOM      6  C   UNL     1       1.976  -1.818  -1.009  0.00  0.00    +0.021 A 
ATOM      7  S   UNL     1       4.319  -1.985  -2.733  0.00  0.00    -0.052 S 
ATOM      8  C   UNL     1       4.068  -2.676  -4.362  0.00  0.00    +0.168 A 
ATOM      9  N   UNL     1       2.785  -2.953  -4.354  0.00  0.00    -0.224 NA
ATOM     10  N   UNL     1       4.993  -2.870  -5.375  0.00  0.00    -0.252 N 
ATOM     11  C   UNL     1       6.302  -2.648  -5.145  0.00  0.00    +0.224 C 
ATOM     12  O   UNL     1       7.098  -2.714  -6.057  0.00  0.00    -0.275 OA
ENDROOT
BRANCH  11  13
ATOM     13  C   UNL     1       6.777  -2.317  -3.754  0.00  0.00    +0.078 C 
ATOM     14  C   UNL     1       6.659  -0.809  -3.520  0.00  0.00    +0.030 C 
ATOM     15  C   UNL     1       7.109  -0.480  -2.093  0.00  0.00    +0.110 C 
ATOM     16  N   UNL     1       8.461  -1.019  -1.888  0.00  0.00    -0.177 NA
ATOM     17  C   UNL     1       8.706  -2.440  -2.171  0.00  0.00    +0.110 C 
ATOM     18  C   UNL     1       8.237  -2.746  -3.597  0.00  0.00    +0.030 C 
BRANCH  16  19
ATOM     19  S   UNL     1       9.685  -0.043  -1.349  0.00  0.00    +0.061 S 
ATOM     20  O   UNL     1      10.901  -0.643  -1.776  0.00  0.00    -0.153 OA
ATOM     21  O   UNL     1       9.328   1.287  -1.699  0.00  0.00    -0.153 OA
BRANCH  19  22
ATOM     22  C   UNL     1       9.676  -0.120   0.411  0.00  0.00    +0.105 A 
ATOM     23  C   UNL     1       8.912   0.773   1.138  0.00  0.00    +0.029 A 
ATOM     24  C   UNL     1       8.905   0.713   2.519  0.00  0.00    +0.005 A 
ATOM     25  C   UNL     1       9.662  -0.242   3.173  0.00  0.00    -0.050 A 
ATOM     26  C   UNL     1      10.425  -1.136   2.446  0.00  0.00    +0.005 A 
ATOM     27  C   UNL     1      10.428  -1.079   1.065  0.00  0.00    +0.029 A 
ATOM     28  C   UNL     1       9.655  -0.307   4.679  0.00  0.00    +0.044 C 
ENDBRANCH  19  22
ENDBRANCH  16  19
ENDBRANCH  11  13
BRANCH   1  30
ATOM     29  C   UNL     1      -0.670  -0.321   0.272  0.00  0.00    +0.009 C 
ATOM     30  C   UNL     1      -0.124  -1.748   0.360  0.00  0.00    +0.032 C 
ENDBRANCH   1  30
BRANCH  10  31
ATOM     31  C   UNL     1       4.547  -3.317  -6.698  0.00  0.00    +0.097 C 
BRANCH  31  32
ATOM     32  C   UNL     1       4.139  -2.103  -7.535  0.00  0.00    -0.060 C 
BRANCH  32  33
ATOM     33  N   UNL     1       3.693  -2.551  -8.861  0.00  0.00    +0.377 N 
ATOM     34  C   UNL     1       2.471  -3.354  -8.721  0.00  0.00    -0.097 C 
ATOM     35  C   UNL     1       3.415  -1.381  -9.705  0.00  0.00    -0.097 C 
ATOM     36  H   UNL     1       4.415  -3.110  -9.289  0.00  0.00    -0.083 HD
ENDBRANCH  32  33
ENDBRANCH  31  32
ENDBRANCH  10  31
TORSDOF 7
