REMARK  Name = ZINC39710078
REMARK  7 active torsions:
REMARK  status: ('A' for Active; 'I' for Inactive)
REMARK    1  A    between atoms: C_4  and  C_7
REMARK    2  A    between atoms: C_8  and  C_9
REMARK    3  A    between atoms: N_11  and  C_12
REMARK    4  A    between atoms: C_18  and  C_19
REMARK    5  A    between atoms: N_21  and  C_22
REMARK    6  A    between atoms: C_22  and  C_23
REMARK    7  A    between atoms: C_23  and  C_24
REMARK                            x       y       z     vdW  Elec       q    Type
REMARK                         _______ _______ _______ _____ _____    ______ ____
ROOT
ATOM      1  C   UNL     1       6.029  -4.885   0.013  0.00  0.00    +0.219 C 
ATOM      2  N   UNL     1       5.923  -6.347  -0.191  0.00  0.00    -0.320 N 
ATOM      3  C   UNL     1       6.960  -7.098   0.235  0.00  0.00    +0.021 C 
ATOM      4  C   UNL     1       7.834  -6.506   1.329  0.00  0.00    +0.123 C 
ATOM      5  S   UNL     1       7.082  -4.833   1.527  0.00  0.00    -0.114 S 
ATOM      6  C   UNL     1       7.209  -8.318  -0.285  0.00  0.00    +0.086 C 
ATOM      7  H   UNL     1       5.145  -6.747  -0.611  0.00  0.00    +0.148 HD
ENDROOT
BRANCH   1  10
ATOM      8  C   UNL     1       4.569  -2.948   0.244  0.00  0.00    +0.239 C 
ATOM      9  O   UNL     1       5.530  -2.235   0.024  0.00  0.00    -0.271 OA
ATOM     10  N   UNL     1       4.714  -4.288   0.260  0.00  0.00    -0.285 N 
ATOM     11  H   UNL     1       3.948  -4.857   0.435  0.00  0.00    +0.152 HD
BRANCH   8  13
ATOM     12  C   UNL     1       3.110  -1.011   0.475  0.00  0.00    +0.013 C 
ATOM     13  C   UNL     1       3.255  -2.351   0.491  0.00  0.00    +0.068 C 
BRANCH  12  17
ATOM     14  C   UNL     1      -0.697   0.719   1.190  0.00  0.00    +0.000 A 
ATOM     15  C   UNL     1       0.394   1.534   0.942  0.00  0.00    +0.001 A 
ATOM     16  C   UNL     1       1.634   0.979   0.708  0.00  0.00    +0.008 A 
ATOM     17  C   UNL     1       1.789  -0.411   0.724  0.00  0.00    -0.025 A 
ATOM     18  C   UNL     1       0.682  -1.227   0.976  0.00  0.00    +0.008 A 
ATOM     19  C   UNL     1      -0.552  -0.657   1.207  0.00  0.00    +0.001 A 
ENDBRANCH  12  17
ENDBRANCH   8  13
ENDBRANCH   1  10
BRANCH   6  20
ATOM     20  C   UNL     1       6.467  -8.777  -1.397  0.00  0.00    +0.238 C 
ATOM     21  O   UNL     1       5.678  -8.034  -1.952  0.00  0.00    -0.271 OA
ATOM     22  N   UNL     1       6.632 -10.038  -1.843  0.00  0.00    -0.311 N 
ATOM     23  H   UNL     1       7.260 -10.631  -1.401  0.00  0.00    +0.149 HD
BRANCH  22  24
ATOM     24  C   UNL     1       5.863 -10.514  -2.996  0.00  0.00    +0.109 C 
BRANCH  24  25
ATOM     25  C   UNL     1       6.236 -11.968  -3.293  0.00  0.00    +0.056 C 
BRANCH  25  26
ATOM     26  C   UNL     1       5.445 -12.458  -4.478  0.00  0.00    -0.021 A 
ATOM     27  C   UNL     1       5.793 -12.283  -5.890  0.00  0.00    +0.003 A 
ATOM     28  C   UNL     1       6.856 -11.674  -6.560  0.00  0.00    +0.010 A 
ATOM     29  C   UNL     1       6.892 -11.683  -7.926  0.00  0.00    +0.001 A 
ATOM     30  C   UNL     1       5.879 -12.292  -8.654  0.00  0.00    +0.002 A 
ATOM     31  C   UNL     1       4.821 -12.899  -8.013  0.00  0.00    +0.026 A 
ATOM     32  C   UNL     1       4.764 -12.903  -6.624  0.00  0.00    +0.047 A 
ATOM     33  N   UNL     1       3.866 -13.411  -5.713  0.00  0.00    -0.360 N 
ATOM     34  C   UNL     1       4.290 -13.142  -4.440  0.00  0.00    +0.087 A 
ATOM     35  H   UNL     1       3.054 -13.892  -5.939  0.00  0.00    +0.165 HD
ENDBRANCH  25  26
ENDBRANCH  24  25
ENDBRANCH  22  24
ENDBRANCH   6  20
TORSDOF 7
