REMARK  Name = ZINC01087548
REMARK  9 active torsions:
REMARK  status: ('A' for Active; 'I' for Inactive)
REMARK    1  A    between atoms: C_1  and  O_2
REMARK    2  A    between atoms: O_2  and  C_3
REMARK    3  A    between atoms: C_4  and  O_28
REMARK    4  A    between atoms: C_7  and  C_12
REMARK    5  A    between atoms: C_8  and  N_9
REMARK    6  A    between atoms: N_13  and  N_14
REMARK    7  A    between atoms: C_15  and  C_17
REMARK    8  A    between atoms: C_17  and  O_18
REMARK    9  A    between atoms: O_18  and  C_19
REMARK                            x       y       z     vdW  Elec       q    Type
REMARK                         _______ _______ _______ _____ _____    ______ ____
ROOT
ATOM      1  C   UNL     1       4.009  -1.851  -2.043  0.00  0.00    +0.140 C 
ATOM      2  N   UNL     1       4.703  -1.559  -0.985  0.00  0.00    -0.188 NA
ENDROOT
BRANCH   1   7
ATOM      3  C   UNL     1       0.606  -0.608  -1.056  0.00  0.00    +0.192 A 
ATOM      4  C   UNL     1      -0.134  -0.922  -2.195  0.00  0.00    +0.161 A 
ATOM      5  C   UNL     1       0.479  -1.538  -3.276  0.00  0.00    +0.050 A 
ATOM      6  C   UNL     1       1.824  -1.841  -3.231  0.00  0.00    +0.015 A 
ATOM      7  C   UNL     1       2.572  -1.528  -2.093  0.00  0.00    +0.029 A 
ATOM      8  C   UNL     1       1.955  -0.903  -1.006  0.00  0.00    +0.180 A 
BRANCH   8   9
ATOM      9  N   UNL     1       2.744  -0.564   0.200  0.00  0.00    +0.061 N 
ATOM     10  O   UNL     1       2.845  -1.363   1.101  0.00  0.00    -0.126 OA
ATOM     11  O   UNL     1       3.287   0.513   0.284  0.00  0.00    -0.126 OA
ENDBRANCH   8   9
BRANCH   3  13
ATOM     12  C   UNL     1      -0.017   1.425   0.010  0.00  0.00    +0.277 C 
ATOM     13  O   UNL     1       0.002  -0.004   0.002  0.00  0.00    -0.489 OA
ENDBRANCH   3  13
BRANCH   4  14
ATOM     14  O   UNL     1      -1.460  -0.626  -2.244  0.00  0.00    -0.503 OA
ATOM     15  H   UNL     1      -1.654   0.251  -2.601  0.00  0.00    +0.292 HD
ENDBRANCH   4  14
ENDBRANCH   1   7
BRANCH   2  16
ATOM     16  N   UNL     1       6.069  -1.866  -0.937  0.00  0.00    -0.204 N 
ATOM     17  C   UNL     1       6.789  -1.564   0.162  0.00  0.00    +0.270 C 
ATOM     18  O   UNL     1       6.255  -1.026   1.108  0.00  0.00    -0.270 OA
ATOM     19  H   UNL     1       6.497  -2.296  -1.694  0.00  0.00    +0.177 HD
BRANCH  17  20
ATOM     20  C   UNL     1       8.259  -1.894   0.213  0.00  0.00    +0.326 C 
BRANCH  20  21
ATOM     21  O   UNL     1       8.796  -1.479   1.471  0.00  0.00    -0.480 OA
BRANCH  21  22
ATOM     22  C   UNL     1      10.120  -1.705   1.681  0.00  0.00    +0.149 A 
ATOM     23  C   UNL     1      10.539  -2.900   2.249  0.00  0.00    +0.062 A 
ATOM     24  C   UNL     1      11.886  -3.128   2.463  0.00  0.00    +0.034 A 
ATOM     25  C   UNL     1      12.815  -2.166   2.110  0.00  0.00    +0.020 A 
ATOM     26  C   UNL     1      12.400  -0.975   1.543  0.00  0.00    +0.034 A 
ATOM     27  C   UNL     1      11.055  -0.744   1.323  0.00  0.00    +0.062 A 
ATOM     28 BR   UNL     1      10.489   0.882   0.541  0.00  0.00    -0.046 Br
ATOM     29 BR   UNL     1      14.657  -2.481   2.403  0.00  0.00    -0.050 Br
ATOM     30 BR   UNL     1       9.268  -4.215   2.732  0.00  0.00    -0.046 Br
ENDBRANCH  21  22
ENDBRANCH  20  21
ENDBRANCH  17  20
ENDBRANCH   2  16
TORSDOF 8
