REMARK  Name = ZINC35361912
REMARK  7 active torsions:
REMARK  status: ('A' for Active; 'I' for Inactive)
REMARK    1  A    between atoms: C_1  and  C_2
REMARK    2  A    between atoms: N_6  and  N_7
REMARK    3  A    between atoms: N_7  and  C_8
REMARK    4  A    between atoms: C_8  and  N_10
REMARK    5  A    between atoms: C_22  and  C_35
REMARK    6  A    between atoms: C_23  and  O_34
REMARK    7  A    between atoms: C_26  and  C_28
REMARK                            x       y       z     vdW  Elec       q    Type
REMARK                         _______ _______ _______ _____ _____    ______ ____
ROOT
ATOM      1  C   UNL     1      -0.629   2.502  -0.453  0.00  0.00    +0.012 C 
ATOM      2  C   UNL     1      -0.662   1.010  -0.116  0.00  0.00    -0.025 C 
ATOM      3  C   UNL     1      -2.107   0.505  -0.176  0.00  0.00    +0.013 C 
ATOM      4  C   UNL     1      -2.978   1.329   0.777  0.00  0.00    +0.053 C 
ATOM      5  C   UNL     1      -2.361   1.268   2.157  0.00  0.00    +0.037 C 
ATOM      6  N   UNL     1      -3.060   0.933   3.176  0.00  0.00    -0.190 NA
ATOM      7  C   UNL     1      -0.897   1.615   2.300  0.00  0.00    +0.056 C 
ATOM      8  C   UNL     1      -0.092   0.790   1.286  0.00  0.00    +0.001 C 
ATOM      9  C   UNL     1       1.367   1.253   1.329  0.00  0.00    +0.005 C 
ATOM     10  C   UNL     1       2.188   0.464   0.308  0.00  0.00    +0.007 C 
ATOM     11  C   UNL     1       1.623   0.710  -1.093  0.00  0.00    +0.025 C 
ATOM     12  C   UNL     1       0.172   0.236  -1.142  0.00  0.00    +0.001 C 
ATOM     13  C   UNL     1      -0.381   0.508  -2.545  0.00  0.00    +0.005 C 
ATOM     14  C   UNL     1       0.413  -0.320  -3.551  0.00  0.00    +0.010 C 
ATOM     15  C   UNL     1       1.886   0.095  -3.554  0.00  0.00    +0.004 C 
ATOM     16  C   UNL     1       2.459   0.003  -2.131  0.00  0.00    +0.075 C 
ATOM     17  C   UNL     1       2.578  -1.510  -1.868  0.00  0.00    +0.036 C 
ATOM     18  C   UNL     1       3.050  -2.075  -3.228  0.00  0.00    +0.011 C 
ATOM     19  C   UNL     1       2.661  -1.018  -4.308  0.00  0.00    +0.027 C 
ATOM     20  C   UNL     1       2.087   1.469  -4.196  0.00  0.00    +0.014 C 
ENDROOT
BRANCH  19  21
ATOM     21  C   UNL     1       3.870  -0.434  -4.994  0.00  0.00    -0.022 C 
ATOM     22  C   UNL     1       4.072  -0.346  -6.306  0.00  0.00    +0.094 C 
ATOM     23  C   UNL     1       5.372   0.288  -6.548  0.00  0.00    +0.332 C 
ATOM     24  O   UNL     1       5.848   0.512  -7.644  0.00  0.00    -0.246 OA
ATOM     25  O   UNL     1       5.959   0.585  -5.374  0.00  0.00    -0.457 OA
ATOM     26  C   UNL     1       5.081   0.170  -4.323  0.00  0.00    +0.264 C 
ENDBRANCH  19  21
BRANCH   6  27
ATOM     27  N   UNL     1      -4.442   0.745   3.046  0.00  0.00    -0.219 N 
ATOM     28  H   UNL     1      -4.860   0.805   2.173  0.00  0.00    +0.176 HD
BRANCH  27  29
ATOM     29  C   UNL     1      -5.192   0.481   4.135  0.00  0.00    +0.147 C 
ATOM     30  S   UNL     1      -6.881   0.252   3.977  0.00  0.00    -0.017 S 
BRANCH  29  31
ATOM     31  N   UNL     1      -4.611   0.398   5.349  0.00  0.00    -0.339 N 
ATOM     32  H   UNL     1      -3.654   0.528   5.439  0.00  0.00    +0.144 HD
ATOM     33  H   UNL     1      -5.150   0.208   6.132  0.00  0.00    +0.144 HD
ENDBRANCH  29  31
ENDBRANCH  27  29
ENDBRANCH   6  27
BRANCH  16  34
ATOM     34  O   UNL     1       3.772   0.566  -2.139  0.00  0.00    -0.388 OA
ATOM     35  H   UNL     1       4.234   0.501  -1.292  0.00  0.00    +0.210 HD
ENDBRANCH  16  34
TORSDOF 5
