REMARK  Name = ZINC12881350
REMARK  6 active torsions:
REMARK  status: ('A' for Active; 'I' for Inactive)
REMARK    1  A    between atoms: C_4  and  C_7
REMARK    2  A    between atoms: C_7  and  C_8
REMARK    3  A    between atoms: C_8  and  N_9
REMARK    4  A    between atoms: C_14  and  C_30
REMARK    5  A    between atoms: C_30  and  C_31
REMARK    6  A    between atoms: C_34  and  O_37
REMARK                            x       y       z     vdW  Elec       q    Type
REMARK                         _______ _______ _______ _____ _____    ______ ____
ROOT
ATOM      1  N   UNL     1       0.886  -3.436  -1.335  0.00  0.00    -0.241 N 
ATOM      2  C   UNL     1       2.119  -3.628  -0.852  0.00  0.00    +0.224 C 
ATOM      3  O   UNL     1       2.595  -4.702  -0.553  0.00  0.00    -0.275 OA
ATOM      4  C   UNL     1       2.827  -2.297  -0.739  0.00  0.00    +0.073 C 
ATOM      5  C   UNL     1       3.031  -1.954   0.752  0.00  0.00    -0.053 C 
ATOM      6  C   UNL     1       1.448  -0.416  -0.014  0.00  0.00    +0.050 C 
ATOM      7  C   UNL     1       1.776  -1.269  -1.245  0.00  0.00    +0.088 C 
ATOM      8  C   UNL     1       0.582  -2.158  -1.590  0.00  0.00    +0.225 C 
ATOM      9  O   UNL     1      -0.476  -1.764  -2.031  0.00  0.00    -0.275 OA
ATOM     10  C   UNL     1       2.222   0.872  -0.015  0.00  0.00    -0.028 A 
ATOM     11  C   UNL     1       3.566   1.170  -0.025  0.00  0.00    +0.004 A 
ATOM     12  C   UNL     1       3.983   2.490  -0.023  0.00  0.00    +0.000 A 
ATOM     13  C   UNL     1       3.046   3.507  -0.009  0.00  0.00    +0.002 A 
ATOM     14  C   UNL     1       1.698   3.213   0.003  0.00  0.00    +0.023 A 
ATOM     15  C   UNL     1       1.270   1.887   0.000  0.00  0.00    +0.036 A 
ATOM     16  N   UNL     1      -0.016   1.343   0.009  0.00  0.00    -0.286 N 
ATOM     17  C   UNL     1       0.002  -0.004   0.002  0.00  0.00    +0.211 C 
ATOM     18  O   UNL     1      -0.961  -0.741   0.007  0.00  0.00    -0.277 OA
ATOM     19  H   UNL     1      -0.828   1.873   0.016  0.00  0.00    +0.155 HD
ATOM     20  N   UNL     1       1.804  -1.246   1.124  0.00  0.00    +0.394 N 
ATOM     21  H   UNL     1       1.969  -0.661   1.952  0.00  0.00    -0.083 HD
ATOM     22  H   UNL     1       1.054  -1.917   1.323  0.00  0.00    -0.083 HD
ENDROOT
BRANCH   1  23
ATOM     23  C   UNL     1      -0.055  -4.535  -1.566  0.00  0.00    +0.121 C 
BRANCH  23  24
ATOM     24  C   UNL     1      -0.885  -4.769  -0.302  0.00  0.00    +0.054 C 
BRANCH  24  28
ATOM     25  C   UNL     1      -3.628  -7.975  -0.975  0.00  0.00    +0.000 A 
ATOM     26  C   UNL     1      -2.366  -8.238  -0.474  0.00  0.00    +0.000 A 
ATOM     27  C   UNL     1      -1.479  -7.200  -0.256  0.00  0.00    +0.004 A 
ATOM     28  C   UNL     1      -1.853  -5.900  -0.540  0.00  0.00    -0.046 A 
ATOM     29  C   UNL     1      -3.116  -5.636  -1.036  0.00  0.00    +0.004 A 
ATOM     30  C   UNL     1      -4.002  -6.674  -1.258  0.00  0.00    +0.000 A 
ENDBRANCH  24  28
ENDBRANCH  23  24
ENDBRANCH   1  23
BRANCH   5  31
ATOM     31  C   UNL     1       3.209  -3.232   1.573  0.00  0.00    +0.020 C 
BRANCH  31  32
ATOM     32  C   UNL     1       3.454  -2.873   3.016  0.00  0.00    -0.049 A 
ATOM     33  C   UNL     1       4.746  -2.684   3.470  0.00  0.00    +0.007 A 
ATOM     34  C   UNL     1       4.973  -2.349   4.791  0.00  0.00    +0.045 A 
ATOM     35  C   UNL     1       3.904  -2.213   5.664  0.00  0.00    +0.117 A 
ATOM     36  C   UNL     1       2.609  -2.409   5.207  0.00  0.00    +0.045 A 
ATOM     37  C   UNL     1       2.387  -2.739   3.884  0.00  0.00    +0.007 A 
BRANCH  35  38
ATOM     38  O   UNL     1       4.125  -1.889   6.965  0.00  0.00    -0.507 OA
ATOM     39  H   UNL     1       4.246  -2.652   7.546  0.00  0.00    +0.292 HD
ENDBRANCH  35  38
ENDBRANCH  31  32
ENDBRANCH   5  31
TORSDOF 6
