REMARK  Name = ZINC39763448
REMARK  8 active torsions:
REMARK  status: ('A' for Active; 'I' for Inactive)
REMARK    1  A    between atoms: C_1  and  C_2
REMARK    2  A    between atoms: C_5  and  C_8
REMARK    3  A    between atoms: C_8  and  N_9
REMARK    4  A    between atoms: C_12  and  C_15
REMARK    5  A    between atoms: N_17  and  C_18
REMARK    6  A    between atoms: C_21  and  S_24
REMARK    7  A    between atoms: S_24  and  N_27
REMARK    8  A    between atoms: N_27  and  C_28
REMARK                            x       y       z     vdW  Elec       q    Type
REMARK                         _______ _______ _______ _____ _____    ______ ____
ROOT
ATOM      1  C   UNL     1       4.959  -6.561   0.215  0.00  0.00    +0.220 C 
ATOM      2  O   UNL     1       5.828  -5.715   0.244  0.00  0.00    -0.275 OA
ATOM      3  N   UNL     1       5.290  -7.867   0.199  0.00  0.00    -0.285 N 
ATOM      4  H   UNL     1       4.597  -8.544   0.244  0.00  0.00    +0.155 HD
ENDROOT
BRANCH   1   8
ATOM      5  N   UNL     1       1.367  -4.723  -1.132  0.00  0.00    +0.382 N 
ATOM      6  C   UNL     1       1.937  -4.213   0.120  0.00  0.00    -0.078 C 
ATOM      7  C   UNL     1       3.408  -4.623   0.220  0.00  0.00    -0.006 C 
ATOM      8  C   UNL     1       3.509  -6.151   0.196  0.00  0.00    +0.072 C 
ATOM      9  C   UNL     1       2.845  -6.677  -1.079  0.00  0.00    -0.006 C 
ATOM     10  C   UNL     1       1.395  -6.191  -1.131  0.00  0.00    -0.078 C 
ATOM     11  H   UNL     1       1.908  -4.378  -1.911  0.00  0.00    -0.081 HD
BRANCH   5  12
ATOM     12  C   UNL     1      -0.022  -4.262  -1.260  0.00  0.00    -0.043 C 
BRANCH  12  17
ATOM     13  C   UNL     1      -0.104   1.496  -1.740  0.00  0.00    +0.044 C 
ATOM     14  C   UNL     1      -0.083  -0.005  -1.615  0.00  0.00    -0.050 A 
ATOM     15  C   UNL     1       0.005  -0.792  -2.748  0.00  0.00    +0.003 A 
ATOM     16  C   UNL     1       0.025  -2.169  -2.633  0.00  0.00    +0.002 A 
ATOM     17  C   UNL     1      -0.043  -2.760  -1.385  0.00  0.00    -0.064 A 
ATOM     18  C   UNL     1      -0.129  -1.973  -0.252  0.00  0.00    +0.002 A 
ATOM     19  C   UNL     1      -0.145  -0.596  -0.366  0.00  0.00    +0.003 A 
ENDBRANCH  12  17
ENDBRANCH   5  12
ENDBRANCH   1   8
BRANCH   3  20
ATOM     20  C   UNL     1       6.635  -8.247   0.117  0.00  0.00    +0.034 A 
ATOM     21  C   UNL     1       6.996  -9.378  -0.603  0.00  0.00    +0.025 A 
ATOM     22  C   UNL     1       8.323  -9.750  -0.682  0.00  0.00    +0.030 A 
ATOM     23  C   UNL     1       9.293  -8.998  -0.044  0.00  0.00    +0.109 A 
ATOM     24  C   UNL     1       8.937  -7.871   0.675  0.00  0.00    +0.030 A 
ATOM     25  C   UNL     1       7.611  -7.490   0.752  0.00  0.00    +0.025 A 
BRANCH  23  26
ATOM     26  S   UNL     1      10.986  -9.476  -0.146  0.00  0.00    +0.072 S 
ATOM     27  O   UNL     1      11.609  -9.022   1.047  0.00  0.00    -0.150 OA
ATOM     28  O   UNL     1      10.999 -10.841  -0.541  0.00  0.00    -0.150 OA
BRANCH  26  29
ATOM     29  N   UNL     1      11.662  -8.617  -1.390  0.00  0.00    -0.216 N 
ATOM     30  H   UNL     1      12.378  -7.987  -1.211  0.00  0.00    +0.174 HD
BRANCH  29  31
ATOM     31  C   UNL     1      11.202  -8.800  -2.698  0.00  0.00    +0.048 A 
ATOM     32  C   UNL     1      10.985 -10.081  -3.186  0.00  0.00    +0.027 A 
ATOM     33  C   UNL     1      10.530 -10.259  -4.478  0.00  0.00    +0.040 A 
ATOM     34  C   UNL     1      10.291  -9.161  -5.286  0.00  0.00    +0.124 A 
ATOM     35  C   UNL     1      10.507  -7.882  -4.801  0.00  0.00    +0.040 A 
ATOM     36  C   UNL     1      10.957  -7.699  -3.508  0.00  0.00    +0.027 A 
ATOM     37  F   UNL     1       9.846  -9.338  -6.550  0.00  0.00    -0.205 F 
ENDBRANCH  29  31
ENDBRANCH  26  29
ENDBRANCH  23  26
ENDBRANCH   3  20
TORSDOF 7
