REMARK  Name = ZINC27228651
REMARK  14 active torsions:
REMARK  status: ('A' for Active; 'I' for Inactive)
REMARK    1  A    between atoms: N_9  and  C_10
REMARK    2  A    between atoms: C_10  and  C_11
REMARK    3  A    between atoms: C_11  and  C_13
REMARK    4  A    between atoms: C_11  and  O_31
REMARK    5  A    between atoms: C_13  and  N_14
REMARK    6  A    between atoms: N_14  and  C_15
REMARK    7  A    between atoms: N_14  and  C_18
REMARK    8  A    between atoms: C_15  and  C_16
REMARK    9  A    between atoms: C_16  and  O_17
REMARK   10  A    between atoms: C_18  and  C_19
REMARK   11  A    between atoms: C_19  and  C_21
REMARK   12  A    between atoms: C_19  and  O_30
REMARK   13  A    between atoms: C_21  and  O_22
REMARK   14  A    between atoms: O_22  and  C_23
REMARK                            x       y       z     vdW  Elec       q    Type
REMARK                         _______ _______ _______ _____ _____    ______ ____
ROOT
ATOM      1  N   UNL     1      -6.139   3.133   2.910  0.00  0.00    +0.385 N 
ATOM      2  H   UNL     1      -5.582   2.375   3.481  0.00  0.00    -0.082 HD
ENDROOT
BRANCH   1   3
ATOM      3  C   UNL     1      -5.775   2.988   1.494  0.00  0.00    -0.045 C 
BRANCH   3   4
ATOM      4  C   UNL     1      -4.252   3.003   1.355  0.00  0.00    +0.118 C 
BRANCH   4   5
ATOM      5  O   UNL     1      -3.703   1.855   2.005  0.00  0.00    -0.392 OA
ATOM      6  H   UNL     1      -3.870   1.700   3.081  0.00  0.00    +0.210 HD
ENDBRANCH   4   5
BRANCH   4   7
ATOM      7  C   UNL     1      -3.875   2.978  -0.128  0.00  0.00    +0.151 C 
BRANCH   7  16
ATOM      8  C   UNL     1       0.729   0.448  -0.157  0.00  0.00    +0.001 A 
ATOM      9  C   UNL     1      -0.534  -0.098   0.021  0.00  0.00    +0.002 A 
ATOM     10  C   UNL     1      -1.656   0.701  -0.002  0.00  0.00    +0.026 A 
ATOM     11  C   UNL     1      -1.522   2.073  -0.196  0.00  0.00    +0.049 A 
ATOM     12  C   UNL     1      -0.240   2.622  -0.376  0.00  0.00    -0.000 A 
ATOM     13  C   UNL     1       0.883   1.792  -0.354  0.00  0.00    +0.010 A 
ATOM     14  C   UNL     1      -0.438   4.062  -0.559  0.00  0.00    +0.027 A 
ATOM     15  C   UNL     1      -1.759   4.289  -0.482  0.00  0.00    +0.087 A 
ATOM     16  N   UNL     1      -2.423   3.112  -0.265  0.00  0.00    -0.344 N 
ENDBRANCH   7  16
ENDBRANCH   4   7
ENDBRANCH   3   4
ENDBRANCH   1   3
BRANCH   1  17
ATOM     17  C   UNL     1      -5.753   4.455   3.420  0.00  0.00    -0.050 C 
BRANCH  17  18
ATOM     18  C   UNL     1      -6.349   5.542   2.522  0.00  0.00    +0.137 C 
BRANCH  18  19
ATOM     19  O   UNL     1      -7.773   5.535   2.647  0.00  0.00    -0.397 OA
ATOM     20  H   UNL     1      -8.378   6.252   2.073  0.00  0.00    +0.209 HD
ENDBRANCH  18  19
ENDBRANCH  17  18
ENDBRANCH   1  17
BRANCH   1  21
ATOM     21  C   UNL     1      -7.573   2.887   3.113  0.00  0.00    -0.044 C 
BRANCH  21  22
ATOM     22  C   UNL     1      -7.889   2.922   4.610  0.00  0.00    +0.135 C 
BRANCH  22  23
ATOM     23  O   UNL     1      -7.203   1.854   5.266  0.00  0.00    -0.390 OA
ATOM     24  H   UNL     1      -7.310   1.717   6.353  0.00  0.00    +0.210 HD
ENDBRANCH  22  23
BRANCH  22  25
ATOM     25  C   UNL     1      -9.397   2.763   4.816  0.00  0.00    +0.258 C 
BRANCH  25  26
ATOM     26  O   UNL     1      -9.706   2.911   6.204  0.00  0.00    -0.489 OA
BRANCH  26  27
ATOM     27  C   UNL     1     -11.012   2.797   6.560  0.00  0.00    +0.121 A 
ATOM     28  C   UNL     1     -11.978   2.554   5.594  0.00  0.00    +0.047 A 
ATOM     29  C   UNL     1     -13.304   2.432   5.959  0.00  0.00    +0.019 A 
ATOM     30  C   UNL     1     -13.672   2.565   7.286  0.00  0.00    +0.018 A 
ATOM     31  C   UNL     1     -12.712   2.814   8.251  0.00  0.00    +0.019 A 
ATOM     32  C   UNL     1     -11.384   2.931   7.890  0.00  0.00    +0.047 A 
ATOM     33 BR   UNL     1     -15.490   2.406   7.782  0.00  0.00    -0.050 Br
ENDBRANCH  26  27
ENDBRANCH  25  26
ENDBRANCH  22  25
ENDBRANCH  21  22
ENDBRANCH   1  21
TORSDOF 14
