REMARK  Name = ZINC13537293
REMARK  6 active torsions:
REMARK  status: ('A' for Active; 'I' for Inactive)
REMARK    1  A    between atoms: C_3  and  O_23
REMARK    2  A    between atoms: C_4  and  O_22
REMARK    3  A    between atoms: C_6  and  C_7
REMARK    4  A    between atoms: C_9  and  O_21
REMARK    5  A    between atoms: C_15  and  O_20
REMARK    6  A    between atoms: C_16  and  O_19
REMARK                            x       y       z     vdW  Elec       q    Type
REMARK                         _______ _______ _______ _____ _____    ______ ____
ROOT
ATOM      1  C   UNL     1       0.002  -0.004   0.002  0.00  0.00    +0.233 C 
ATOM      2  C   UNL     1       0.951  -0.468  -1.110  0.00  0.00    +0.164 C 
ATOM      3  C   UNL     1       2.369  -0.014  -0.753  0.00  0.00    +0.074 C 
ATOM      4  C   UNL     1       2.351   1.441  -0.357  0.00  0.00    +0.001 A 
ATOM      5  C   UNL     1       3.545   2.145  -0.356  0.00  0.00    +0.011 A 
ATOM      6  C   UNL     1       3.572   3.477   0.003  0.00  0.00    +0.049 A 
ATOM      7  C   UNL     1       2.399   4.120   0.367  0.00  0.00    +0.162 A 
ATOM      8  C   UNL     1       1.200   3.421   0.367  0.00  0.00    +0.201 A 
ATOM      9  C   UNL     1       1.176   2.076   0.002  0.00  0.00    +0.170 A 
ATOM     10  O   UNL     1      -0.017   1.424   0.010  0.00  0.00    -0.478 OA
ENDROOT
BRANCH   1  16
ATOM     11  C   UNL     1      -2.196   0.100  -1.189  0.00  0.00    +0.011 A 
ATOM     12  C   UNL     1      -3.468  -0.381  -1.440  0.00  0.00    +0.049 A 
ATOM     13  C   UNL     1      -3.936  -1.490  -0.754  0.00  0.00    +0.158 A 
ATOM     14  C   UNL     1      -3.122  -2.120   0.183  0.00  0.00    +0.159 A 
ATOM     15  C   UNL     1      -1.847  -1.636   0.425  0.00  0.00    +0.056 A 
ATOM     16  C   UNL     1      -1.385  -0.529  -0.263  0.00  0.00    -0.001 A 
BRANCH  14  17
ATOM     17  O   UNL     1      -3.578  -3.209   0.859  0.00  0.00    -0.503 OA
ATOM     18  H   UNL     1      -4.030  -2.997   1.687  0.00  0.00    +0.292 HD
ENDBRANCH  14  17
BRANCH  13  19
ATOM     19  O   UNL     1      -5.189  -1.961  -0.995  0.00  0.00    -0.503 OA
ATOM     20  H   UNL     1      -5.871  -1.571  -0.432  0.00  0.00    +0.292 HD
ENDBRANCH  13  19
ENDBRANCH   1  16
BRANCH   8  21
ATOM     21  O   UNL     1       0.047   4.049   0.723  0.00  0.00    -0.501 OA
ATOM     22  H   UNL     1      -0.421   4.462  -0.017  0.00  0.00    +0.292 HD
ENDBRANCH   8  21
BRANCH   7  23
ATOM     23  O   UNL     1       2.423   5.433   0.724  0.00  0.00    -0.503 OA
ATOM     24  H   UNL     1       2.295   6.043  -0.015  0.00  0.00    +0.292 HD
ENDBRANCH   7  23
BRANCH   2  25
ATOM     25  O   UNL     1       0.913  -1.893  -1.212  0.00  0.00    -0.387 OA
ATOM     26  H   UNL     1       1.492  -2.254  -1.898  0.00  0.00    +0.210 HD
ENDBRANCH   2  25
TORSDOF 6
