REMARK  Name = ZINC00887192
REMARK  9 active torsions:
REMARK  status: ('A' for Active; 'I' for Inactive)
REMARK    1  A    between atoms: C_1  and  C_2
REMARK    2  A    between atoms: C_2  and  C_3
REMARK    3  A    between atoms: C_3  and  C_5
REMARK    4  A    between atoms: C_3  and  N_13
REMARK    5  A    between atoms: N_7  and  C_8
REMARK    6  A    between atoms: N_13  and  C_14
REMARK    7  A    between atoms: C_24  and  C_26
REMARK    8  A    between atoms: C_26  and  N_27
REMARK    9  A    between atoms: C_29  and  C_32
REMARK                            x       y       z     vdW  Elec       q    Type
REMARK                         _______ _______ _______ _____ _____    ______ ____
ROOT
ATOM      1  N   UNL     1       1.403   1.425  -0.202  0.00  0.00    -0.257 N 
ATOM      2  C   UNL     1       2.231   0.368  -0.318  0.00  0.00    +0.244 C 
ATOM      3  O   UNL     1       1.795  -0.759  -0.218  0.00  0.00    -0.273 OA
ENDROOT
BRANCH   1   4
ATOM      4  C   UNL     1       1.888   2.718  -0.405  0.00  0.00    +0.045 A 
ATOM      5  C   UNL     1       1.597   3.394  -1.571  0.00  0.00    +0.024 A 
ATOM      6  C   UNL     1       2.075   4.683  -1.784  0.00  0.00    +0.002 A 
ATOM      7  C   UNL     1       2.842   5.312  -0.850  0.00  0.00    +0.008 A 
ATOM      8  C   UNL     1       3.161   4.658   0.352  0.00  0.00    -0.016 A 
ATOM      9  C   UNL     1       2.675   3.347   0.582  0.00  0.00    +0.004 A 
ATOM     10  C   UNL     1       2.999   2.692   1.781  0.00  0.00    +0.010 A 
ATOM     11  C   UNL     1       3.766   3.328   2.710  0.00  0.00    +0.001 A 
ATOM     12  C   UNL     1       4.241   4.619   2.486  0.00  0.00    +0.001 A 
ATOM     13  C   UNL     1       3.950   5.282   1.333  0.00  0.00    +0.008 A 
ENDBRANCH   1   4
BRANCH   1  14
ATOM     14  C   UNL     1      -0.007   1.216   0.139  0.00  0.00    +0.167 C 
BRANCH  14  15
ATOM     15  C   UNL     1      -0.358   2.041   1.350  0.00  0.00    +0.234 C 
ATOM     16  O   UNL     1       0.485   2.734   1.878  0.00  0.00    -0.274 OA
ATOM     17  N   UNL     1      -1.611   2.007   1.848  0.00  0.00    -0.311 N 
ATOM     18  H   UNL     1      -2.285   1.453   1.426  0.00  0.00    +0.149 HD
BRANCH  17  19
ATOM     19  C   UNL     1      -1.952   2.809   3.026  0.00  0.00    +0.073 C 
ATOM     20  C   UNL     1      -1.653   2.011   4.312  0.00  0.00    +0.022 C 
ATOM     21  C   UNL     1      -2.802   2.400   5.275  0.00  0.00    +0.002 C 
ATOM     22  C   UNL     1      -4.026   2.489   4.330  0.00  0.00    +0.002 C 
ATOM     23  C   UNL     1      -3.461   3.112   3.037  0.00  0.00    +0.022 C 
ENDBRANCH  17  19
ENDBRANCH  14  15
BRANCH  14  25
ATOM     24  C   UNL     1      -0.594   0.743  -2.243  0.00  0.00    +0.006 C 
ATOM     25  C   UNL     1      -0.884   1.642  -1.040  0.00  0.00    +0.029 C 
ENDBRANCH  14  25
ENDBRANCH   1  14
BRANCH   2  26
ATOM     26  C   UNL     1       3.701   0.587  -0.571  0.00  0.00    +0.264 C 
BRANCH  26  27
ATOM     27  N   UNL     1       4.357  -0.705  -0.785  0.00  0.00    -0.154 N 
ATOM     28  N   UNL     1       4.502  -1.287  -1.926  0.00  0.00    -0.129 NA
ATOM     29  C   UNL     1       5.138  -2.425  -1.720  0.00  0.00    +0.211 A 
ATOM     30  N   UNL     1       5.370  -2.501  -0.400  0.00  0.00    -0.107 NA
ATOM     31  N   UNL     1       4.885  -1.433   0.136  0.00  0.00    -0.045 NA
BRANCH  29  32
ATOM     32  C   UNL     1       5.520  -3.422  -2.744  0.00  0.00    +0.060 A 
ATOM     33  C   UNL     1       6.182  -4.610  -2.586  0.00  0.00    +0.019 A 
ATOM     34  C   UNL     1       6.426  -5.385  -3.699  0.00  0.00    +0.008 A 
ATOM     35  C   UNL     1       6.015  -4.944  -4.915  0.00  0.00    +0.046 A 
ATOM     36  S   UNL     1       5.245  -3.385  -4.507  0.00  0.00    -0.093 S 
ENDBRANCH  29  32
ENDBRANCH  26  27
ENDBRANCH   2  26
TORSDOF 8
