REMARK  Name = ZINC02246860
REMARK  12 active torsions:
REMARK  status: ('A' for Active; 'I' for Inactive)
REMARK    1  A    between atoms: C_1  and  C_2
REMARK    2  A    between atoms: C_2  and  C_3
REMARK    3  A    between atoms: C_3  and  N_4
REMARK    4  A    between atoms: N_4  and  C_5
REMARK    5  A    between atoms: C_5  and  C_6
REMARK    6  A    between atoms: C_6  and  C_7
REMARK    7  A    between atoms: C_8  and  C_10
REMARK    8  A    between atoms: C_10  and  S_11
REMARK    9  A    between atoms: S_11  and  C_12
REMARK   10  A    between atoms: N_18  and  C_19
REMARK   11  A    between atoms: C_22  and  O_25
REMARK   12  A    between atoms: O_25  and  C_26
REMARK                            x       y       z     vdW  Elec       q    Type
REMARK                         _______ _______ _______ _____ _____    ______ ____
ROOT
ATOM      1  C   UNL     1      -1.803  -0.410   0.514  0.00  0.00    +0.177 A 
ATOM      2  N   UNL     1      -2.654   0.597   0.548  0.00  0.00    -0.222 NA
ATOM      3  C   UNL     1      -3.898   0.460   0.081  0.00  0.00    +0.083 A 
ATOM      4  C   UNL     1      -4.315  -0.760  -0.434  0.00  0.00    +0.050 A 
ATOM      5  C   UNL     1      -3.410  -1.827  -0.462  0.00  0.00    +0.263 A 
ATOM      6  O   UNL     1      -3.741  -2.915  -0.905  0.00  0.00    -0.267 OA
ATOM      7  N   UNL     1      -2.161  -1.627   0.014  0.00  0.00    -0.256 N 
ATOM      8  C   UNL     1      -5.719  -0.919  -0.943  0.00  0.00    +0.007 C 
ATOM      9  C   UNL     1      -6.118  -2.406  -0.922  0.00  0.00    +0.012 C 
ATOM     10  C   UNL     1      -6.973  -2.587  -2.202  0.00  0.00    +0.001 C 
ATOM     11  C   UNL     1      -6.247  -1.684  -3.230  0.00  0.00    +0.001 C 
ATOM     12  C   UNL     1      -5.801  -0.457  -2.407  0.00  0.00    +0.012 C 
ATOM     13  C   UNL     1      -6.696  -0.112  -0.091  0.00  0.00    +0.047 C 
ATOM     14  C   UNL     1      -6.224   1.314   0.023  0.00  0.00    -0.037 A 
ATOM     15  C   UNL     1      -4.857   1.588   0.100  0.00  0.00    +0.004 A 
ATOM     16  C   UNL     1      -4.415   2.904   0.198  0.00  0.00    +0.010 A 
ATOM     17  C   UNL     1      -5.334   3.934   0.224  0.00  0.00    +0.001 A 
ATOM     18  C   UNL     1      -6.688   3.658   0.152  0.00  0.00    +0.000 A 
ATOM     19  C   UNL     1      -7.132   2.352   0.051  0.00  0.00    +0.004 A 
ENDROOT
BRANCH   7  20
ATOM     20  C   UNL     1      -1.230  -2.675  -0.007  0.00  0.00    +0.052 A 
ATOM     21  C   UNL     1      -0.408  -2.852  -1.112  0.00  0.00    +0.030 A 
ATOM     22  C   UNL     1       0.512  -3.881  -1.129  0.00  0.00    +0.047 A 
ATOM     23  C   UNL     1       0.609  -4.744  -0.047  0.00  0.00    +0.120 A 
ATOM     24  C   UNL     1      -0.216  -4.571   1.055  0.00  0.00    +0.047 A 
ATOM     25  C   UNL     1      -1.133  -3.539   1.076  0.00  0.00    +0.030 A 
BRANCH  23  26
ATOM     26  O   UNL     1       1.511  -5.761  -0.067  0.00  0.00    -0.495 OA
ATOM     27  C   UNL     1       2.328  -5.880  -1.234  0.00  0.00    +0.277 C 
ENDBRANCH  23  26
ENDBRANCH   7  20
BRANCH   1  28
ATOM     28  S   UNL     1      -0.170  -0.179   1.134  0.00  0.00    -0.078 S 
BRANCH  28  29
ATOM     29  C   UNL     1      -0.268   1.555   1.641  0.00  0.00    +0.173 C 
BRANCH  29  31
ATOM     30  N   UNL     1       1.217   3.246   2.667  0.00  0.00    -0.301 N 
ATOM     31  C   UNL     1       1.055   1.985   2.220  0.00  0.00    +0.226 C 
ATOM     32  O   UNL     1       1.974   1.196   2.283  0.00  0.00    -0.275 OA
BRANCH  30  33
ATOM     33  C   UNL     1       0.107   4.199   2.591  0.00  0.00    +0.107 C 
BRANCH  33  35
ATOM     34  C   UNL     1      -1.879   5.117   3.797  0.00  0.00    +0.005 C 
ATOM     35  C   UNL     1      -0.720   4.122   3.876  0.00  0.00    +0.016 C 
ENDBRANCH  33  35
ENDBRANCH  30  33
BRANCH  30  36
ATOM     36  C   UNL     1       2.504   3.664   3.229  0.00  0.00    +0.107 C 
BRANCH  36  37
ATOM     37  C   UNL     1       3.392   4.218   2.114  0.00  0.00    +0.016 C 
ATOM     38  C   UNL     1       4.736   4.654   2.701  0.00  0.00    +0.005 C 
ENDBRANCH  36  37
ENDBRANCH  30  36
ENDBRANCH  29  31
ENDBRANCH  28  29
ENDBRANCH   1  28
TORSDOF 9
