REMARK  Name = ZINC00705634
REMARK  9 active torsions:
REMARK  status: ('A' for Active; 'I' for Inactive)
REMARK    1  A    between atoms: C_1  and  C_2
REMARK    2  A    between atoms: C_2  and  O_3
REMARK    3  A    between atoms: O_3  and  C_4
REMARK    4  A    between atoms: C_7  and  C_10
REMARK    5  A    between atoms: C_12  and  C_31
REMARK    6  A    between atoms: C_13  and  N_30
REMARK    7  A    between atoms: N_14  and  C_22
REMARK    8  A    between atoms: C_25  and  O_28
REMARK    9  A    between atoms: O_28  and  C_29
REMARK                            x       y       z     vdW  Elec       q    Type
REMARK                         _______ _______ _______ _____ _____    ______ ____
ROOT
ATOM      1  C   UNL     1      -2.715   2.239   2.876  0.00  0.00    +0.097 C 
ATOM      2  C   UNL     1      -1.817   1.515   3.833  0.00  0.00    +0.077 C 
ATOM      3  C   UNL     1      -0.503   1.322   3.552  0.00  0.00    +0.107 C 
ATOM      4  N   UNL     1       0.026   1.785   2.369  0.00  0.00    -0.260 N 
ATOM      5  C   UNL     1      -0.791   2.075   1.308  0.00  0.00    +0.024 C 
ATOM      6  C   UNL     1      -2.109   2.297   1.497  0.00  0.00    +0.025 C 
ATOM      7  C   UNL     1      -2.955   2.592   0.414  0.00  0.00    +0.162 C 
ATOM      8  O   UNL     1      -4.141   2.766   0.615  0.00  0.00    -0.292 OA
ATOM      9  C   UNL     1      -2.421   2.697  -0.988  0.00  0.00    +0.080 C 
ATOM     10  C   UNL     1      -0.954   3.137  -0.930  0.00  0.00    +0.014 C 
ATOM     11  C   UNL     1      -0.181   2.135  -0.070  0.00  0.00    +0.052 C 
ENDROOT
BRANCH   1  15
ATOM     12  C   UNL     1      -3.356   6.219   4.293  0.00  0.00    +0.121 A 
ATOM     13  C   UNL     1      -4.428   5.349   4.156  0.00  0.00    +0.046 A 
ATOM     14  C   UNL     1      -4.218   4.063   3.698  0.00  0.00    +0.008 A 
ATOM     15  C   UNL     1      -2.941   3.643   3.376  0.00  0.00    -0.034 A 
ATOM     16  C   UNL     1      -1.871   4.506   3.516  0.00  0.00    +0.008 A 
ATOM     17  C   UNL     1      -2.076   5.795   3.968  0.00  0.00    +0.046 A 
BRANCH  12  18
ATOM     18  O   UNL     1      -3.560   7.485   4.744  0.00  0.00    -0.492 OA
BRANCH  18  20
ATOM     19  C   UNL     1      -2.834   9.701   5.379  0.00  0.00    +0.048 C 
ATOM     20  C   UNL     1      -2.410   8.325   4.860  0.00  0.00    +0.225 C 
ENDBRANCH  18  20
ENDBRANCH  12  18
ENDBRANCH   1  15
BRANCH   4  21
ATOM     21  C   UNL     1       1.411   1.962   2.248  0.00  0.00    +0.040 A 
ATOM     22  C   UNL     1       2.209   0.913   1.811  0.00  0.00    +0.027 A 
ATOM     23  C   UNL     1       3.573   1.089   1.688  0.00  0.00    +0.047 A 
ATOM     24  C   UNL     1       4.147   2.310   2.011  0.00  0.00    +0.120 A 
ATOM     25  C   UNL     1       3.351   3.357   2.453  0.00  0.00    +0.047 A 
ATOM     26  C   UNL     1       1.986   3.184   2.572  0.00  0.00    +0.027 A 
BRANCH  24  27
ATOM     27  O   UNL     1       5.491   2.481   1.896  0.00  0.00    -0.495 OA
ATOM     28  C   UNL     1       6.250   1.361   1.435  0.00  0.00    +0.277 C 
ENDBRANCH  24  27
ENDBRANCH   4  21
BRANCH   3  29
ATOM     29  N   UNL     1       0.301   0.662   4.451  0.00  0.00    -0.345 N 
ATOM     30  H   UNL     1       1.256   0.596   4.291  0.00  0.00    +0.144 HD
ATOM     31  H   UNL     1      -0.086   0.263   5.246  0.00  0.00    +0.144 HD
ENDBRANCH   3  29
BRANCH   2  32
ATOM     32  C   UNL     1      -2.354   1.019   5.065  0.00  0.00    +0.099 C 
ATOM     33  N   UNL     1      -2.781   0.626   6.042  0.00  0.00    -0.191 NA
ENDBRANCH   2  32
TORSDOF 7
