REMARK  Name = ZINC33256567
REMARK  13 active torsions:
REMARK  status: ('A' for Active; 'I' for Inactive)
REMARK    1  A    between atoms: C_1  and  C_2
REMARK    2  A    between atoms: C_2  and  C_3
REMARK    3  A    between atoms: C_3  and  N_4
REMARK    4  A    between atoms: C_10  and  C_30
REMARK    5  A    between atoms: C_17  and  S_18
REMARK    6  A    between atoms: S_18  and  C_19
REMARK    7  A    between atoms: C_19  and  C_20
REMARK    8  A    between atoms: C_20  and  C_22
REMARK    9  A    between atoms: C_25  and  O_28
REMARK   10  A    between atoms: O_28  and  C_29
REMARK   11  A    between atoms: N_32  and  C_33
REMARK   12  A    between atoms: C_33  and  C_34
REMARK   13  A    between atoms: C_33  and  C_35
REMARK                            x       y       z     vdW  Elec       q    Type
REMARK                         _______ _______ _______ _____ _____    ______ ____
ROOT
ATOM      1  N   UNL     1       6.148  -8.092  -0.099  0.00  0.00    -0.277 N 
ATOM      2  C   UNL     1       5.413  -9.222  -0.082  0.00  0.00    +0.263 A 
ATOM      3  O   UNL     1       5.954 -10.312  -0.090  0.00  0.00    -0.267 OA
ATOM      4  C   UNL     1       3.941  -9.114  -0.065  0.00  0.00    +0.064 A 
ATOM      5  C   UNL     1       3.135 -10.252  -0.057  0.00  0.00    +0.016 A 
ATOM      6  C   UNL     1       1.764 -10.121  -0.041  0.00  0.00    +0.014 A 
ATOM      7  C   UNL     1       1.180  -8.851  -0.034  0.00  0.00    +0.039 A 
ATOM      8  C   UNL     1       1.979  -7.710  -0.042  0.00  0.00    +0.040 A 
ATOM      9  C   UNL     1       3.359  -7.838  -0.058  0.00  0.00    +0.065 A 
ATOM     10  N   UNL     1       4.181  -6.712  -0.067  0.00  0.00    -0.256 N 
ATOM     11  C   UNL     1       5.543  -6.845  -0.086  0.00  0.00    +0.240 A 
ATOM     12  N   UNL     1       6.064  -5.638  -0.085  0.00  0.00    -0.109 NA
ATOM     13  N   UNL     1       5.015  -4.711  -0.070  0.00  0.00    -0.120 NA
ATOM     14  C   UNL     1       3.885  -5.376  -0.063  0.00  0.00    +0.198 A 
ENDROOT
BRANCH   7  15
ATOM     15  C   UNL     1      -0.295  -8.719  -0.017  0.00  0.00    +0.244 C 
ATOM     16  O   UNL     1      -0.806  -7.616  -0.011  0.00  0.00    -0.270 OA
ATOM     17  N   UNL     1      -1.070  -9.821  -0.009  0.00  0.00    -0.309 N 
ATOM     18  H   UNL     1      -0.608 -10.819  -0.015  0.00  0.00    +0.149 HD
BRANCH  17  19
ATOM     19  C   UNL     1      -2.529  -9.690   0.007  0.00  0.00    +0.067 C 
ATOM     20  C   UNL     1      -3.161 -10.946  -0.596  0.00  0.00    +0.027 C 
ATOM     21  C   UNL     1      -3.010  -9.520   1.450  0.00  0.00    +0.027 C 
ENDBRANCH  17  19
ENDBRANCH   7  15
BRANCH   1  22
ATOM     22  C   UNL     1       7.610  -8.183  -0.114  0.00  0.00    +0.128 C 
BRANCH  22  24
ATOM     23  C   UNL     1       9.661  -8.316   1.308  0.00  0.00    +0.005 C 
ATOM     24  C   UNL     1       8.134  -8.222   1.324  0.00  0.00    +0.018 C 
ENDBRANCH  22  24
ENDBRANCH   1  22
BRANCH  14  25
ATOM     25  S   UNL     1       2.269  -4.673  -0.043  0.00  0.00    -0.078 S 
BRANCH  25  26
ATOM     26  C   UNL     1       2.570  -2.884  -0.037  0.00  0.00    +0.157 C 
BRANCH  26  27
ATOM     27  C   UNL     1       1.251  -2.154  -0.021  0.00  0.00    +0.173 C 
ATOM     28  O   UNL     1       0.212  -2.778  -0.014  0.00  0.00    -0.291 OA
BRANCH  27  29
ATOM     29  C   UNL     1       1.226  -0.685  -0.013  0.00  0.00    +0.018 A 
ATOM     30  C   UNL     1       0.002  -0.004   0.002  0.00  0.00    +0.015 A 
ATOM     31  C   UNL     1      -0.017   1.367   0.010  0.00  0.00    +0.046 A 
ATOM     32  C   UNL     1       1.177   2.081   0.002  0.00  0.00    +0.120 A 
ATOM     33  C   UNL     1       2.395   1.409  -0.013  0.00  0.00    +0.046 A 
ATOM     34  C   UNL     1       2.424   0.039  -0.021  0.00  0.00    +0.015 A 
BRANCH  32  35
ATOM     35  O   UNL     1       1.153   3.438   0.009  0.00  0.00    -0.495 OA
ATOM     36  C   UNL     1       2.415   4.109   0.001  0.00  0.00    +0.277 C 
ENDBRANCH  32  35
ENDBRANCH  27  29
ENDBRANCH  26  27
ENDBRANCH  25  26
ENDBRANCH  14  25
TORSDOF 9
