REMARK  Name = ZINC39773263
REMARK  7 active torsions:
REMARK  status: ('A' for Active; 'I' for Inactive)
REMARK    1  A    between atoms: C_6  and  C_7
REMARK    2  A    between atoms: C_7  and  N_8
REMARK    3  A    between atoms: C_11  and  C_14
REMARK    4  A    between atoms: N_16  and  C_17
REMARK    5  A    between atoms: C_20  and  S_23
REMARK    6  A    between atoms: S_23  and  N_26
REMARK    7  A    between atoms: N_26  and  C_27
REMARK                            x       y       z     vdW  Elec       q    Type
REMARK                         _______ _______ _______ _____ _____    ______ ____
ROOT
ATOM      1  C   UNL     1      -3.216  -2.186  -4.847  0.00  0.00    +0.220 C 
ATOM      2  O   UNL     1      -2.491  -1.780  -5.732  0.00  0.00    -0.275 OA
ATOM      3  N   UNL     1      -4.348  -2.849  -5.155  0.00  0.00    -0.285 N 
ATOM      4  H   UNL     1      -4.892  -3.232  -4.449  0.00  0.00    +0.155 HD
ENDROOT
BRANCH   1   8
ATOM      5  N   UNL     1      -2.273  -0.062  -1.284  0.00  0.00    +0.382 N 
ATOM      6  C   UNL     1      -1.200  -0.875  -1.869  0.00  0.00    -0.078 C 
ATOM      7  C   UNL     1      -1.526  -1.181  -3.332  0.00  0.00    -0.006 C 
ATOM      8  C   UNL     1      -2.849  -1.950  -3.405  0.00  0.00    +0.072 C 
ATOM      9  C   UNL     1      -3.946  -1.125  -2.726  0.00  0.00    -0.006 C 
ATOM     10  C   UNL     1      -3.530  -0.821  -1.285  0.00  0.00    -0.078 C 
ATOM     11  H   UNL     1      -2.389   0.779  -1.828  0.00  0.00    -0.081 HD
BRANCH   5  12
ATOM     12  C   UNL     1      -1.919   0.294   0.097  0.00  0.00    -0.043 C 
BRANCH  12  18
ATOM     13  C   UNL     1      -0.837   2.549   0.017  0.00  0.00    +0.004 A 
ATOM     14  C   UNL     1       0.282   3.359   0.011  0.00  0.00    +0.038 A 
ATOM     15  C   UNL     1       1.545   2.795   0.078  0.00  0.00    +0.123 A 
ATOM     16  C   UNL     1       1.684   1.419   0.151  0.00  0.00    +0.038 A 
ATOM     17  C   UNL     1       0.563   0.611   0.157  0.00  0.00    +0.004 A 
ATOM     18  C   UNL     1      -0.697   1.176   0.090  0.00  0.00    -0.064 A 
ATOM     19  F   UNL     1       2.640   3.586   0.072  0.00  0.00    -0.205 F 
ENDBRANCH  12  18
ENDBRANCH   5  12
ENDBRANCH   1   8
BRANCH   3  20
ATOM     20  C   UNL     1      -4.739  -2.983  -6.492  0.00  0.00    +0.034 A 
ATOM     21  C   UNL     1      -6.086  -2.951  -6.829  0.00  0.00    +0.025 A 
ATOM     22  C   UNL     1      -6.469  -3.084  -8.149  0.00  0.00    +0.030 A 
ATOM     23  C   UNL     1      -5.513  -3.248  -9.135  0.00  0.00    +0.109 A 
ATOM     24  C   UNL     1      -4.171  -3.280  -8.802  0.00  0.00    +0.030 A 
ATOM     25  C   UNL     1      -3.781  -3.142  -7.484  0.00  0.00    +0.025 A 
BRANCH  23  26
ATOM     26  S   UNL     1      -6.006  -3.417 -10.818  0.00  0.00    +0.072 S 
ATOM     27  O   UNL     1      -5.012  -4.209 -11.454  0.00  0.00    -0.150 OA
ATOM     28  O   UNL     1      -7.379  -3.783 -10.805  0.00  0.00    -0.150 OA
BRANCH  26  29
ATOM     29  N   UNL     1      -5.924  -1.913 -11.505  0.00  0.00    -0.216 N 
ATOM     30  H   UNL     1      -5.305  -1.745 -12.233  0.00  0.00    +0.174 HD
BRANCH  29  31
ATOM     31  C   UNL     1      -6.747  -0.884 -11.037  0.00  0.00    +0.048 A 
ATOM     32  C   UNL     1      -8.093  -1.126 -10.794  0.00  0.00    +0.027 A 
ATOM     33  C   UNL     1      -8.904  -0.109 -10.331  0.00  0.00    +0.040 A 
ATOM     34  C   UNL     1      -8.376   1.152 -10.108  0.00  0.00    +0.124 A 
ATOM     35  C   UNL     1      -7.035   1.396 -10.350  0.00  0.00    +0.040 A 
ATOM     36  C   UNL     1      -6.219   0.380 -10.808  0.00  0.00    +0.027 A 
ATOM     37  F   UNL     1      -9.171   2.146  -9.655  0.00  0.00    -0.205 F 
ENDBRANCH  29  31
ENDBRANCH  26  29
ENDBRANCH  23  26
ENDBRANCH   3  20
TORSDOF 7
