REMARK  Name = ZINC05206147
REMARK  11 active torsions:
REMARK  status: ('A' for Active; 'I' for Inactive)
REMARK    1  A    between atoms: C_1  and  C_2
REMARK    2  A    between atoms: C_5  and  C_13
REMARK    3  A    between atoms: C_6  and  C_7
REMARK    4  A    between atoms: C_6  and  C_8
REMARK    5  A    between atoms: C_10  and  O_12
REMARK    6  A    between atoms: N_15  and  N_16
REMARK    7  A    between atoms: C_17  and  C_19
REMARK    8  A    between atoms: C_22  and  C_30
REMARK    9  A    between atoms: C_23  and  C_24
REMARK   10  A    between atoms: C_23  and  C_25
REMARK   11  A    between atoms: C_26  and  O_29
REMARK                            x       y       z     vdW  Elec       q    Type
REMARK                         _______ _______ _______ _____ _____    ______ ____
ROOT
ATOM      1  C   UNL     1       0.996  -3.258   1.638  0.00  0.00    +0.236 C 
ATOM      2  O   UNL     1       1.606  -2.969   2.646  0.00  0.00    -0.274 OA
ATOM      3  N   UNL     1       0.794  -4.552   1.320  0.00  0.00    -0.234 N 
ATOM      4  H   UNL     1       0.305  -4.782   0.514  0.00  0.00    +0.173 HD
ENDROOT
BRANCH   1   9
ATOM      5  C   UNL     1      -0.019   1.526   0.010  0.00  0.00    +0.014 C 
ATOM      6  C   UNL     1       0.002  -0.004   0.002  0.00  0.00    +0.000 C 
ATOM      7  C   UNL     1      -1.389  -0.705   0.062  0.00  0.00    +0.011 C 
ATOM      8  C   UNL     1      -1.084  -2.139   0.552  0.00  0.00    +0.017 C 
ATOM      9  C   UNL     1       0.463  -2.169   0.743  0.00  0.00    +0.056 C 
ATOM     10  C   UNL     1       0.727  -0.695   1.211  0.00  0.00    -0.013 C 
ATOM     11  C   UNL     1       0.042  -0.385   2.543  0.00  0.00    +0.012 C 
ATOM     12  C   UNL     1       2.220  -0.363   1.250  0.00  0.00    +0.012 C 
ATOM     13  C   UNL     1       1.036  -2.118  -0.707  0.00  0.00    +0.048 C 
ATOM     14  C   UNL     1       0.744  -0.669  -1.197  0.00  0.00    +0.122 C 
BRANCH  14  15
ATOM     15  O   UNL     1      -0.102  -0.707  -2.348  0.00  0.00    -0.391 OA
ATOM     16  H   UNL     1       0.308  -1.111  -3.125  0.00  0.00    +0.210 HD
ENDBRANCH  14  15
ENDBRANCH   1   9
BRANCH   3  17
ATOM     17  N   UNL     1       1.289  -5.564   2.153  0.00  0.00    -0.234 N 
ATOM     18  C   UNL     1       1.087  -6.857   1.834  0.00  0.00    +0.236 C 
ATOM     19  O   UNL     1       0.476  -7.146   0.827  0.00  0.00    -0.274 OA
ATOM     20  H   UNL     1       1.777  -5.333   2.959  0.00  0.00    +0.173 HD
BRANCH  18  21
ATOM     21  C   UNL     1       1.619  -7.946   2.730  0.00  0.00    +0.056 C 
ATOM     22  C   UNL     1       3.168  -7.992   2.900  0.00  0.00    +0.017 C 
ATOM     23  C   UNL     1       3.465  -9.426   3.396  0.00  0.00    +0.011 C 
ATOM     24  C   UNL     1       2.067 -10.111   3.479  0.00  0.00    +0.000 C 
ATOM     25  C   UNL     1       1.333  -9.421   2.275  0.00  0.00    -0.013 C 
ATOM     26  C   UNL     1       1.997  -9.746   0.935  0.00  0.00    +0.012 C 
ATOM     27  C   UNL     1      -0.164  -9.736   2.258  0.00  0.00    +0.012 C 
ATOM     28  C   UNL     1       1.362  -9.416   4.683  0.00  0.00    +0.122 C 
ATOM     29  C   UNL     1       1.047  -7.976   4.180  0.00  0.00    +0.048 C 
ATOM     30  C   UNL     1       2.071 -11.641   3.480  0.00  0.00    +0.014 C 
BRANCH  28  31
ATOM     31  O   UNL     1       2.230  -9.383   5.817  0.00  0.00    -0.391 OA
ATOM     32  H   UNL     1       1.843  -8.962   6.597  0.00  0.00    +0.210 HD
ENDBRANCH  28  31
ENDBRANCH  18  21
ENDBRANCH   3  17
TORSDOF 5
