REMARK  Name = ZINC09684888
REMARK  11 active torsions:
REMARK  status: ('A' for Active; 'I' for Inactive)
REMARK    1  A    between atoms: C_1  and  C_2
REMARK    2  A    between atoms: C_5  and  N_9
REMARK    3  A    between atoms: C_7  and  C_8
REMARK    4  A    between atoms: C_12  and  C_15
REMARK    5  A    between atoms: C_15  and  S_16
REMARK    6  A    between atoms: S_16  and  C_17
REMARK    7  A    between atoms: C_20  and  C_23
REMARK    8  A    between atoms: N_21  and  N_22
REMARK    9  A    between atoms: C_26  and  O_29
REMARK   10  A    between atoms: O_29  and  C_30
REMARK   11  A    between atoms: C_31  and  C_33
REMARK                            x       y       z     vdW  Elec       q    Type
REMARK                         _______ _______ _______ _____ _____    ______ ____
ROOT
ATOM      1  C   UNL     1       7.190   3.418   0.469  0.00  0.00    +0.133 C 
ENDROOT
BRANCH   1   5
ATOM      2  N   UNL     1       2.353   3.887  -0.186  0.00  0.00    -0.219 N 
ATOM      3  C   UNL     1       3.559   3.199  -0.107  0.00  0.00    +0.172 A 
ATOM      4  N   UNL     1       4.766   3.668   0.142  0.00  0.00    -0.228 NA
ATOM      5  C   UNL     1       5.815   2.871   0.182  0.00  0.00    +0.061 A 
ATOM      6  C   UNL     1       5.629   1.546  -0.040  0.00  0.00    +0.072 A 
ATOM      7  S   UNL     1       3.862   1.500  -0.303  0.00  0.00    -0.060 S 
ATOM      8  C   UNL     1       2.337   5.232  -0.102  0.00  0.00    +0.223 C 
ATOM      9  O   UNL     1       3.380   5.848  -0.040  0.00  0.00    -0.275 OA
ATOM     10  C   UNL     1       1.024   5.971  -0.085  0.00  0.00    +0.110 C 
BRANCH   2  15
ATOM     11  C   UNL     1      -2.496   1.018  -0.864  0.00  0.00    +0.044 C 
ATOM     12  C   UNL     1      -1.210   1.783  -0.683  0.00  0.00    -0.047 A 
ATOM     13  C   UNL     1      -0.696   1.980   0.586  0.00  0.00    +0.005 A 
ATOM     14  C   UNL     1       0.485   2.675   0.753  0.00  0.00    +0.024 A 
ATOM     15  C   UNL     1       1.154   3.182  -0.353  0.00  0.00    +0.043 A 
ATOM     16  C   UNL     1       0.633   2.987  -1.625  0.00  0.00    +0.027 A 
ATOM     17  C   UNL     1      -0.549   2.291  -1.786  0.00  0.00    -0.046 A 
ATOM     18  C   UNL     1      -1.116   2.079  -3.167  0.00  0.00    +0.044 C 
ENDBRANCH   2  15
ENDBRANCH   1   5
BRANCH   1  19
ATOM     19  S   UNL     1       7.489   3.393   2.254  0.00  0.00    -0.078 S 
BRANCH  19  20
ATOM     20  C   UNL     1       9.117   4.066   2.300  0.00  0.00    +0.209 A 
ATOM     21  N   UNL     1       9.831   4.450   1.267  0.00  0.00    -0.121 NA
ATOM     22  N   UNL     1      10.973   4.892   1.659  0.00  0.00    -0.127 NA
ATOM     23  C   UNL     1      11.057   4.817   2.966  0.00  0.00    +0.182 A 
ATOM     24  N   UNL     1       9.870   4.291   3.418  0.00  0.00    -0.224 N 
BRANCH  23  25
ATOM     25  C   UNL     1      12.209   5.227   3.797  0.00  0.00    +0.021 A 
ATOM     26  C   UNL     1      12.293   4.817   5.129  0.00  0.00    +0.015 A 
ATOM     27  C   UNL     1      13.371   5.197   5.899  0.00  0.00    +0.046 A 
ATOM     28  C   UNL     1      14.368   5.997   5.355  0.00  0.00    +0.120 A 
ATOM     29  C   UNL     1      14.285   6.412   4.032  0.00  0.00    +0.046 A 
ATOM     30  C   UNL     1      13.213   6.031   3.254  0.00  0.00    +0.015 A 
BRANCH  28  31
ATOM     31  O   UNL     1      15.426   6.375   6.119  0.00  0.00    -0.495 OA
ATOM     32  C   UNL     1      15.448   5.913   7.471  0.00  0.00    +0.277 C 
ENDBRANCH  28  31
ENDBRANCH  23  25
BRANCH  24  33
ATOM     33  N   UNL     1       9.517   4.042   4.714  0.00  0.00    -0.295 N 
ATOM     34  H   UNL     1       9.785   3.108   4.989  0.00  0.00    +0.163 HD
ATOM     35  H   UNL     1       9.915   4.730   5.336  0.00  0.00    +0.163 HD
ENDBRANCH  24  33
ENDBRANCH  19  20
ENDBRANCH   1  19
TORSDOF 7
