REMARK  Name = ZINC13064737
REMARK  14 active torsions:
REMARK  status: ('A' for Active; 'I' for Inactive)
REMARK    1  A    between atoms: C_1  and  C_2
REMARK    2  A    between atoms: C_2  and  C_3
REMARK    3  A    between atoms: C_3  and  C_5
REMARK    4  A    between atoms: C_3  and  N_75
REMARK    5  A    between atoms: N_9  and  C_10
REMARK    6  A    between atoms: C_10  and  C_11
REMARK    7  A    between atoms: C_11  and  C_12
REMARK    8  A    between atoms: C_18  and  C_19
REMARK    9  A    between atoms: C_18  and  N_75
REMARK   10  A    between atoms: C_19  and  C_20
REMARK   11  A    between atoms: C_26  and  C_27
REMARK   12  A    between atoms: C_26  and  N_75
REMARK   13  A    between atoms: C_31  and  C_40
REMARK   14  A    between atoms: C_32  and  C_39
REMARK                            x       y       z     vdW  Elec       q    Type
REMARK                         _______ _______ _______ _____ _____    ______ ____
ROOT
ATOM      1  N   UNL     1      -1.423  -0.335  -0.197  0.00  0.00    +0.389 N 
ATOM      2  H   UNL     1      -1.981   0.073  -0.957  0.00  0.00    -0.080 HD
ENDROOT
BRANCH   1   3
ATOM      3  C   UNL     1      -1.314  -1.793  -0.411  0.00  0.00    +0.003 C 
BRANCH   3   4
ATOM      4  C   UNL     1      -0.491  -2.049  -1.647  0.00  0.00    +0.138 A 
ATOM      5  N   UNL     1      -0.589  -1.426  -2.796  0.00  0.00    -0.115 NA
ATOM      6  N   UNL     1       0.286  -1.929  -3.597  0.00  0.00    -0.023 NA
ATOM      7  N   UNL     1       0.934  -2.862  -2.992  0.00  0.00    -0.044 NA
ATOM      8  N   UNL     1       0.484  -2.966  -1.787  0.00  0.00    -0.231 N 
BRANCH   8   9
ATOM      9  C   UNL     1       0.948  -3.906  -0.763  0.00  0.00    +0.152 C 
BRANCH   9  10
ATOM     10  C   UNL     1       0.137  -5.200  -0.854  0.00  0.00    +0.058 C 
BRANCH  10  11
ATOM     11  C   UNL     1       0.614  -6.167   0.199  0.00  0.00    -0.046 A 
ATOM     12  C   UNL     1       1.627  -7.061  -0.092  0.00  0.00    +0.004 A 
ATOM     13  C   UNL     1       2.068  -7.945   0.875  0.00  0.00    +0.000 A 
ATOM     14  C   UNL     1       1.489  -7.941   2.130  0.00  0.00    +0.000 A 
ATOM     15  C   UNL     1       0.472  -7.051   2.419  0.00  0.00    +0.000 A 
ATOM     16  C   UNL     1       0.034  -6.164   1.454  0.00  0.00    +0.004 A 
ENDBRANCH  10  11
ENDBRANCH   9  10
ENDBRANCH   8   9
ENDBRANCH   3   4
BRANCH   3  18
ATOM     17  C   UNL     1      -3.400  -1.667  -1.781  0.00  0.00    +0.002 C 
ATOM     18  C   UNL     1      -2.718  -2.370  -0.605  0.00  0.00    -0.011 C 
ENDBRANCH   3  18
ENDBRANCH   1   3
BRANCH   1  19
ATOM     19  C   UNL     1      -0.079   0.279  -0.206  0.00  0.00    -0.073 C 
BRANCH  19  20
ATOM     20  C   UNL     1      -0.231   1.801  -0.250  0.00  0.00    +0.016 C 
BRANCH  20  21
ATOM     21  C   UNL     1       1.132   2.442  -0.264  0.00  0.00    -0.049 A 
ATOM     22  C   UNL     1       1.791   2.692   0.925  0.00  0.00    +0.003 A 
ATOM     23  C   UNL     1       3.044   3.276   0.912  0.00  0.00    +0.000 A 
ATOM     24  C   UNL     1       3.633   3.620  -0.290  0.00  0.00    +0.000 A 
ATOM     25  C   UNL     1       2.972   3.375  -1.479  0.00  0.00    +0.000 A 
ATOM     26  C   UNL     1       1.722   2.786  -1.466  0.00  0.00    +0.003 A 
ENDBRANCH  20  21
ENDBRANCH  19  20
ENDBRANCH   1  19
BRANCH   1  27
ATOM     27  C   UNL     1      -2.094  -0.061   1.091  0.00  0.00    -0.037 C 
BRANCH  27  28
ATOM     28  C   UNL     1      -1.228  -0.503   2.242  0.00  0.00    +0.001 A 
ATOM     29  C   UNL     1      -0.396   0.384   2.842  0.00  0.00    +0.017 A 
ATOM     30  C   UNL     1       0.432  -0.077   3.957  0.00  0.00    -0.001 A 
ATOM     31  C   UNL     1       1.308   0.793   4.615  0.00  0.00    +0.013 A 
ATOM     32  C   UNL     1       2.068   0.331   5.652  0.00  0.00    -0.047 A 
ATOM     33  C   UNL     1       1.978  -0.993   6.060  0.00  0.00    -0.046 A 
ATOM     34  C   UNL     1       1.121  -1.867   5.426  0.00  0.00    +0.030 A 
ATOM     35  C   UNL     1       0.338  -1.420   4.367  0.00  0.00    +0.049 A 
ATOM     36  N   UNL     1      -0.528  -2.272   3.716  0.00  0.00    -0.322 N 
ATOM     37  H   UNL     1      -0.592  -3.198   4.000  0.00  0.00    +0.169 HD
ATOM     38  C   UNL     1      -1.289  -1.839   2.696  0.00  0.00    +0.251 A 
ATOM     39  O   UNL     1      -2.046  -2.619   2.146  0.00  0.00    -0.268 OA
ATOM     40  C   UNL     1       2.826  -1.480   7.207  0.00  0.00    +0.044 C 
ATOM     41  C   UNL     1       3.012   1.268   6.361  0.00  0.00    +0.044 C 
ENDBRANCH  27  28
ENDBRANCH   1  27
TORSDOF 11
