REMARK  Name = ZINC42272445
REMARK  5 active torsions:
REMARK  status: ('A' for Active; 'I' for Inactive)
REMARK    1  A    between atoms: C_1  and  C_2
REMARK    2  A    between atoms: C_3  and  N_22
REMARK    3  A    between atoms: C_5  and  S_9
REMARK    4  A    between atoms: S_9  and  N_12
REMARK    5  A    between atoms: C_17  and  C_19
REMARK                            x       y       z     vdW  Elec       q    Type
REMARK                         _______ _______ _______ _____ _____    ______ ____
ROOT
ATOM      1  S   UNL     1       0.643  -3.522   0.084  0.00  0.00    +0.062 S 
ATOM      2  O   UNL     1      -0.133  -4.079   1.136  0.00  0.00    -0.153 OA
ATOM      3  O   UNL     1       0.119  -3.314  -1.221  0.00  0.00    -0.153 OA
ENDROOT
BRANCH   1   8
ATOM      4  C   UNL     1       2.594   1.846   2.046  0.00  0.00    +0.047 C 
ATOM      5  C   UNL     1       2.107   0.506   1.555  0.00  0.00    -0.011 A 
ATOM      6  C   UNL     1       2.316   0.133   0.234  0.00  0.00    +0.031 A 
ATOM      7  C   UNL     1       1.867  -1.102  -0.215  0.00  0.00    +0.051 A 
ATOM      8  C   UNL     1       1.213  -1.955   0.653  0.00  0.00    +0.109 A 
ATOM      9  C   UNL     1       1.006  -1.581   1.967  0.00  0.00    +0.049 A 
ATOM     10  C   UNL     1       1.458  -0.354   2.420  0.00  0.00    +0.047 A 
ATOM     11 CL   UNL     1       1.203   0.108   4.074  0.00  0.00    -0.083 Cl
BRANCH   6  12
ATOM     12  N   UNL     1       2.977   0.998  -0.642  0.00  0.00    -0.358 N 
ATOM     13  H   UNL     1       3.290   1.860  -0.328  0.00  0.00    +0.142 HD
ATOM     14  H   UNL     1       3.122   0.736  -1.565  0.00  0.00    +0.142 HD
ENDBRANCH   6  12
ENDBRANCH   1   8
BRANCH   1  15
ATOM     15  N   UNL     1       1.972  -4.494  -0.090  0.00  0.00    -0.165 NA
ATOM     16  C   UNL     1       2.705  -4.540  -1.362  0.00  0.00    +0.110 C 
ATOM     17  C   UNL     1       4.185  -4.254  -1.089  0.00  0.00    +0.017 C 
ATOM     18  C   UNL     1       4.703  -5.230  -0.030  0.00  0.00    +0.003 C 
ATOM     19  C   UNL     1       3.924  -5.032   1.272  0.00  0.00    +0.030 C 
ATOM     20  C   UNL     1       2.445  -5.322   1.028  0.00  0.00    +0.165 C 
BRANCH  20  21
ATOM     21  C   UNL     1       1.656  -4.994   2.269  0.00  0.00    +0.229 C 
ATOM     22  O   UNL     1       1.663  -3.864   2.711  0.00  0.00    -0.274 OA
ATOM     23  N   UNL     1       0.942  -5.955   2.888  0.00  0.00    -0.328 N 
ATOM     24  H   UNL     1       0.937  -6.858   2.535  0.00  0.00    +0.145 HD
ATOM     25  H   UNL     1       0.434  -5.743   3.687  0.00  0.00    +0.145 HD
ENDBRANCH  20  21
ENDBRANCH   1  15
TORSDOF 4
