REMARK  Name = ZINC13064653
REMARK  14 active torsions:
REMARK  status: ('A' for Active; 'I' for Inactive)
REMARK    1  A    between atoms: C_1  and  C_2
REMARK    2  A    between atoms: C_2  and  C_3
REMARK    3  A    between atoms: C_3  and  C_5
REMARK    4  A    between atoms: C_3  and  N_73
REMARK    5  A    between atoms: N_9  and  C_10
REMARK    6  A    between atoms: C_10  and  C_11
REMARK    7  A    between atoms: C_17  and  C_18
REMARK    8  A    between atoms: C_17  and  N_73
REMARK    9  A    between atoms: C_23  and  O_24
REMARK   10  A    between atoms: O_24  and  C_25
REMARK   11  A    between atoms: C_26  and  C_27
REMARK   12  A    between atoms: C_26  and  N_73
REMARK   13  A    between atoms: C_31  and  C_40
REMARK   14  A    between atoms: C_32  and  C_39
REMARK                            x       y       z     vdW  Elec       q    Type
REMARK                         _______ _______ _______ _____ _____    ______ ____
ROOT
ATOM      1  N   UNL     1      -2.956   0.458  -1.445  0.00  0.00    +0.392 N 
ATOM      2  H   UNL     1      -3.243  -0.360  -1.996  0.00  0.00    -0.080 HD
ENDROOT
BRANCH   1   3
ATOM      3  C   UNL     1      -4.164   1.146  -0.943  0.00  0.00    +0.003 C 
BRANCH   3   4
ATOM      4  C   UNL     1      -5.131   0.111  -0.429  0.00  0.00    +0.138 A 
ATOM      5  N   UNL     1      -5.456  -1.016  -1.014  0.00  0.00    -0.115 NA
ATOM      6  N   UNL     1      -6.307  -1.624  -0.262  0.00  0.00    -0.023 NA
ATOM      7  N   UNL     1      -6.541  -0.910   0.783  0.00  0.00    -0.044 NA
ATOM      8  N   UNL     1      -5.834   0.168   0.718  0.00  0.00    -0.226 N 
BRANCH   8   9
ATOM      9  C   UNL     1      -5.804   1.250   1.705  0.00  0.00    +0.182 C 
BRANCH   9  10
ATOM     10  C   UNL     1      -6.854   2.274   1.360  0.00  0.00    -0.026 A 
ATOM     11  C   UNL     1      -6.538   3.337   0.535  0.00  0.00    +0.005 A 
ATOM     12  C   UNL     1      -7.503   4.274   0.215  0.00  0.00    +0.000 A 
ATOM     13  C   UNL     1      -8.781   4.153   0.729  0.00  0.00    +0.000 A 
ATOM     14  C   UNL     1      -9.095   3.093   1.558  0.00  0.00    +0.000 A 
ATOM     15  C   UNL     1      -8.132   2.153   1.874  0.00  0.00    +0.005 A 
ENDBRANCH   9  10
ENDBRANCH   8   9
ENDBRANCH   3   4
BRANCH   3  17
ATOM     16  C   UNL     1      -5.208   0.958  -3.204  0.00  0.00    +0.002 C 
ATOM     17  C   UNL     1      -4.812   1.926  -2.088  0.00  0.00    -0.011 C 
ENDBRANCH   3  17
ENDBRANCH   1   3
BRANCH   1  18
ATOM     18  C   UNL     1      -2.124   0.005  -0.311  0.00  0.00    -0.038 C 
BRANCH  18  19
ATOM     19  C   UNL     1      -2.744  -1.236   0.278  0.00  0.00    -0.022 A 
ATOM     20  C   UNL     1      -3.352  -1.184   1.517  0.00  0.00    +0.005 A 
ATOM     21  C   UNL     1      -3.921  -2.322   2.057  0.00  0.00    +0.000 A 
ATOM     22  C   UNL     1      -3.884  -3.515   1.359  0.00  0.00    +0.004 A 
ATOM     23  C   UNL     1      -3.282  -3.571   0.117  0.00  0.00    +0.046 A 
ATOM     24  C   UNL     1      -2.704  -2.432  -0.425  0.00  0.00    +0.121 A 
BRANCH  24  25
ATOM     25  O   UNL     1      -2.107  -2.486  -1.644  0.00  0.00    -0.495 OA
ATOM     26  C   UNL     1      -2.006  -3.770  -2.261  0.00  0.00    +0.277 C 
ENDBRANCH  24  25
ENDBRANCH  18  19
ENDBRANCH   1  18
BRANCH   1  27
ATOM     27  C   UNL     1      -2.178   1.369  -2.310  0.00  0.00    -0.036 C 
BRANCH  27  28
ATOM     28  C   UNL     1      -1.054   0.594  -2.948  0.00  0.00    +0.001 A 
ATOM     29  C   UNL     1      -1.233   0.023  -4.165  0.00  0.00    +0.017 A 
ATOM     30  C   UNL     1      -0.120  -0.720  -4.759  0.00  0.00    -0.001 A 
ATOM     31  C   UNL     1      -0.243  -1.326  -6.014  0.00  0.00    +0.013 A 
ATOM     32  C   UNL     1       0.812  -2.016  -6.539  0.00  0.00    -0.047 A 
ATOM     33  C   UNL     1       2.007  -2.121  -5.838  0.00  0.00    -0.046 A 
ATOM     34  C   UNL     1       2.150  -1.531  -4.601  0.00  0.00    +0.030 A 
ATOM     35  C   UNL     1       1.089  -0.824  -4.046  0.00  0.00    +0.049 A 
ATOM     36  N   UNL     1       1.205  -0.223  -2.811  0.00  0.00    -0.322 N 
ATOM     37  H   UNL     1       2.039  -0.295  -2.321  0.00  0.00    +0.169 HD
ATOM     38  C   UNL     1       0.179   0.461  -2.275  0.00  0.00    +0.251 A 
ATOM     39  O   UNL     1       0.317   0.979  -1.180  0.00  0.00    -0.268 OA
ATOM     40  C   UNL     1       3.158  -2.887  -6.437  0.00  0.00    +0.044 C 
ATOM     41  C   UNL     1       0.680  -2.670  -7.890  0.00  0.00    +0.044 C 
ENDBRANCH  27  28
ENDBRANCH   1  27
TORSDOF 10
