REMARK  Name = ZINC16717743
REMARK  16 active torsions:
REMARK  status: ('A' for Active; 'I' for Inactive)
REMARK    1  A    between atoms: C_1  and  C_2
REMARK    2  A    between atoms: C_2  and  C_4
REMARK    3  A    between atoms: C_2  and  S_11
REMARK    4  A    between atoms: N_6  and  C_7
REMARK    5  A    between atoms: C_7  and  C_8
REMARK    6  A    between atoms: C_8  and  C_9
REMARK    7  A    between atoms: C_8  and  C_10
REMARK    8  A    between atoms: S_11  and  C_12
REMARK    9  A    between atoms: C_15  and  C_24
REMARK   10  A    between atoms: N_16  and  C_17
REMARK   11  A    between atoms: C_26  and  O_34
REMARK   12  A    between atoms: C_27  and  O_32
REMARK   13  A    between atoms: C_28  and  O_30
REMARK   14  A    between atoms: O_30  and  C_31
REMARK   15  A    between atoms: O_32  and  C_33
REMARK   16  A    between atoms: O_34  and  C_35
REMARK                            x       y       z     vdW  Elec       q    Type
REMARK                         _______ _______ _______ _____ _____    ______ ____
ROOT
ATOM      1  C   UNL     1      -2.365  -0.093  -1.525  0.00  0.00    +0.197 A 
ATOM      2  N   UNL     1      -1.734   0.598  -2.448  0.00  0.00    -0.122 NA
ATOM      3  N   UNL     1      -2.514   0.821  -3.444  0.00  0.00    -0.128 NA
ATOM      4  C   UNL     1      -3.692   0.286  -3.222  0.00  0.00    +0.170 A 
ATOM      5  N   UNL     1      -3.632  -0.322  -1.987  0.00  0.00    -0.267 N 
ENDROOT
BRANCH   5   6
ATOM      6  C   UNL     1      -4.657  -1.026  -1.338  0.00  0.00    +0.086 A 
ATOM      7  C   UNL     1      -5.541  -0.355  -0.504  0.00  0.00    +0.029 A 
ATOM      8  C   UNL     1      -6.550  -1.050   0.134  0.00  0.00    +0.002 A 
ATOM      9  C   UNL     1      -6.680  -2.414  -0.056  0.00  0.00    +0.003 A 
ATOM     10  C   UNL     1      -5.802  -3.087  -0.886  0.00  0.00    +0.040 A 
ATOM     11  C   UNL     1      -4.794  -2.395  -1.532  0.00  0.00    +0.147 A 
ATOM     12  F   UNL     1      -3.939  -3.051  -2.348  0.00  0.00    -0.203 F 
ENDBRANCH   5   6
BRANCH   4  13
ATOM     13  C   UNL     1      -4.859   0.325  -4.127  0.00  0.00    +0.027 A 
ATOM     14  C   UNL     1      -6.129   0.001  -3.645  0.00  0.00    +0.061 A 
ATOM     15  C   UNL     1      -7.221   0.039  -4.494  0.00  0.00    +0.166 A 
ATOM     16  C   UNL     1      -7.054   0.398  -5.827  0.00  0.00    +0.204 A 
ATOM     17  C   UNL     1      -5.790   0.721  -6.311  0.00  0.00    +0.166 A 
ATOM     18  C   UNL     1      -4.696   0.690  -5.464  0.00  0.00    +0.061 A 
BRANCH  17  19
ATOM     19  O   UNL     1      -5.630   1.072  -7.615  0.00  0.00    -0.491 OA
ATOM     20  C   UNL     1      -4.305   1.391  -8.043  0.00  0.00    +0.277 C 
ENDBRANCH  17  19
BRANCH  16  21
ATOM     21  O   UNL     1      -8.129   0.433  -6.661  0.00  0.00    -0.488 OA
ATOM     22  C   UNL     1      -8.837   1.671  -6.754  0.00  0.00    +0.277 C 
ENDBRANCH  16  21
BRANCH  15  23
ATOM     23  O   UNL     1      -8.457  -0.277  -4.025  0.00  0.00    -0.491 OA
ATOM     24  C   UNL     1      -8.556  -0.637  -2.646  0.00  0.00    +0.277 C 
ENDBRANCH  15  23
ENDBRANCH   4  13
BRANCH   1  25
ATOM     25  S   UNL     1      -1.700  -0.632   0.015  0.00  0.00    -0.073 S 
BRANCH  25  27
ATOM     26  C   UNL     1      -0.019   1.526   0.010  0.00  0.00    +0.029 C 
ATOM     27  C   UNL     1       0.002  -0.004   0.002  0.00  0.00    +0.137 C 
BRANCH  27  28
ATOM     28  C   UNL     1       0.731  -0.503   1.223  0.00  0.00    +0.226 C 
ATOM     29  O   UNL     1       0.105  -0.891   2.187  0.00  0.00    -0.275 OA
ATOM     30  N   UNL     1       2.079  -0.519   1.244  0.00  0.00    -0.314 N 
ATOM     31  H   UNL     1       2.579  -0.208   0.473  0.00  0.00    +0.149 HD
BRANCH  30  32
ATOM     32  C   UNL     1       2.787  -1.004   2.431  0.00  0.00    +0.107 C 
BRANCH  32  33
ATOM     33  C   UNL     1       4.296  -0.916   2.195  0.00  0.00    -0.000 C 
ATOM     34  C   UNL     1       5.036  -1.304   3.477  0.00  0.00    +0.009 C 
ATOM     35  C   UNL     1       4.693  -1.871   1.068  0.00  0.00    +0.009 C 
ENDBRANCH  32  33
ENDBRANCH  30  32
ENDBRANCH  27  28
ENDBRANCH  25  27
ENDBRANCH   1  25
TORSDOF 10
