REMARK  Name = ZINC02930851
REMARK  11 active torsions:
REMARK  status: ('A' for Active; 'I' for Inactive)
REMARK    1  A    between atoms: C_4  and  S_7
REMARK    2  A    between atoms: S_7  and  N_10
REMARK    3  A    between atoms: N_10  and  C_11
REMARK    4  A    between atoms: N_10  and  C_26
REMARK    5  A    between atoms: C_11  and  C_12
REMARK    6  A    between atoms: N_14  and  C_15
REMARK    7  A    between atoms: C_15  and  C_16
REMARK    8  A    between atoms: C_16  and  S_17
REMARK    9  A    between atoms: S_17  and  C_18
REMARK   10  A    between atoms: C_18  and  C_19
REMARK   11  A    between atoms: C_30  and  N_32
REMARK                            x       y       z     vdW  Elec       q    Type
REMARK                         _______ _______ _______ _____ _____    ______ ____
ROOT
ATOM      1  N   UNL     1      -0.525   1.442  -6.074  0.00  0.00    -0.194 N 
ENDROOT
BRANCH   1   2
ATOM      2  C   UNL     1      -1.607   0.712  -6.571  0.00  0.00    +0.054 A 
ATOM      3  C   UNL     1      -1.901   0.740  -7.928  0.00  0.00    +0.025 A 
ATOM      4  C   UNL     1      -2.969   0.013  -8.417  0.00  0.00    +0.004 A 
ATOM      5  C   UNL     1      -3.751  -0.734  -7.555  0.00  0.00    +0.033 A 
ATOM      6  C   UNL     1      -3.464  -0.760  -6.203  0.00  0.00    +0.128 A 
ATOM      7  C   UNL     1      -2.395  -0.039  -5.708  0.00  0.00    +0.057 A 
BRANCH   6   8
ATOM      8  N   UNL     1      -4.304  -1.560  -5.284  0.00  0.00    +0.056 N 
ATOM      9  O   UNL     1      -4.052  -1.583  -4.093  0.00  0.00    -0.126 OA
ATOM     10  O   UNL     1      -5.248  -2.196  -5.719  0.00  0.00    -0.126 OA
ENDBRANCH   6   8
ENDBRANCH   1   2
BRANCH   1  11
ATOM     11  S   UNL     1      -0.452   3.079  -6.312  0.00  0.00    +0.075 S 
ATOM     12  O   UNL     1      -1.766   3.500  -6.649  0.00  0.00    -0.150 OA
ATOM     13  O   UNL     1       0.262   3.619  -5.207  0.00  0.00    -0.150 OA
BRANCH  11  17
ATOM     14  C   UNL     1       2.111   3.787  -9.976  0.00  0.00    +0.000 A 
ATOM     15  C   UNL     1       0.735   3.742 -10.093  0.00  0.00    +0.002 A 
ATOM     16  C   UNL     1      -0.048   3.525  -8.975  0.00  0.00    +0.029 A 
ATOM     17  C   UNL     1       0.546   3.354  -7.738  0.00  0.00    +0.109 A 
ATOM     18  C   UNL     1       1.923   3.405  -7.620  0.00  0.00    +0.029 A 
ATOM     19  C   UNL     1       2.705   3.616  -8.739  0.00  0.00    +0.002 A 
ENDBRANCH  11  17
ENDBRANCH   1  11
BRANCH   1  20
ATOM     20  C   UNL     1       0.545   0.759  -5.343  0.00  0.00    +0.227 C 
BRANCH  20  21
ATOM     21  C   UNL     1       0.157   0.625  -3.893  0.00  0.00    +0.232 C 
ATOM     22  O   UNL     1      -0.910   1.057  -3.509  0.00  0.00    -0.274 OA
ATOM     23  N   UNL     1       0.993   0.025  -3.024  0.00  0.00    -0.313 N 
ATOM     24  H   UNL     1       1.846  -0.321  -3.331  0.00  0.00    +0.149 HD
BRANCH  23  25
ATOM     25  C   UNL     1       0.615  -0.106  -1.615  0.00  0.00    +0.115 C 
BRANCH  25  26
ATOM     26  C   UNL     1       1.733  -0.819  -0.851  0.00  0.00    +0.088 C 
BRANCH  26  27
ATOM     27  S   UNL     1       1.265  -0.981   0.894  0.00  0.00    -0.154 S 
BRANCH  27  28
ATOM     28  C   UNL     1       2.676  -1.835   1.650  0.00  0.00    +0.105 C 
BRANCH  28  29
ATOM     29  C   UNL     1       2.413  -2.035   3.120  0.00  0.00    -0.019 A 
ATOM     30  C   UNL     1       2.810  -1.074   4.031  0.00  0.00    +0.006 A 
ATOM     31  C   UNL     1       2.566  -1.256   5.379  0.00  0.00    +0.000 A 
ATOM     32  C   UNL     1       1.932  -2.403   5.819  0.00  0.00    +0.001 A 
ATOM     33  C   UNL     1       1.539  -3.367   4.910  0.00  0.00    +0.020 A 
ATOM     34  C   UNL     1       1.780  -3.184   3.560  0.00  0.00    +0.045 A 
ATOM     35 CL   UNL     1       1.287  -4.395   2.417  0.00  0.00    -0.083 Cl
ENDBRANCH  28  29
ENDBRANCH  27  28
ENDBRANCH  26  27
ENDBRANCH  25  26
ENDBRANCH  23  25
ENDBRANCH  20  21
ENDBRANCH   1  20
TORSDOF 11
