REMARK  Name = ZINC64674373
REMARK  8 active torsions:
REMARK  status: ('A' for Active; 'I' for Inactive)
REMARK    1  A    between atoms: C_7  and  C_10
REMARK    2  A    between atoms: C_10  and  C_11
REMARK    3  A    between atoms: N_13  and  N_14
REMARK    4  A    between atoms: C_15  and  C_17
REMARK    5  A    between atoms: C_17  and  C_18
REMARK    6  A    between atoms: C_18  and  N_19
REMARK    7  A    between atoms: N_19  and  S_20
REMARK    8  A    between atoms: S_20  and  C_23
REMARK                            x       y       z     vdW  Elec       q    Type
REMARK                         _______ _______ _______ _____ _____    ______ ____
ROOT
ATOM      1  N   UNL     1      -0.567  -5.122  -3.001  0.00  0.00    -0.234 N 
ATOM      2  C   UNL     1      -1.380  -6.168  -3.245  0.00  0.00    +0.230 C 
ATOM      3  O   UNL     1      -1.926  -6.740  -2.325  0.00  0.00    -0.274 OA
ATOM      4  H   UNL     1      -0.131  -4.665  -3.737  0.00  0.00    +0.173 HD
ENDROOT
BRANCH   1   7
ATOM      5  C   UNL     1       0.460  -3.646  -1.440  0.00  0.00    +0.233 C 
ATOM      6  O   UNL     1       1.006  -3.075  -2.360  0.00  0.00    -0.274 OA
ATOM      7  N   UNL     1      -0.353  -4.693  -1.684  0.00  0.00    -0.234 N 
ATOM      8  H   UNL     1      -0.790  -5.150  -0.948  0.00  0.00    +0.173 HD
BRANCH   5   9
ATOM      9  C   UNL     1       0.691  -3.186  -0.024  0.00  0.00    +0.130 C 
BRANCH   9  16
ATOM     10  C   UNL     1      -0.016   1.348   0.009  0.00  0.00    +0.001 A 
ATOM     11  C   UNL     1       1.166   2.101   0.002  0.00  0.00    +0.002 A 
ATOM     12  C   UNL     1       2.391   1.535  -0.013  0.00  0.00    +0.026 A 
ATOM     13  C   UNL     1       2.529   0.120  -0.022  0.00  0.00    +0.043 A 
ATOM     14  N   UNL     1       3.587  -0.654  -0.037  0.00  0.00    -0.380 N 
ATOM     15  C   UNL     1       3.143  -2.053  -0.041  0.00  0.00    +0.145 C 
ATOM     16  C   UNL     1       1.631  -2.008  -0.025  0.00  0.00    -0.033 C 
ATOM     17  C   UNL     1       1.295  -0.698  -0.014  0.00  0.00    -0.001 A 
ATOM     18  C   UNL     1       0.002  -0.004   0.002  0.00  0.00    +0.010 A 
ATOM     19  H   UNL     1       4.509  -0.353  -0.045  0.00  0.00    +0.160 HD
ENDBRANCH   9  16
ENDBRANCH   5   9
ENDBRANCH   1   7
BRANCH   2  20
ATOM     20  C   UNL     1      -1.611  -6.629  -4.661  0.00  0.00    +0.114 C 
BRANCH  20  21
ATOM     21  C   UNL     1      -2.566  -7.824  -4.660  0.00  0.00    +0.115 C 
BRANCH  21  22
ATOM     22  N   UNL     1      -2.790  -8.272  -6.036  0.00  0.00    -0.189 NA
ATOM     23  H   UNL     1      -2.540  -7.701  -6.779  0.00  0.00    +0.148 HD
BRANCH  22  24
ATOM     24  S   UNL     1      -3.470  -9.754  -6.324  0.00  0.00    +0.059 S 
ATOM     25  O   UNL     1      -3.579  -9.884  -7.735  0.00  0.00    -0.153 OA
ATOM     26  O   UNL     1      -2.758 -10.690  -5.526  0.00  0.00    -0.153 OA
BRANCH  24  27
ATOM     27  C   UNL     1      -5.115  -9.704  -5.695  0.00  0.00    +0.109 A 
ATOM     28  C   UNL     1      -5.364 -10.067  -4.384  0.00  0.00    +0.032 A 
ATOM     29  C   UNL     1      -6.652 -10.030  -3.887  0.00  0.00    +0.051 A 
ATOM     30  C   UNL     1      -7.700  -9.628  -4.702  0.00  0.00    +0.162 A 
ATOM     31  C   UNL     1      -7.450  -9.261  -6.018  0.00  0.00    +0.164 A 
ATOM     32  C   UNL     1      -6.154  -9.297  -6.510  0.00  0.00    +0.078 A 
ATOM     33  O   UNL     1      -8.463  -8.855  -6.833  0.00  0.00    -0.485 OA
ATOM     34  C   UNL     1      -9.793  -9.182  -6.417  0.00  0.00    +0.270 C 
ATOM     35  C   UNL     1      -9.930  -8.835  -4.928  0.00  0.00    +0.270 C 
ATOM     36  O   UNL     1      -8.965  -9.600  -4.199  0.00  0.00    -0.485 OA
ENDBRANCH  24  27
ENDBRANCH  22  24
ENDBRANCH  21  22
ENDBRANCH  20  21
ENDBRANCH   2  20
TORSDOF 8
