REMARK  Name = ZINC34759277
REMARK  10 active torsions:
REMARK  status: ('A' for Active; 'I' for Inactive)
REMARK    1  A    between atoms: C_1  and  C_2
REMARK    2  A    between atoms: C_2  and  C_3
REMARK    3  A    between atoms: C_3  and  N_4
REMARK    4  A    between atoms: C_12  and  C_30
REMARK    5  A    between atoms: C_13  and  C_29
REMARK    6  A    between atoms: C_17  and  S_19
REMARK    7  A    between atoms: S_19  and  C_20
REMARK    8  A    between atoms: C_20  and  C_21
REMARK    9  A    between atoms: C_23  and  C_28
REMARK   10  A    between atoms: C_26  and  C_27
REMARK                            x       y       z     vdW  Elec       q    Type
REMARK                         _______ _______ _______ _____ _____    ______ ____
ROOT
ATOM      1  N   UNL     1       0.669  -3.315   0.320  0.00  0.00    +0.382 N 
ATOM      2  C   UNL     1       1.062  -4.727   0.398  0.00  0.00    -0.060 C 
ATOM      3  C   UNL     1       1.577  -5.189  -0.969  0.00  0.00    +0.088 C 
ATOM      4  N   UNL     1       0.546  -4.901  -1.978  0.00  0.00    -0.318 N 
ATOM      5  C   UNL     1      -0.024  -3.546  -2.018  0.00  0.00    +0.088 C 
ATOM      6  C   UNL     1      -0.464  -3.161  -0.602  0.00  0.00    -0.060 C 
ATOM      7  C   UNL     1       0.125  -5.876  -2.863  0.00  0.00    +0.134 A 
ATOM      8  C   UNL     1       0.867  -6.139  -4.048  0.00  0.00    +0.051 A 
ATOM      9  C   UNL     1       2.087  -5.518  -4.536  0.00  0.00    -0.028 A 
ATOM     10  C   UNL     1       2.615  -5.934  -5.696  0.00  0.00    -0.008 A 
ATOM     11  S   UNL     1       1.494  -7.214  -6.229  0.00  0.00    -0.073 S 
ATOM     12  C   UNL     1       0.346  -7.155  -4.879  0.00  0.00    +0.115 A 
ATOM     13  N   UNL     1      -0.756  -7.806  -4.562  0.00  0.00    -0.215 NA
ATOM     14  C   UNL     1      -1.407  -7.517  -3.443  0.00  0.00    +0.191 A 
ATOM     15  N   UNL     1      -0.968  -6.577  -2.614  0.00  0.00    -0.206 NA
ATOM     16  C   UNL     1       3.860  -5.438  -6.385  0.00  0.00    +0.052 C 
ATOM     17  C   UNL     1       2.750  -4.419  -3.748  0.00  0.00    +0.045 C 
ATOM     18  H   UNL     1       1.449  -2.769  -0.014  0.00  0.00    -0.082 HD
ENDROOT
BRANCH   1  19
ATOM     19  C   UNL     1       0.279  -2.842   1.655  0.00  0.00    -0.079 C 
BRANCH  19  21
ATOM     20  C   UNL     1       1.087  -2.393   3.976  0.00  0.00    +0.002 C 
ATOM     21  C   UNL     1       1.493  -2.885   2.586  0.00  0.00    -0.022 C 
ENDBRANCH  19  21
ENDBRANCH   1  19
BRANCH  14  22
ATOM     22  S   UNL     1      -2.877  -8.403  -3.045  0.00  0.00    -0.081 S 
BRANCH  22  23
ATOM     23  C   UNL     1      -3.079  -9.562  -4.426  0.00  0.00    +0.112 C 
BRANCH  23  24
ATOM     24  C   UNL     1      -4.318 -10.392  -4.208  0.00  0.00    -0.034 A 
ATOM     25  C   UNL     1      -4.236 -11.585  -3.514  0.00  0.00    +0.008 A 
ATOM     26  C   UNL     1      -5.372 -12.347  -3.314  0.00  0.00    -0.050 A 
ATOM     27  C   UNL     1      -6.590 -11.916  -3.807  0.00  0.00    +0.003 A 
ATOM     28  C   UNL     1      -6.671 -10.723  -4.500  0.00  0.00    +0.004 A 
ATOM     29  C   UNL     1      -5.536  -9.958  -4.696  0.00  0.00    -0.046 A 
ATOM     30  C   UNL     1      -5.626  -8.655  -5.447  0.00  0.00    +0.044 C 
ATOM     31  C   UNL     1      -5.283 -13.648  -2.559  0.00  0.00    +0.044 C 
ENDBRANCH  23  24
ENDBRANCH  22  23
ENDBRANCH  14  22
TORSDOF 5
