REMARK  Name = ZINC12391035
REMARK  5 active torsions:
REMARK  status: ('A' for Active; 'I' for Inactive)
REMARK    1  A    between atoms: C_2  and  C_3
REMARK    2  A    between atoms: C_3  and  O_4
REMARK    3  A    between atoms: O_4  and  C_5
REMARK    4  A    between atoms: C_8  and  C_11
REMARK    5  A    between atoms: C_17  and  C_19
REMARK                            x       y       z     vdW  Elec       q    Type
REMARK                         _______ _______ _______ _____ _____    ______ ____
ROOT
ATOM      1  C   UNL     1      -2.743   8.044  -1.973  0.00  0.00    +0.156 A 
ATOM      2  C   UNL     1      -2.131   7.187  -0.950  0.00  0.00    +0.197 A 
ATOM      3  N   UNL     1      -1.604   7.953  -0.036  0.00  0.00    -0.033 NA
ATOM      4  O   UNL     1      -1.844   9.300  -0.403  0.00  0.00    -0.240 OA
ATOM      5  N   UNL     1      -2.564   9.291  -1.623  0.00  0.00    -0.047 NA
ATOM      6  N   UNL     1      -2.112   5.794  -0.958  0.00  0.00    -0.265 N 
ATOM      7  C   UNL     1      -1.510   5.123   0.044  0.00  0.00    +0.225 C 
ATOM      8  O   UNL     1      -0.985   5.731   0.952  0.00  0.00    -0.275 OA
ATOM      9  H   UNL     1      -2.533   5.307  -1.684  0.00  0.00    +0.156 HD
ENDROOT
BRANCH   7  10
ATOM     10  C   UNL     1      -1.490   3.616   0.036  0.00  0.00    +0.048 C 
ATOM     11  C   UNL     1      -0.773   3.123  -1.223  0.00  0.00    +0.019 C 
ATOM     12  C   UNL     1      -0.753   1.593  -1.232  0.00  0.00    -0.009 C 
ATOM     13  C   UNL     1      -0.013   1.086   0.008  0.00  0.00    +0.007 C 
ATOM     14  C   UNL     1      -0.729   1.579   1.267  0.00  0.00    -0.009 C 
ATOM     15  C   UNL     1      -0.750   3.109   1.275  0.00  0.00    +0.019 C 
ATOM     16  C   UNL     1      -2.164   1.050   1.278  0.00  0.00    +0.007 C 
ATOM     17  C   UNL     1      -2.904   1.556   0.038  0.00  0.00    -0.009 C 
ATOM     18  C   UNL     1      -2.188   1.063  -1.221  0.00  0.00    +0.007 C 
ATOM     19  C   UNL     1      -2.925   3.086   0.047  0.00  0.00    +0.019 C 
ENDBRANCH   7  10
BRANCH   1  23
ATOM     20  C   UNL     1      -4.757   6.702  -5.470  0.00  0.00    +0.121 A 
ATOM     21  C   UNL     1      -5.194   7.845  -4.814  0.00  0.00    +0.046 A 
ATOM     22  C   UNL     1      -4.543   8.283  -3.680  0.00  0.00    +0.014 A 
ATOM     23  C   UNL     1      -3.445   7.576  -3.192  0.00  0.00    +0.007 A 
ATOM     24  C   UNL     1      -3.005   6.431  -3.855  0.00  0.00    +0.014 A 
ATOM     25  C   UNL     1      -3.663   5.995  -4.986  0.00  0.00    +0.046 A 
BRANCH  20  26
ATOM     26  O   UNL     1      -5.400   6.273  -6.587  0.00  0.00    -0.488 OA
BRANCH  26  27
ATOM     27  C   UNL     1      -4.897   5.090  -7.211  0.00  0.00    +0.256 C 
BRANCH  27  29
ATOM     28  C   UNL     1      -5.147   4.434  -9.549  0.00  0.00    +0.007 C 
ATOM     29  C   UNL     1      -5.730   4.771  -8.426  0.00  0.00    +0.006 C 
ENDBRANCH  27  29
ENDBRANCH  26  27
ENDBRANCH  20  26
ENDBRANCH   1  23
TORSDOF 5
