REMARK  Name = ZINC35594689
REMARK  12 active torsions:
REMARK  status: ('A' for Active; 'I' for Inactive)
REMARK    1  A    between atoms: C_1  and  C_2
REMARK    2  A    between atoms: C_2  and  C_3
REMARK    3  A    between atoms: C_3  and  C_5
REMARK    4  A    between atoms: C_3  and  N_6
REMARK    5  A    between atoms: C_7  and  C_9
REMARK    6  A    between atoms: C_9  and  N_10
REMARK    7  A    between atoms: C_13  and  C_23
REMARK    8  A    between atoms: N_15  and  C_16
REMARK    9  A    between atoms: C_23  and  C_24
REMARK   10  A    between atoms: C_23  and  C_25
REMARK   11  A    between atoms: C_23  and  C_26
REMARK   12  A    between atoms: C_27  and  C_33
REMARK                            x       y       z     vdW  Elec       q    Type
REMARK                         _______ _______ _______ _____ _____    ______ ____
ROOT
ATOM      1  N   UNL     1      -8.826   1.934  -5.046  0.00  0.00    -0.246 N 
ATOM      2  C   UNL     1      -8.546   0.724  -4.394  0.00  0.00    +0.136 A 
ATOM      3  C   UNL     1      -9.320  -0.381  -4.490  0.00  0.00    +0.034 A 
ATOM      4  C   UNL     1      -8.741  -1.381  -3.709  0.00  0.00    +0.075 A 
ATOM      5  N   UNL     1      -7.652  -0.896  -3.163  0.00  0.00    -0.169 NA
ATOM      6  N   UNL     1      -7.502   0.436  -3.581  0.00  0.00    -0.218 N 
ATOM      7  C   UNL     1     -10.580  -0.480  -5.313  0.00  0.00    +0.118 C 
ATOM      8  S   UNL     1     -11.902   0.463  -4.470  0.00  0.00    -0.138 S 
ATOM      9  C   UNL     1     -11.001   1.942  -3.897  0.00  0.00    +0.166 C 
ATOM     10  C   UNL     1     -10.060   2.438  -4.952  0.00  0.00    +0.231 C 
ATOM     11  O   UNL     1     -10.422   3.298  -5.726  0.00  0.00    -0.274 OA
ENDROOT
BRANCH   6  12
ATOM     12  C   UNL     1      -6.463   1.307  -3.223  0.00  0.00    +0.069 A 
ATOM     13  C   UNL     1      -6.749   2.613  -2.848  0.00  0.00    +0.028 A 
ATOM     14  C   UNL     1      -5.724   3.469  -2.495  0.00  0.00    +0.003 A 
ATOM     15  C   UNL     1      -4.414   3.027  -2.515  0.00  0.00    +0.020 A 
ATOM     16  C   UNL     1      -4.125   1.726  -2.889  0.00  0.00    +0.043 A 
ATOM     17  C   UNL     1      -5.148   0.863  -3.237  0.00  0.00    +0.047 A 
ATOM     18 CL   UNL     1      -2.479   1.175  -2.914  0.00  0.00    -0.083 Cl
ENDBRANCH   6  12
BRANCH   7  19
ATOM     19  C   UNL     1     -10.988  -1.925  -5.442  0.00  0.00    +0.007 A 
ATOM     20  C   UNL     1     -11.854  -2.638  -4.683  0.00  0.00    +0.012 A 
ATOM     21  C   UNL     1     -12.078  -3.967  -4.990  0.00  0.00    +0.008 A 
ATOM     22  C   UNL     1     -11.424  -4.518  -6.042  0.00  0.00    +0.045 A 
ATOM     23  S   UNL     1     -10.460  -3.139  -6.640  0.00  0.00    -0.100 S 
ENDBRANCH   7  19
BRANCH   4  24
ATOM     24  C   UNL     1      -9.274  -2.778  -3.523  0.00  0.00    +0.007 C 
ATOM     25  C   UNL     1      -9.106  -3.566  -4.824  0.00  0.00    +0.017 C 
ATOM     26  C   UNL     1      -8.501  -3.475  -2.401  0.00  0.00    +0.017 C 
ATOM     27  C   UNL     1     -10.758  -2.713  -3.156  0.00  0.00    +0.017 C 
ENDBRANCH   4  24
BRANCH   1  28
ATOM     28  C   UNL     1      -7.787   2.633  -5.807  0.00  0.00    +0.210 C 
BRANCH  28  30
ATOM     29  N   UNL     1      -7.098   2.853  -8.172  0.00  0.00    -0.311 N 
ATOM     30  C   UNL     1      -7.890   2.253  -7.262  0.00  0.00    +0.231 C 
ATOM     31  O   UNL     1      -8.685   1.408  -7.614  0.00  0.00    -0.274 OA
ATOM     32  H   UNL     1      -6.412   3.476  -7.884  0.00  0.00    +0.149 HD
BRANCH  29  33
ATOM     33  C   UNL     1      -7.272   2.566  -9.598  0.00  0.00    +0.070 C 
ATOM     34  C   UNL     1      -8.277   3.551 -10.198  0.00  0.00    +0.028 C 
BRANCH  33  36
ATOM     35  C   UNL     1      -4.961   1.639  -9.802  0.00  0.00    +0.005 C 
ATOM     36  C   UNL     1      -5.928   2.707 -10.315  0.00  0.00    +0.018 C 
ENDBRANCH  33  36
ENDBRANCH  29  33
ENDBRANCH  28  30
ENDBRANCH   1  28
TORSDOF 7
