REMARK  Name = ZINC20451986
REMARK  11 active torsions:
REMARK  status: ('A' for Active; 'I' for Inactive)
REMARK    1  A    between atoms: C_4  and  N_7
REMARK    2  A    between atoms: N_7  and  C_8
REMARK    3  A    between atoms: N_7  and  S_23
REMARK    4  A    between atoms: C_8  and  C_9
REMARK    5  A    between atoms: N_11  and  C_12
REMARK    6  A    between atoms: C_12  and  C_13
REMARK    7  A    between atoms: C_13  and  S_14
REMARK    8  A    between atoms: S_14  and  C_15
REMARK    9  A    between atoms: C_15  and  C_16
REMARK   10  A    between atoms: S_23  and  C_26
REMARK   11  A    between atoms: C_31  and  N_32
REMARK                            x       y       z     vdW  Elec       q    Type
REMARK                         _______ _______ _______ _____ _____    ______ ____
ROOT
ATOM      1  N   UNL     1       3.464  -0.351  -0.117  0.00  0.00    -0.194 N 
ENDROOT
BRANCH   1   5
ATOM      2  C   UNL     1       0.133   2.115  -0.515  0.00  0.00    +0.000 A 
ATOM      3  C   UNL     1       1.342   2.649  -0.108  0.00  0.00    +0.002 A 
ATOM      4  C   UNL     1       2.449   1.834   0.025  0.00  0.00    +0.025 A 
ATOM      5  C   UNL     1       2.347   0.476  -0.250  0.00  0.00    +0.052 A 
ATOM      6  C   UNL     1       1.131  -0.057  -0.659  0.00  0.00    +0.025 A 
ATOM      7  C   UNL     1       0.028   0.764  -0.790  0.00  0.00    +0.002 A 
ENDBRANCH   1   5
BRANCH   1   8
ATOM      8  S   UNL     1       4.912   0.100  -0.782  0.00  0.00    +0.077 S 
ATOM      9  O   UNL     1       5.600  -1.099  -1.110  0.00  0.00    -0.150 OA
ATOM     10  O   UNL     1       4.621   1.099  -1.750  0.00  0.00    -0.150 OA
BRANCH   8  11
ATOM     11  C   UNL     1       5.847   0.887   0.488  0.00  0.00    +0.139 A 
ATOM     12  C   UNL     1       5.304   1.042   1.750  0.00  0.00    +0.031 A 
ATOM     13  C   UNL     1       6.039   1.655   2.747  0.00  0.00    +0.002 A 
ATOM     14  C   UNL     1       7.312   2.121   2.480  0.00  0.00    +0.002 A 
ATOM     15  C   UNL     1       7.853   1.970   1.217  0.00  0.00    +0.035 A 
ATOM     16  C   UNL     1       7.120   1.353   0.221  0.00  0.00    +0.153 A 
BRANCH  16  17
ATOM     17  N   UNL     1       7.699   1.192  -1.132  0.00  0.00    +0.058 N 
ATOM     18  O   UNL     1       8.770   1.706  -1.401  0.00  0.00    -0.126 OA
ATOM     19  O   UNL     1       7.104   0.545  -1.976  0.00  0.00    -0.126 OA
ENDBRANCH  16  17
ENDBRANCH   8  11
ENDBRANCH   1   8
BRANCH   1  20
ATOM     20  C   UNL     1       3.356  -1.617   0.611  0.00  0.00    +0.227 C 
BRANCH  20  21
ATOM     21  C   UNL     1       2.853  -2.690  -0.320  0.00  0.00    +0.232 C 
ATOM     22  O   UNL     1       2.608  -2.423  -1.478  0.00  0.00    -0.274 OA
ATOM     23  N   UNL     1       2.674  -3.947   0.134  0.00  0.00    -0.313 N 
ATOM     24  H   UNL     1       2.895  -4.189   1.184  0.00  0.00    +0.149 HD
BRANCH  23  25
ATOM     25  C   UNL     1       2.184  -4.990  -0.771  0.00  0.00    +0.115 C 
BRANCH  25  26
ATOM     26  C   UNL     1       2.071  -6.313  -0.010  0.00  0.00    +0.088 C 
BRANCH  26  27
ATOM     27  S   UNL     1       1.465  -7.604  -1.131  0.00  0.00    -0.154 S 
BRANCH  27  28
ATOM     28  C   UNL     1       1.388  -9.088  -0.090  0.00  0.00    +0.105 C 
BRANCH  28  29
ATOM     29  C   UNL     1       0.893 -10.251  -0.909  0.00  0.00    -0.019 A 
ATOM     30  C   UNL     1      -0.462 -10.520  -0.981  0.00  0.00    +0.006 A 
ATOM     31  C   UNL     1      -0.916 -11.584  -1.736  0.00  0.00    +0.000 A 
ATOM     32  C   UNL     1      -0.017 -12.387  -2.412  0.00  0.00    +0.001 A 
ATOM     33  C   UNL     1       1.338 -12.123  -2.337  0.00  0.00    +0.020 A 
ATOM     34  C   UNL     1       1.793 -11.055  -1.585  0.00  0.00    +0.045 A 
ATOM     35 CL   UNL     1       3.495 -10.722  -1.490  0.00  0.00    -0.083 Cl
ENDBRANCH  28  29
ENDBRANCH  27  28
ENDBRANCH  26  27
ENDBRANCH  25  26
ENDBRANCH  23  25
ENDBRANCH  20  21
ENDBRANCH   1  20
TORSDOF 11
