REMARK  Name = ZINC08448717
REMARK  8 active torsions:
REMARK  status: ('A' for Active; 'I' for Inactive)
REMARK    1  A    between atoms: C_1  and  C_2
REMARK    2  A    between atoms: C_2  and  C_3
REMARK    3  A    between atoms: C_2  and  C_4
REMARK    4  A    between atoms: C_2  and  C_5
REMARK    5  A    between atoms: C_8  and  C_11
REMARK    6  A    between atoms: C_14  and  C_16
REMARK    7  A    between atoms: N_18  and  N_19
REMARK    8  A    between atoms: N_19  and  C_20
REMARK                            x       y       z     vdW  Elec       q    Type
REMARK                         _______ _______ _______ _____ _____    ______ ____
ROOT
ATOM      1  C   UNL     1       4.202  -3.831  -5.561  0.00  0.00    +0.233 C 
ATOM      2  O   UNL     1       3.423  -4.005  -6.474  0.00  0.00    -0.274 OA
ATOM      3  N   UNL     1       5.287  -4.621  -5.441  0.00  0.00    -0.237 N 
ATOM      4  H   UNL     1       5.910  -4.481  -4.710  0.00  0.00    +0.173 HD
ENDROOT
BRANCH   1   7
ATOM      5  C   UNL     1       2.707  -1.868  -4.752  0.00  0.00    +0.032 C 
ATOM      6  C   UNL     1       4.090  -1.287  -5.052  0.00  0.00    +0.022 C 
ATOM      7  C   UNL     1       3.956  -2.730  -4.561  0.00  0.00    +0.084 C 
BRANCH   5  11
ATOM      8  C   UNL     1       0.707  -0.490  -1.238  0.00  0.00    -0.042 A 
ATOM      9  C   UNL     1       0.036  -1.284  -2.148  0.00  0.00    +0.004 A 
ATOM     10  C   UNL     1       0.683  -1.730  -3.286  0.00  0.00    +0.004 A 
ATOM     11  C   UNL     1       2.001  -1.381  -3.513  0.00  0.00    -0.044 A 
ATOM     12  C   UNL     1       2.672  -0.586  -2.603  0.00  0.00    +0.004 A 
ATOM     13  C   UNL     1       2.024  -0.137  -1.467  0.00  0.00    +0.004 A 
BRANCH   8  15
ATOM     14  C   UNL     1      -0.019   1.526   0.010  0.00  0.00    +0.015 C 
ATOM     15  C   UNL     1       0.002  -0.004   0.002  0.00  0.00    -0.013 C 
ATOM     16  C   UNL     1       0.742  -0.511   1.242  0.00  0.00    +0.015 C 
ATOM     17  C   UNL     1      -1.433  -0.534   0.013  0.00  0.00    +0.015 C 
ENDBRANCH   8  15
ENDBRANCH   5  11
ENDBRANCH   1   7
BRANCH   3  18
ATOM     18  N   UNL     1       5.515  -5.644  -6.370  0.00  0.00    -0.271 N 
ATOM     19  H   UNL     1       4.892  -5.784  -7.101  0.00  0.00    +0.169 HD
BRANCH  18  20
ATOM     20  C   UNL     1       6.596  -6.430  -6.250  0.00  0.00    +0.099 C 
ATOM     21  C   UNL     1       6.823  -7.450  -7.177  0.00  0.00    +0.039 C 
ATOM     22  C   UNL     1       5.929  -7.664  -8.250  0.00  0.00    +0.028 C 
ATOM     23  C   UNL     1       6.168  -8.661  -9.142  0.00  0.00    +0.020 C 
ATOM     24  C   UNL     1       7.282  -9.489  -9.027  0.00  0.00    +0.034 C 
ATOM     25  C   UNL     1       8.182  -9.336  -8.017  0.00  0.00    +0.066 C 
ATOM     26  C   UNL     1       8.000  -8.320  -7.062  0.00  0.00    +0.201 C 
ATOM     27  O   UNL     1       8.803  -8.168  -6.151  0.00  0.00    -0.286 OA
ATOM     28 BR   UNL     1       9.680 -10.485  -7.903  0.00  0.00    -0.046 Br
ATOM     29 BR   UNL     1       4.959  -8.932 -10.571  0.00  0.00    -0.050 Br
ENDBRANCH  18  20
ENDBRANCH   3  18
TORSDOF 5
