REMARK  Name = ZINC15231381
REMARK  10 active torsions:
REMARK  status: ('A' for Active; 'I' for Inactive)
REMARK    1  A    between atoms: C_1  and  C_2
REMARK    2  A    between atoms: C_5  and  S_8
REMARK    3  A    between atoms: S_8  and  N_11
REMARK    4  A    between atoms: N_11  and  C_12
REMARK    5  A    between atoms: N_11  and  C_21
REMARK    6  A    between atoms: C_12  and  C_13
REMARK    7  A    between atoms: C_21  and  C_22
REMARK    8  A    between atoms: N_24  and  N_25
REMARK    9  A    between atoms: C_26  and  C_27
REMARK   10  A    between atoms: C_32  and  N_33
REMARK                            x       y       z     vdW  Elec       q    Type
REMARK                         _______ _______ _______ _____ _____    ______ ____
ROOT
ATOM      1  N   UNL     1      -8.611   1.470  -0.298  0.00  0.00    -0.163 NA
ENDROOT
BRANCH   1   2
ATOM      2  S   UNL     1      -9.292   1.522  -1.807  0.00  0.00    +0.062 S 
ATOM      3  O   UNL     1      -9.970   2.767  -1.903  0.00  0.00    -0.153 OA
ATOM      4  O   UNL     1      -8.278   1.134  -2.724  0.00  0.00    -0.153 OA
BRANCH   2   9
ATOM      5  C   UNL     1     -13.529  -2.769  -2.003  0.00  0.00    +0.044 C 
ATOM      6  C   UNL     1     -12.471  -1.697  -1.954  0.00  0.00    -0.050 A 
ATOM      7  C   UNL     1     -12.799  -0.421  -1.536  0.00  0.00    +0.005 A 
ATOM      8  C   UNL     1     -11.828   0.562  -1.492  0.00  0.00    +0.029 A 
ATOM      9  C   UNL     1     -10.530   0.269  -1.864  0.00  0.00    +0.106 A 
ATOM     10  C   UNL     1     -10.203  -1.006  -2.286  0.00  0.00    +0.029 A 
ATOM     11  C   UNL     1     -11.172  -1.991  -2.326  0.00  0.00    +0.005 A 
ENDBRANCH   2   9
ENDBRANCH   1   2
BRANCH   1  12
ATOM     12  C   UNL     1      -9.062   2.398   0.742  0.00  0.00    +0.149 C 
BRANCH  12  13
ATOM     13  C   UNL     1      -9.720   1.623   1.855  0.00  0.00    +0.022 A 
ATOM     14  C   UNL     1     -11.085   1.388   1.822  0.00  0.00    +0.129 A 
ATOM     15  C   UNL     1     -11.687   0.671   2.842  0.00  0.00    +0.039 A 
ATOM     16  C   UNL     1     -10.929   0.202   3.898  0.00  0.00    +0.004 A 
ATOM     17  C   UNL     1      -9.568   0.442   3.933  0.00  0.00    +0.020 A 
ATOM     18  C   UNL     1      -8.963   1.153   2.912  0.00  0.00    +0.048 A 
ATOM     19 CL   UNL     1      -7.254   1.453   2.957  0.00  0.00    -0.083 Cl
ATOM     20  F   UNL     1     -11.826   1.852   0.793  0.00  0.00    -0.205 F 
ENDBRANCH  12  13
ENDBRANCH   1  12
BRANCH   1  21
ATOM     21  C   UNL     1      -7.558   0.495  -0.004  0.00  0.00    +0.207 C 
BRANCH  21  22
ATOM     22  C   UNL     1      -6.209   1.140  -0.197  0.00  0.00    +0.248 C 
ATOM     23  O   UNL     1      -6.135   2.299  -0.546  0.00  0.00    -0.273 OA
ATOM     24  N   UNL     1      -5.085   0.428   0.019  0.00  0.00    -0.206 N 
ATOM     25  H   UNL     1      -5.144  -0.499   0.298  0.00  0.00    +0.177 HD
BRANCH  24  26
ATOM     26  N   UNL     1      -3.832   1.027  -0.160  0.00  0.00    -0.188 NA
ATOM     27  C   UNL     1      -2.749   0.342   0.047  0.00  0.00    +0.140 C 
BRANCH  27  28
ATOM     28  C   UNL     1      -1.430   0.973  -0.142  0.00  0.00    +0.025 A 
ATOM     29  C   UNL     1      -1.337   2.342  -0.402  0.00  0.00    +0.012 A 
ATOM     30  C   UNL     1      -0.099   2.926  -0.573  0.00  0.00    +0.001 A 
ATOM     31  C   UNL     1       1.049   2.158  -0.490  0.00  0.00    +0.002 A 
ATOM     32  C   UNL     1       0.965   0.800  -0.238  0.00  0.00    +0.033 A 
ATOM     33  C   UNL     1      -0.267   0.203  -0.067  0.00  0.00    +0.135 A 
BRANCH  33  34
ATOM     34  N   UNL     1      -0.355  -1.250   0.202  0.00  0.00    +0.057 N 
ATOM     35  O   UNL     1       0.649  -1.939   0.163  0.00  0.00    -0.126 OA
ATOM     36  O   UNL     1      -1.432  -1.757   0.463  0.00  0.00    -0.126 OA
ENDBRANCH  33  34
ENDBRANCH  27  28
ENDBRANCH  24  26
ENDBRANCH  21  22
ENDBRANCH   1  21
TORSDOF 9
