REMARK  Name = ZINC45708594
REMARK  8 active torsions:
REMARK  status: ('A' for Active; 'I' for Inactive)
REMARK    1  A    between atoms: C_1  and  C_2
REMARK    2  A    between atoms: N_5  and  C_11
REMARK    3  A    between atoms: C_7  and  C_9
REMARK    4  A    between atoms: C_7  and  C_10
REMARK    5  A    between atoms: C_11  and  C_12
REMARK    6  A    between atoms: C_12  and  C_13
REMARK    7  A    between atoms: C_12  and  C_14
REMARK    8  A    between atoms: C_12  and  N_16
REMARK                            x       y       z     vdW  Elec       q    Type
REMARK                         _______ _______ _______ _____ _____    ______ ____
ROOT
ATOM      1  C   UNL     1       0.810   0.542   0.621  0.00  0.00    +0.039 C 
ATOM      2  C   UNL     1       0.448  -0.910   0.300  0.00  0.00    +0.130 C 
ATOM      3  C   UNL     1      -1.074  -1.075   0.325  0.00  0.00    +0.116 C 
ATOM      4  N   UNL     1      -1.413  -2.486   0.093  0.00  0.00    -0.294 NA
ATOM      5  C   UNL     1      -0.796  -3.345   1.114  0.00  0.00    +0.119 C 
ATOM      6  C   UNL     1       0.723  -3.158   1.081  0.00  0.00    +0.077 C 
ATOM      7  O   UNL     1       1.033  -1.775   1.277  0.00  0.00    -0.368 OA
ATOM      8  C   UNL     1       1.365  -3.988   2.194  0.00  0.00    +0.042 C 
ATOM      9  C   UNL     1       1.265  -3.614  -0.275  0.00  0.00    +0.042 C 
ENDROOT
BRANCH   4  10
ATOM     10  C   UNL     1      -2.869  -2.678   0.052  0.00  0.00    +0.121 C 
BRANCH  10  11
ATOM     11  C   UNL     1      -3.402  -2.246  -1.315  0.00  0.00    +0.114 C 
ATOM     12  C   UNL     1      -4.889  -2.592  -1.414  0.00  0.00    +0.045 C 
BRANCH  11  13
ATOM     13  N   UNL     1      -2.664  -2.947  -2.373  0.00  0.00    -0.312 NA
ATOM     14  H   UNL     1      -1.682  -2.718  -2.342  0.00  0.00    +0.120 HD
ATOM     15  H   UNL     1      -2.805  -3.945  -2.312  0.00  0.00    +0.120 HD
ENDBRANCH  11  13
BRANCH  11  16
ATOM     16  C   UNL     1      -3.226  -0.793  -1.473  0.00  0.00    +0.086 C 
ATOM     17  N   UNL     1      -3.089   0.328  -1.595  0.00  0.00    -0.195 NA
ENDBRANCH  11  16
ENDBRANCH  10  11
ENDBRANCH   4  10
TORSDOF 4
