REMARK  Name = ZINC00918491
REMARK  13 active torsions:
REMARK  status: ('A' for Active; 'I' for Inactive)
REMARK    1  A    between atoms: C_1  and  C_2
REMARK    2  A    between atoms: C_6  and  C_8
REMARK    3  A    between atoms: C_8  and  C_9
REMARK    4  A    between atoms: C_9  and  N_10
REMARK    5  A    between atoms: N_10  and  C_11
REMARK    6  A    between atoms: N_10  and  S_26
REMARK    7  A    between atoms: C_11  and  C_12
REMARK    8  A    between atoms: C_16  and  O_24
REMARK    9  A    between atoms: O_24  and  C_25
REMARK   10  A    between atoms: S_26  and  C_29
REMARK   11  A    between atoms: C_33  and  C_35
REMARK   12  A    between atoms: C_35  and  O_37
REMARK   13  A    between atoms: O_37  and  C_38
REMARK                            x       y       z     vdW  Elec       q    Type
REMARK                         _______ _______ _______ _____ _____    ______ ____
ROOT
ATOM      1  N   UNL     1      -2.920   0.403   1.499  0.00  0.00    -0.172 NA
ENDROOT
BRANCH   1   2
ATOM      2  S   UNL     1      -2.673   0.433  -0.138  0.00  0.00    +0.061 S 
ATOM      3  O   UNL     1      -3.797   1.089  -0.707  0.00  0.00    -0.153 OA
ATOM      4  O   UNL     1      -2.286  -0.882  -0.515  0.00  0.00    -0.153 OA
BRANCH   2   5
ATOM      5  C   UNL     1      -1.281   1.471  -0.436  0.00  0.00    +0.106 A 
ATOM      6  C   UNL     1      -0.001   0.950  -0.359  0.00  0.00    +0.028 A 
ATOM      7  C   UNL     1       1.097   1.757  -0.596  0.00  0.00    +0.003 A 
ATOM      8  C   UNL     1       0.923   3.090  -0.906  0.00  0.00    +0.015 A 
ATOM      9  C   UNL     1      -0.364   3.624  -0.980  0.00  0.00    +0.061 A 
ATOM     10  C   UNL     1      -1.468   2.804  -0.739  0.00  0.00    +0.043 A 
BRANCH   9  11
ATOM     11  C   UNL     1      -0.558   5.051  -1.310  0.00  0.00    +0.339 C 
ATOM     12  O   UNL     1      -1.680   5.513  -1.374  0.00  0.00    -0.245 OA
BRANCH  11  13
ATOM     13  O   UNL     1       0.509   5.840  -1.541  0.00  0.00    -0.464 OA
ATOM     14  C   UNL     1       0.244   7.231  -1.861  0.00  0.00    +0.280 C 
ENDBRANCH  11  13
ENDBRANCH   9  11
ENDBRANCH   2   5
ENDBRANCH   1   2
BRANCH   1  15
ATOM     15  C   UNL     1      -3.881   1.324   2.111  0.00  0.00    +0.114 C 
BRANCH  15  16
ATOM     16  C   UNL     1      -5.255   0.654   2.183  0.00  0.00    +0.052 C 
BRANCH  16  22
ATOM     17  C   UNL     1      -8.649   4.226   1.303  0.00  0.00    +0.044 C 
ATOM     18  C   UNL     1      -7.894   3.353   2.272  0.00  0.00    -0.050 A 
ATOM     19  C   UNL     1      -8.133   3.460   3.630  0.00  0.00    +0.003 A 
ATOM     20  C   UNL     1      -7.441   2.659   4.519  0.00  0.00    +0.001 A 
ATOM     21  C   UNL     1      -6.513   1.748   4.050  0.00  0.00    +0.004 A 
ATOM     22  C   UNL     1      -6.270   1.644   2.693  0.00  0.00    -0.046 A 
ATOM     23  C   UNL     1      -6.963   2.445   1.804  0.00  0.00    +0.007 A 
ENDBRANCH  16  22
ENDBRANCH  15  16
ENDBRANCH   1  15
BRANCH   1  24
ATOM     24  C   UNL     1      -2.179  -0.545   2.334  0.00  0.00    +0.150 C 
BRANCH  24  25
ATOM     25  C   UNL     1      -3.055  -1.730   2.649  0.00  0.00    +0.033 A 
ATOM     26  C   UNL     1      -3.004  -2.834   1.863  0.00  0.00    +0.020 A 
ATOM     27  C   UNL     1      -3.864  -3.971   2.198  0.00  0.00    +0.002 A 
ATOM     28  C   UNL     1      -3.851  -5.138   1.427  0.00  0.00    +0.055 A 
ATOM     29  C   UNL     1      -4.678  -6.189   1.767  0.00  0.00    +0.121 A 
ATOM     30  C   UNL     1      -5.523  -6.090   2.871  0.00  0.00    +0.047 A 
ATOM     31  C   UNL     1      -5.545  -4.946   3.637  0.00  0.00    +0.030 A 
ATOM     32  C   UNL     1      -4.719  -3.876   3.312  0.00  0.00    +0.049 A 
ATOM     33  N   UNL     1      -4.726  -2.721   4.068  0.00  0.00    -0.322 N 
ATOM     34  H   UNL     1      -5.334  -2.654   4.859  0.00  0.00    +0.169 HD
ATOM     35  C   UNL     1      -3.929  -1.684   3.755  0.00  0.00    +0.254 A 
ATOM     36  O   UNL     1      -3.962  -0.680   4.446  0.00  0.00    -0.268 OA
BRANCH  29  37
ATOM     37  O   UNL     1      -4.670  -7.326   1.021  0.00  0.00    -0.495 OA
ATOM     38  C   UNL     1      -5.551  -8.375   1.428  0.00  0.00    +0.277 C 
ENDBRANCH  29  37
ENDBRANCH  24  25
ENDBRANCH   1  24
TORSDOF 10
