REMARK  Name = ZINC39483137
REMARK  9 active torsions:
REMARK  status: ('A' for Active; 'I' for Inactive)
REMARK    1  A    between atoms: C_1  and  C_2
REMARK    2  A    between atoms: N_4  and  C_5
REMARK    3  A    between atoms: C_5  and  C_13
REMARK    4  A    between atoms: C_6  and  C_7
REMARK    5  A    between atoms: C_13  and  O_15
REMARK    6  A    between atoms: O_15  and  C_16
REMARK    7  A    between atoms: C_16  and  C_17
REMARK    8  A    between atoms: C_20  and  C_30
REMARK    9  A    between atoms: C_23  and  C_25
REMARK                            x       y       z     vdW  Elec       q    Type
REMARK                         _______ _______ _______ _____ _____    ______ ____
ROOT
ATOM      1  C   UNL     1       2.450  -2.998  -0.023  0.00  0.00    +0.330 C 
ENDROOT
BRANCH   1   2
ATOM      2  C   UNL     1       3.664  -2.105   0.016  0.00  0.00    +0.273 C 
ATOM      3  O   UNL     1       3.529  -0.901   0.085  0.00  0.00    -0.270 OA
ATOM      4  N   UNL     1       4.899  -2.644  -0.026  0.00  0.00    -0.179 N 
ATOM      5  C   UNL     1       6.162  -1.891   0.011  0.00  0.00    +0.173 C 
ATOM      6  C   UNL     1       7.241  -2.990  -0.065  0.00  0.00    +0.090 C 
ATOM      7  C   UNL     1       6.449  -4.275  -0.137  0.00  0.00    +0.075 C 
ATOM      8  N   UNL     1       5.186  -4.005  -0.105  0.00  0.00    -0.180 NA
BRANCH   7   9
ATOM      9  C   UNL     1       7.024  -5.621  -0.224  0.00  0.00    +0.035 A 
ATOM     10  C   UNL     1       6.379  -6.843  -0.299  0.00  0.00    +0.017 A 
ATOM     11  C   UNL     1       7.145  -7.983  -0.373  0.00  0.00    +0.008 A 
ATOM     12  C   UNL     1       8.499  -7.876  -0.371  0.00  0.00    +0.046 A 
ATOM     13  S   UNL     1       8.741  -6.110  -0.267  0.00  0.00    -0.095 S 
ENDBRANCH   7   9
BRANCH   5  14
ATOM     14  C   UNL     1       6.280  -1.115   1.297  0.00  0.00    +0.128 A 
ATOM     15  C   UNL     1       6.786   0.125   1.424  0.00  0.00    +0.046 A 
ATOM     16  C   UNL     1       6.704   0.462   2.795  0.00  0.00    +0.041 A 
ATOM     17  C   UNL     1       6.151  -0.591   3.423  0.00  0.00    +0.195 A 
ATOM     18  O   UNL     1       5.891  -1.541   2.510  0.00  0.00    -0.466 OA
ENDBRANCH   5  14
ENDBRANCH   1   2
BRANCH   1  19
ATOM     19  O   UNL     1       1.268  -2.197   0.033  0.00  0.00    -0.451 OA
BRANCH  19  20
ATOM     20  C   UNL     1       0.087  -2.847   0.007  0.00  0.00    +0.354 C 
ATOM     21  O   UNL     1       0.062  -4.061  -0.061  0.00  0.00    -0.244 OA
BRANCH  20  22
ATOM     22  C   UNL     1      -1.170  -2.089   0.062  0.00  0.00    +0.119 C 
ATOM     23  C   UNL     1      -1.540  -1.316  -0.986  0.00  0.00    +0.038 C 
BRANCH  23  24
ATOM     24  C   UNL     1      -0.763  -1.349  -2.234  0.00  0.00    -0.023 A 
ATOM     25  C   UNL     1      -0.111  -2.523  -2.626  0.00  0.00    +0.008 A 
ATOM     26  C   UNL     1       0.614  -2.545  -3.798  0.00  0.00    +0.001 A 
ATOM     27  C   UNL     1       0.699  -1.410  -4.586  0.00  0.00    +0.000 A 
ATOM     28  C   UNL     1       0.057  -0.245  -4.205  0.00  0.00    +0.001 A 
ATOM     29  C   UNL     1      -0.677  -0.208  -3.039  0.00  0.00    +0.008 A 
ENDBRANCH  23  24
BRANCH  22  33
ATOM     30  C   UNL     1      -2.396  -2.847   3.539  0.00  0.00    +0.109 C 
ATOM     31  C   UNL     1      -1.569  -2.854   2.279  0.00  0.00    +0.214 C 
ATOM     32  O   UNL     1      -0.530  -3.478   2.239  0.00  0.00    -0.276 OA
ATOM     33  N   UNL     1      -1.984  -2.166   1.197  0.00  0.00    -0.280 N 
ATOM     34  H   UNL     1      -2.848  -1.724   1.205  0.00  0.00    +0.155 HD
ENDBRANCH  22  33
ENDBRANCH  20  22
ENDBRANCH  19  20
ENDBRANCH   1  19
TORSDOF 8
