REMARK  Name = ZINC09876731
REMARK  9 active torsions:
REMARK  status: ('A' for Active; 'I' for Inactive)
REMARK    1  A    between atoms: C_4  and  C_7
REMARK    2  A    between atoms: C_7  and  C_8
REMARK    3  A    between atoms: C_13  and  N_14
REMARK    4  A    between atoms: C_15  and  C_17
REMARK    5  A    between atoms: C_17  and  S_18
REMARK    6  A    between atoms: S_18  and  C_19
REMARK    7  A    between atoms: C_22  and  C_30
REMARK    8  A    between atoms: N_23  and  C_24
REMARK    9  A    between atoms: C_30  and  N_67
REMARK                            x       y       z     vdW  Elec       q    Type
REMARK                         _______ _______ _______ _____ _____    ______ ____
ROOT
ATOM      1  S   UNL     1      -0.848   1.690   1.497  0.00  0.00    -0.076 S 
ENDROOT
BRANCH   1   2
ATOM      2  C   UNL     1       0.193   0.992   2.735  0.00  0.00    +0.197 A 
ATOM      3  N   UNL     1       1.262   0.256   2.534  0.00  0.00    -0.122 NA
ATOM      4  N   UNL     1       1.781  -0.081   3.660  0.00  0.00    -0.135 NA
ATOM      5  C   UNL     1       1.077   0.408   4.642  0.00  0.00    +0.122 A 
ATOM      6  N   UNL     1       0.039   1.110   4.089  0.00  0.00    -0.276 N 
BRANCH   6   7
ATOM      7  C   UNL     1      -0.973   1.804   4.770  0.00  0.00    +0.050 A 
ATOM      8  C   UNL     1      -0.655   2.909   5.548  0.00  0.00    +0.026 A 
ATOM      9  C   UNL     1      -1.654   3.593   6.213  0.00  0.00    +0.002 A 
ATOM     10  C   UNL     1      -2.967   3.172   6.113  0.00  0.00    +0.000 A 
ATOM     11  C   UNL     1      -3.286   2.068   5.343  0.00  0.00    +0.002 A 
ATOM     12  C   UNL     1      -2.292   1.383   4.671  0.00  0.00    +0.026 A 
ENDBRANCH   6   7
BRANCH   5  13
ATOM     13  C   UNL     1       1.354   0.232   6.113  0.00  0.00    -0.001 C 
BRANCH  13  19
ATOM     14  C   UNL     1      -0.793  -0.805   6.532  0.00  0.00    -0.078 C 
ATOM     15  C   UNL     1      -1.475  -2.122   6.908  0.00  0.00    -0.019 C 
ATOM     16  C   UNL     1      -1.055  -2.522   8.325  0.00  0.00    -0.004 C 
ATOM     17  C   UNL     1       0.471  -2.640   8.383  0.00  0.00    -0.019 C 
ATOM     18  C   UNL     1       1.096  -1.308   7.963  0.00  0.00    -0.078 C 
ATOM     19  N   UNL     1       0.672  -0.992   6.583  0.00  0.00    +0.384 N 
ATOM     20  H   UNL     1       0.930  -1.773   5.968  0.00  0.00    -0.081 HD
ENDBRANCH  13  19
ENDBRANCH   5  13
ENDBRANCH   1   2
BRANCH   1  21
ATOM     21  C   UNL     1      -0.004   1.101   0.008  0.00  0.00    +0.173 C 
BRANCH  21  23
ATOM     22  N   UNL     1      -0.288   1.272  -2.443  0.00  0.00    -0.285 N 
ATOM     23  C   UNL     1      -0.739   1.590  -1.213  0.00  0.00    +0.227 C 
ATOM     24  O   UNL     1      -1.735   2.270  -1.089  0.00  0.00    -0.275 OA
ATOM     25  H   UNL     1       0.544   0.784  -2.544  0.00  0.00    +0.155 HD
BRANCH  22  31
ATOM     26  C   UNL     1      -1.045   0.823  -4.692  0.00  0.00    -0.022 A 
ATOM     27  C   UNL     1      -1.774   1.192  -5.806  0.00  0.00    +0.006 A 
ATOM     28  C   UNL     1      -2.471   2.386  -5.812  0.00  0.00    +0.000 A 
ATOM     29  C   UNL     1      -2.445   3.212  -4.703  0.00  0.00    +0.002 A 
ATOM     30  C   UNL     1      -1.723   2.845  -3.585  0.00  0.00    +0.023 A 
ATOM     31  C   UNL     1      -1.022   1.646  -3.575  0.00  0.00    +0.037 A 
BRANCH  26  32
ATOM     32  C   UNL     1      -0.281  -0.476  -4.688  0.00  0.00    +0.072 C 
BRANCH  32  36
ATOM     33  C   UNL     1      -2.669  -3.530  -2.894  0.00  0.00    +0.000 A 
ATOM     34  C   UNL     1      -2.740  -3.308  -4.257  0.00  0.00    +0.000 A 
ATOM     35  C   UNL     1      -1.967  -2.320  -4.837  0.00  0.00    +0.004 A 
ATOM     36  C   UNL     1      -1.123  -1.553  -4.055  0.00  0.00    -0.043 A 
ATOM     37  C   UNL     1      -1.049  -1.779  -2.693  0.00  0.00    +0.004 A 
ATOM     38  C   UNL     1      -1.825  -2.764  -2.112  0.00  0.00    +0.000 A 
ENDBRANCH  32  36
ENDBRANCH  26  32
ENDBRANCH  22  31
ENDBRANCH  21  23
ENDBRANCH   1  21
TORSDOF 9
