REMARK  Name = ZINC01669640
REMARK  5 active torsions:
REMARK  status: ('A' for Active; 'I' for Inactive)
REMARK    1  A    between atoms: N_9  and  C1*_10
REMARK    2  A    between atoms: C2*_12  and  O2*_22
REMARK    3  A    between atoms: C3*_14  and  O3*_21
REMARK    4  A    between atoms: C4*_16  and  C5*_19
REMARK    5  A    between atoms: C5*_19  and  O5*_20
REMARK                            x       y       z     vdW  Elec       q    Type
REMARK                         _______ _______ _______ _____ _____    ______ ____
ROOT
ATOM      1  C   UNL     1      -0.016   1.359   0.009  0.00  0.00    +0.203 A 
ATOM      2  N   UNL     1       1.200   1.820   0.000  0.00  0.00    -0.231 NA
ATOM      3  C   UNL     1       2.075   0.785  -0.013  0.00  0.00    +0.147 A 
ATOM      4  C   UNL     1       3.476   0.675  -0.028  0.00  0.00    +0.149 A 
ATOM      5  N   UNL     1       4.016  -0.538  -0.040  0.00  0.00    -0.201 NA
ATOM      6  C   UNL     1       3.261  -1.624  -0.039  0.00  0.00    +0.226 A 
ATOM      7  N   UNL     1       1.945  -1.569  -0.026  0.00  0.00    -0.198 NA
ATOM      8  C   UNL     1       1.316  -0.397  -0.013  0.00  0.00    +0.169 A 
ATOM      9  N   UNL     1       0.002  -0.004   0.002  0.00  0.00    -0.285 N 
ATOM     10 CL   UNL     1       4.033  -3.179  -0.055  0.00  0.00    -0.041 Cl
ATOM     11  N   UNL     1       4.274   1.806  -0.030  0.00  0.00    -0.341 N 
ATOM     12  H   UNL     1       3.868   2.686  -0.021  0.00  0.00    +0.144 HD
ATOM     13  H   UNL     1       5.240   1.717  -0.040  0.00  0.00    +0.144 HD
ENDROOT
BRANCH   9  14
ATOM     14  C1* UNL     1      -1.167  -0.887   0.008  0.00  0.00    +0.253 C 
ATOM     15  C2* UNL     1      -1.525  -1.292  -1.438  0.00  0.00    +0.195 C 
ATOM     16  C3* UNL     1      -3.078  -1.260  -1.414  0.00  0.00    +0.178 C 
ATOM     17  C4* UNL     1      -3.332  -0.088  -0.433  0.00  0.00    +0.177 C 
ATOM     18  O4* UNL     1      -2.295  -0.196   0.558  0.00  0.00    -0.346 OA
BRANCH  16  19
ATOM     19  O3* UNL     1      -3.606  -0.971  -2.710  0.00  0.00    -0.386 OA
ATOM     20  H3* UNL     1      -4.572  -0.941  -2.743  0.00  0.00    +0.210 HD
ENDBRANCH  16  19
BRANCH  15  21
ATOM     21  O2* UNL     1      -1.044  -2.606  -1.731  0.00  0.00    -0.385 OA
ATOM     22  H2* UNL     1      -1.244  -2.906  -2.628  0.00  0.00    +0.210 HD
ENDBRANCH  15  21
BRANCH  17  23
ATOM     23  C5* UNL     1      -4.708  -0.233   0.221  0.00  0.00    +0.190 C 
BRANCH  23  24
ATOM     24  O5* UNL     1      -4.973   0.914   1.031  0.00  0.00    -0.392 OA
ATOM     25  H5* UNL     1      -5.831   0.891   1.477  0.00  0.00    +0.210 HD
ENDBRANCH  23  24
ENDBRANCH  17  23
ENDBRANCH   9  14
TORSDOF 5
