REMARK  Name = ZINC11294859
REMARK  3 active torsions:
REMARK  status: ('A' for Active; 'I' for Inactive)
REMARK    1  A    between atoms: C_1  and  C_2
REMARK    2  A    between atoms: C_7  and  N_8
REMARK    3  A    between atoms: C_12  and  C_13
REMARK                            x       y       z     vdW  Elec       q    Type
REMARK                         _______ _______ _______ _____ _____    ______ ____
ROOT
ATOM      1  N   UNL     1       1.068   2.476   0.100  0.00  0.00    -0.216 N 
ATOM      2  C   UNL     1       0.700   3.768   0.220  0.00  0.00    +0.271 C 
ATOM      3  O   UNL     1       1.428   4.716   0.451  0.00  0.00    -0.268 OA
ATOM      4  C   UNL     1      -0.754   3.801   0.015  0.00  0.00    +0.100 C 
ATOM      5  C   UNL     1      -1.569   4.892   0.043  0.00  0.00    +0.074 C 
ATOM      6  N   UNL     1      -1.123   2.471  -0.221  0.00  0.00    -0.292 N 
ATOM      7  C   UNL     1      -0.011   1.719  -0.155  0.00  0.00    +0.148 C 
ATOM      8  S   UNL     1       0.026   0.022  -0.376  0.00  0.00    -0.018 S 
ATOM      9  H   UNL     1      -2.021   2.150  -0.398  0.00  0.00    +0.154 HD
ENDROOT
BRANCH   5  10
ATOM     10  C   UNL     1      -1.011   6.189   0.152  0.00  0.00    +0.131 A 
ATOM     11  C   UNL     1      -1.726   7.344   0.273  0.00  0.00    +0.058 A 
ATOM     12  C   UNL     1      -0.742   8.422   0.352  0.00  0.00    +0.021 A 
ATOM     13  C   UNL     1      -0.828   9.811   0.482  0.00  0.00    +0.011 A 
ATOM     14  C   UNL     1       0.315  10.558   0.528  0.00  0.00    +0.001 A 
ATOM     15  C   UNL     1       1.559   9.947   0.447  0.00  0.00    +0.004 A 
ATOM     16  C   UNL     1       1.665   8.578   0.319  0.00  0.00    +0.047 A 
ATOM     17  C   UNL     1       0.517   7.797   0.270  0.00  0.00    +0.136 A 
ATOM     18  O   UNL     1       0.309   6.470   0.157  0.00  0.00    -0.455 OA
ENDBRANCH   5  10
BRANCH   1  25
ATOM     19  C   UNL     1       1.976   1.698   2.683  0.00  0.00    +0.045 C 
ATOM     20  C   UNL     1       2.861   1.606   1.467  0.00  0.00    -0.029 A 
ATOM     21  C   UNL     1       4.152   1.128   1.586  0.00  0.00    +0.005 A 
ATOM     22  C   UNL     1       4.966   1.049   0.471  0.00  0.00    +0.000 A 
ATOM     23  C   UNL     1       4.490   1.442  -0.766  0.00  0.00    +0.002 A 
ATOM     24  C   UNL     1       3.199   1.915  -0.893  0.00  0.00    +0.024 A 
ATOM     25  C   UNL     1       2.378   1.996   0.225  0.00  0.00    +0.046 A 
ENDBRANCH   1  25
TORSDOF 2
