REMARK  Name = ZINC42739579
REMARK  10 active torsions:
REMARK  status: ('A' for Active; 'I' for Inactive)
REMARK    1  A    between atoms: C_1  and  C_2
REMARK    2  A    between atoms: C_2  and  C_4
REMARK    3  A    between atoms: C_2  and  N_8
REMARK    4  A    between atoms: C_4  and  C_5
REMARK    5  A    between atoms: C_4  and  C_6
REMARK    6  A    between atoms: C_4  and  C_7
REMARK    7  A    between atoms: N_8  and  C_9
REMARK    8  A    between atoms: N_8  and  C_10
REMARK    9  A    between atoms: C_13  and  C_17
REMARK   10  A    between atoms: C_15  and  N_16
REMARK                            x       y       z     vdW  Elec       q    Type
REMARK                         _______ _______ _______ _____ _____    ______ ____
ROOT
ATOM      1  C   UNL     1      -3.857   0.633   1.634  0.00  0.00    +0.051 A 
ATOM      2  C   UNL     1      -3.401   1.080   0.400  0.00  0.00    +0.026 A 
ATOM      3  C   UNL     1      -4.298   1.377  -0.603  0.00  0.00    +0.015 A 
ATOM      4  C   UNL     1      -5.670   1.231  -0.381  0.00  0.00    +0.038 A 
ATOM      5  C   UNL     1      -6.131   0.782   0.860  0.00  0.00    +0.037 A 
ATOM      6  C   UNL     1      -5.228   0.479   1.861  0.00  0.00    +0.047 A 
ENDROOT
BRANCH   4   7
ATOM      7  C   UNL     1      -6.630   1.550  -1.455  0.00  0.00    +0.242 C 
ATOM      8  O   UNL     1      -7.824   1.422  -1.261  0.00  0.00    -0.270 OA
ATOM      9  N   UNL     1      -6.184   1.983  -2.651  0.00  0.00    -0.325 N 
ATOM     10  H   UNL     1      -5.232   2.084  -2.806  0.00  0.00    +0.145 HD
ATOM     11  H   UNL     1      -6.815   2.193  -3.357  0.00  0.00    +0.145 HD
ENDBRANCH   4   7
BRANCH   6  12
ATOM     12  N   UNL     1      -5.686   0.024   3.104  0.00  0.00    -0.357 N 
ATOM     13  H   UNL     1      -5.051  -0.185   3.807  0.00  0.00    +0.142 HD
ATOM     14  H   UNL     1      -6.637  -0.083   3.261  0.00  0.00    +0.142 HD
ENDBRANCH   6  12
BRANCH   1  15
ATOM     15  N   UNL     1      -2.947   0.334   2.646  0.00  0.00    -0.328 N 
ATOM     16  C   UNL     1      -2.265  -0.963   2.657  0.00  0.00    +0.129 C 
BRANCH  15  18
ATOM     17  C   UNL     1      -2.714   0.626   5.063  0.00  0.00    +0.028 C 
ATOM     18  C   UNL     1      -2.671   1.316   3.697  0.00  0.00    +0.076 C 
BRANCH  18  19
ATOM     19  C   UNL     1      -1.285   1.924   3.477  0.00  0.00    -0.019 C 
ATOM     20  C   UNL     1      -0.264   0.804   3.268  0.00  0.00    +0.012 C 
ATOM     21  C   UNL     1      -1.314   2.825   2.240  0.00  0.00    +0.012 C 
ATOM     22  C   UNL     1      -0.891   2.752   4.702  0.00  0.00    +0.012 C 
ENDBRANCH  18  19
ENDBRANCH  15  18
ENDBRANCH   1  15
TORSDOF 5
