REMARK  Name = ZINC32100549
REMARK  3 active torsions:
REMARK  status: ('A' for Active; 'I' for Inactive)
REMARK    1  A    between atoms: N_20  and  C_21
REMARK    2  A    between atoms: C_24  and  O_27
REMARK    3  A    between atoms: O_27  and  C_28
REMARK                            x       y       z     vdW  Elec       q    Type
REMARK                         _______ _______ _______ _____ _____    ______ ____
ROOT
ATOM      1  C   UNL     1      -0.017   1.375   0.010  0.00  0.00    +0.002 A 
ATOM      2  C   UNL     1       1.161   2.116   0.002  0.00  0.00    +0.007 A 
ATOM      3  C   UNL     1       2.345   1.411  -0.013  0.00  0.00    -0.005 A 
ATOM      4  C   UNL     1       2.378   0.011  -0.020  0.00  0.00    +0.056 A 
ATOM      5  C   UNL     1       1.189  -0.722  -0.013  0.00  0.00    +0.062 A 
ATOM      6  C   UNL     1       0.002  -0.004   0.002  0.00  0.00    +0.022 A 
ATOM      7 CL   UNL     1       1.197  -2.458  -0.022  0.00  0.00    -0.082 Cl
ATOM      8  N   UNL     1       3.687  -0.439  -0.035  0.00  0.00    -0.283 N 
ATOM      9  C   UNL     1       4.572   0.580  -0.040  0.00  0.00    +0.233 C 
ATOM     10  O   UNL     1       5.781   0.485  -0.054  0.00  0.00    -0.274 OA
ATOM     11  C   UNL     1       3.769   1.863  -0.025  0.00  0.00    +0.111 C 
ATOM     12  C   UNL     1       4.078   2.690  -1.271  0.00  0.00    +0.122 C 
ATOM     13  C   UNL     1       3.619   4.112  -1.108  0.00  0.00    +0.220 C 
ATOM     14  O   UNL     1       3.149   4.691  -2.065  0.00  0.00    -0.275 OA
ATOM     15  N   UNL     1       3.711   4.766   0.070  0.00  0.00    -0.270 N 
ATOM     16  C   UNL     1       4.060   4.038   1.206  0.00  0.00    +0.133 A 
ATOM     17  C   UNL     1       4.100   2.667   1.201  0.00  0.00    +0.032 A 
ATOM     18  C   UNL     1       4.479   2.247   2.468  0.00  0.00    +0.141 A 
ATOM     19  N   UNL     1       4.654   3.308   3.220  0.00  0.00    -0.173 NA
ATOM     20  N   UNL     1       4.387   4.451   2.447  0.00  0.00    -0.218 N 
ATOM     21  H   UNL     1       3.939  -1.376  -0.042  0.00  0.00    +0.155 HD
ATOM     22  H   UNL     1       3.540   5.719   0.123  0.00  0.00    +0.156 HD
ENDROOT
BRANCH  20  23
ATOM     23  C   UNL     1       4.449   5.781   2.888  0.00  0.00    +0.068 A 
ATOM     24  C   UNL     1       4.875   6.780   2.023  0.00  0.00    +0.031 A 
ATOM     25  C   UNL     1       4.936   8.089   2.457  0.00  0.00    +0.048 A 
ATOM     26  C   UNL     1       4.572   8.406   3.758  0.00  0.00    +0.130 A 
ATOM     27  C   UNL     1       4.148   7.408   4.623  0.00  0.00    +0.048 A 
ATOM     28  C   UNL     1       4.080   6.100   4.188  0.00  0.00    +0.031 A 
BRANCH  26  29
ATOM     29  O   UNL     1       4.633   9.696   4.185  0.00  0.00    -0.406 OA
BRANCH  29  30
ATOM     30  C   UNL     1       4.244   9.950   5.536  0.00  0.00    +0.575 C 
ATOM     31  F   UNL     1       5.070   9.228   6.404  0.00  0.00    -0.133 F 
ATOM     32  F   UNL     1       4.365  11.318   5.807  0.00  0.00    -0.133 F 
ATOM     33  F   UNL     1       2.915   9.555   5.721  0.00  0.00    -0.133 F 
ENDBRANCH  29  30
ENDBRANCH  26  29
ENDBRANCH  20  23
TORSDOF 3
