REMARK  Name = ZINC12375329
REMARK  8 active torsions:
REMARK  status: ('A' for Active; 'I' for Inactive)
REMARK    1  A    between atoms: C_5  and  C_7
REMARK    2  A    between atoms: N_9  and  C_10
REMARK    3  A    between atoms: C_10  and  C_21
REMARK    4  A    between atoms: C_11  and  C_12
REMARK    5  A    between atoms: C_16  and  N_18
REMARK    6  A    between atoms: N_23  and  C_24
REMARK    7  A    between atoms: C_24  and  C_25
REMARK    8  A    between atoms: C_25  and  C_26
REMARK                            x       y       z     vdW  Elec       q    Type
REMARK                         _______ _______ _______ _____ _____    ______ ____
ROOT
ATOM      1  C   UNL     1      -1.255   5.994  -0.072  0.00  0.00    +0.097 C 
ATOM      2  C   UNL     1      -0.084   5.347   0.127  0.00  0.00    +0.036 C 
ENDROOT
BRANCH   2   3
ATOM      3  C   UNL     1      -0.085   3.929   0.521  0.00  0.00    -0.021 A 
ATOM      4  C   UNL     1      -1.206   3.375   1.149  0.00  0.00    +0.008 A 
ATOM      5  C   UNL     1      -1.201   2.044   1.510  0.00  0.00    +0.003 A 
ATOM      6  C   UNL     1      -0.088   1.260   1.262  0.00  0.00    +0.033 A 
ATOM      7  C   UNL     1       1.024   1.801   0.641  0.00  0.00    +0.127 A 
ATOM      8  C   UNL     1       1.033   3.129   0.269  0.00  0.00    +0.040 A 
BRANCH   7   9
ATOM      9  N   UNL     1       2.207   0.952   0.375  0.00  0.00    +0.056 N 
ATOM     10  O   UNL     1       2.201  -0.221   0.702  0.00  0.00    -0.126 OA
ATOM     11  O   UNL     1       3.187   1.426  -0.171  0.00  0.00    -0.126 OA
ENDBRANCH   7   9
ENDBRANCH   2   3
BRANCH   1  14
ATOM     12  C   UNL     1      -3.443   5.630   0.786  0.00  0.00    +0.250 C 
ATOM     13  O   UNL     1      -3.253   6.503   1.611  0.00  0.00    -0.270 OA
ATOM     14  N   UNL     1      -2.458   5.282  -0.066  0.00  0.00    -0.277 N 
ATOM     15  H   UNL     1      -2.584   4.537  -0.674  0.00  0.00    +0.155 HD
BRANCH  12  20
ATOM     16  C   UNL     1      -6.160   3.232  -0.198  0.00  0.00    +0.001 A 
ATOM     17  C   UNL     1      -7.209   3.675   0.589  0.00  0.00    +0.001 A 
ATOM     18  C   UNL     1      -7.037   4.752   1.440  0.00  0.00    +0.021 A 
ATOM     19  C   UNL     1      -5.815   5.392   1.510  0.00  0.00    +0.053 A 
ATOM     20  C   UNL     1      -4.753   4.950   0.718  0.00  0.00    +0.055 A 
ATOM     21  C   UNL     1      -4.936   3.865  -0.142  0.00  0.00    +0.014 A 
ATOM     22 CL   UNL     1      -5.601   6.744   2.578  0.00  0.00    -0.083 Cl
ENDBRANCH  12  20
ENDBRANCH   1  14
BRANCH   1  23
ATOM     23  C   UNL     1      -1.263   7.448  -0.294  0.00  0.00    +0.258 C 
ATOM     24  O   UNL     1      -2.316   8.030  -0.473  0.00  0.00    -0.269 OA
ATOM     25  N   UNL     1      -0.103   8.135  -0.300  0.00  0.00    -0.310 N 
ATOM     26  H   UNL     1       0.736   7.670  -0.158  0.00  0.00    +0.149 HD
BRANCH  25  27
ATOM     27  C   UNL     1      -0.111   9.583  -0.522  0.00  0.00    +0.112 C 
BRANCH  27  28
ATOM     28  C   UNL     1       1.324  10.113  -0.481  0.00  0.00    +0.093 C 
BRANCH  28  29
ATOM     29  C   UNL     1       1.316  11.602  -0.709  0.00  0.00    +0.110 A 
ATOM     30  N   UNL     1       1.873  12.521   0.126  0.00  0.00    -0.342 N 
ATOM     31  H   UNL     1       2.350  12.331   0.983  0.00  0.00    +0.167 HD
ATOM     32  C   UNL     1       1.656  13.766  -0.431  0.00  0.00    +0.066 A 
ATOM     33  C   UNL     1       1.980  15.063  -0.056  0.00  0.00    +0.028 A 
ATOM     34  C   UNL     1       1.606  16.119  -0.859  0.00  0.00    +0.002 A 
ATOM     35  C   UNL     1       0.910  15.895  -2.038  0.00  0.00    +0.002 A 
ATOM     36  C   UNL     1       0.583  14.626  -2.423  0.00  0.00    +0.030 A 
ATOM     37  C   UNL     1       0.951  13.539  -1.625  0.00  0.00    +0.089 A 
ATOM     38  N   UNL     1       0.781  12.196  -1.735  0.00  0.00    -0.232 NA
ENDBRANCH  28  29
ENDBRANCH  27  28
ENDBRANCH  25  27
ENDBRANCH   1  23
TORSDOF 8
