REMARK  Name = ZINC09339582
REMARK  16 active torsions:
REMARK  status: ('A' for Active; 'I' for Inactive)
REMARK    1  A    between atoms: C_1  and  C_2
REMARK    2  A    between atoms: C_2  and  N_69
REMARK    3  A    between atoms: C_3  and  C_4
REMARK    4  A    between atoms: C_3  and  N_69
REMARK    5  A    between atoms: C_5  and  C_6
REMARK    6  A    between atoms: C_5  and  N_69
REMARK    7  A    between atoms: C_6  and  N_7
REMARK    8  A    between atoms: C_8  and  C_26
REMARK    9  A    between atoms: C_11  and  C_12
REMARK   10  A    between atoms: C_11  and  O_21
REMARK   11  A    between atoms: C_15  and  O_18
REMARK   12  A    between atoms: O_18  and  C_19
REMARK   13  A    between atoms: C_19  and  C_20
REMARK   14  A    between atoms: C_30  and  O_32
REMARK   15  A    between atoms: O_32  and  C_33
REMARK   16  A    between atoms: C_33  and  C_34
REMARK                            x       y       z     vdW  Elec       q    Type
REMARK                         _______ _______ _______ _____ _____    ______ ____
ROOT
ATOM      1  N   UNL     1       0.279  -0.367  -0.955  0.00  0.00    -0.285 N 
ATOM      2  C   UNL     1      -0.276  -0.233  -2.305  0.00  0.00    +0.144 C 
ATOM      3  C   UNL     1       0.724  -0.860  -3.249  0.00  0.00    +0.071 C 
ATOM      4  C   UNL     1       0.620  -0.958  -4.623  0.00  0.00    +0.133 C 
ATOM      5  C   UNL     1       1.778  -1.325  -2.448  0.00  0.00    +0.249 C 
ATOM      6  O   UNL     1       2.777  -1.897  -2.844  0.00  0.00    -0.282 OA
ATOM      7  C   UNL     1       1.462  -1.000  -1.031  0.00  0.00    +0.288 C 
ATOM      8  O   UNL     1       2.171  -1.266  -0.082  0.00  0.00    -0.266 OA
ENDROOT
BRANCH   4   9
ATOM      9  C   UNL     1       1.751  -1.472  -5.411  0.00  0.00    +0.017 A 
ATOM     10  C   UNL     1       3.016  -0.884  -5.290  0.00  0.00    +0.015 A 
ATOM     11  C   UNL     1       4.072  -1.373  -6.025  0.00  0.00    +0.046 A 
ATOM     12  C   UNL     1       3.881  -2.440  -6.896  0.00  0.00    +0.121 A 
ATOM     13  C   UNL     1       2.625  -3.024  -7.024  0.00  0.00    +0.046 A 
ATOM     14  C   UNL     1       1.564  -2.546  -6.289  0.00  0.00    +0.015 A 
BRANCH  12  15
ATOM     15  O   UNL     1       4.924  -2.914  -7.624  0.00  0.00    -0.492 OA
BRANCH  15  16
ATOM     16  C   UNL     1       6.186  -2.270  -7.444  0.00  0.00    +0.225 C 
ATOM     17  C   UNL     1       7.232  -2.937  -8.340  0.00  0.00    +0.048 C 
ENDBRANCH  15  16
ENDBRANCH  12  15
ENDBRANCH   4   9
BRANCH   2  18
ATOM     18  C   UNL     1      -1.596  -0.955  -2.394  0.00  0.00    -0.019 A 
ATOM     19  C   UNL     1      -1.756  -2.181  -1.774  0.00  0.00    +0.006 A 
ATOM     20  C   UNL     1      -2.968  -2.843  -1.849  0.00  0.00    +0.004 A 
ATOM     21  C   UNL     1      -4.018  -2.286  -2.554  0.00  0.00    +0.045 A 
ATOM     22  C   UNL     1      -3.858  -1.060  -3.181  0.00  0.00    +0.121 A 
ATOM     23  C   UNL     1      -2.643  -0.394  -3.099  0.00  0.00    +0.051 A 
BRANCH  22  24
ATOM     24  O   UNL     1      -4.890  -0.510  -3.874  0.00  0.00    -0.488 OA
BRANCH  24  25
ATOM     25  C   UNL     1      -6.111  -1.251  -3.916  0.00  0.00    +0.256 C 
BRANCH  25  26
ATOM     26  C   UNL     1      -7.132  -0.491  -4.724  0.00  0.00    +0.006 C 
ATOM     27  C   UNL     1      -7.862  -1.118  -5.613  0.00  0.00    +0.007 C 
ENDBRANCH  25  26
ENDBRANCH  24  25
ENDBRANCH  22  24
ENDBRANCH   2  18
BRANCH   4  28
ATOM     28  O   UNL     1      -0.519  -0.582  -5.242  0.00  0.00    -0.506 OA
ATOM     29  H   UNL     1      -0.423  -0.719  -6.228  0.00  0.00    +0.292 HD
ENDBRANCH   4  28
BRANCH   1  30
ATOM     30  C   UNL     1      -0.356   0.106   0.277  0.00  0.00    +0.090 C 
BRANCH  30  31
ATOM     31  C   UNL     1       0.092   1.540   0.564  0.00  0.00    -0.060 C 
BRANCH  31  32
ATOM     32  N   UNL     1      -0.665   2.050   1.726  0.00  0.00    +0.380 N 
ATOM     33  H   UNL     1      -1.646   1.757   1.639  0.00  0.00    -0.082 HD
BRANCH  32  35
ATOM     34  C   UNL     1      -1.038   1.853   4.136  0.00  0.00    -0.017 C 
ATOM     35  C   UNL     1      -0.107   1.494   2.976  0.00  0.00    -0.082 C 
ENDBRANCH  32  35
BRANCH  32  36
ATOM     36  C   UNL     1      -0.607   3.526   1.759  0.00  0.00    -0.082 C 
ATOM     37  C   UNL     1      -1.583   4.079   0.719  0.00  0.00    -0.017 C 
ENDBRANCH  32  36
ENDBRANCH  31  32
ENDBRANCH  30  31
ENDBRANCH   1  30
TORSDOF 13
