REMARK  Name = ZINC20001800
REMARK  6 active torsions:
REMARK  status: ('A' for Active; 'I' for Inactive)
REMARK    1  A    between atoms: C_1  and  C_2
REMARK    2  A    between atoms: C_3  and  N_22
REMARK    3  A    between atoms: C_5  and  S_9
REMARK    4  A    between atoms: S_9  and  N_12
REMARK    5  A    between atoms: C_13  and  C_21
REMARK    6  A    between atoms: C_18  and  C_20
REMARK                            x       y       z     vdW  Elec       q    Type
REMARK                         _______ _______ _______ _____ _____    ______ ____
ROOT
ATOM      1  C   UNL     1       9.735  -2.579   2.619  0.00  0.00    +0.047 C 
ATOM      2  C   UNL     1       8.415  -2.203   1.997  0.00  0.00    -0.011 A 
ATOM      3  C   UNL     1       7.553  -3.193   1.542  0.00  0.00    +0.031 A 
ATOM      4  C   UNL     1       6.340  -2.841   0.964  0.00  0.00    +0.051 A 
ATOM      5  C   UNL     1       5.993  -1.510   0.844  0.00  0.00    +0.109 A 
ATOM      6  C   UNL     1       6.852  -0.526   1.298  0.00  0.00    +0.049 A 
ATOM      7  C   UNL     1       8.062  -0.873   1.874  0.00  0.00    +0.047 A 
ATOM      8 CL   UNL     1       9.138   0.366   2.443  0.00  0.00    -0.083 Cl
ENDROOT
BRANCH   5   9
ATOM      9  S   UNL     1       4.454  -1.064   0.111  0.00  0.00    +0.061 S 
ATOM     10  O   UNL     1       3.543  -2.113   0.409  0.00  0.00    -0.153 OA
ATOM     11  O   UNL     1       4.207   0.287   0.475  0.00  0.00    -0.153 OA
BRANCH   9  12
ATOM     12  N   UNL     1       4.671  -1.079  -1.531  0.00  0.00    -0.171 NA
ATOM     13  C   UNL     1       4.264  -2.243  -2.329  0.00  0.00    +0.077 C 
ATOM     14  C   UNL     1       3.338  -1.762  -3.457  0.00  0.00    +0.020 C 
ATOM     15  C   UNL     1       4.046  -0.667  -4.258  0.00  0.00    +0.003 C 
ATOM     16  C   UNL     1       4.349   0.522  -3.344  0.00  0.00    +0.020 C 
ATOM     17  C   UNL     1       5.281   0.069  -2.216  0.00  0.00    +0.077 C 
ATOM     18  C   UNL     1       5.477   1.215  -1.221  0.00  0.00    +0.026 C 
ATOM     19  C   UNL     1       5.502  -2.913  -2.928  0.00  0.00    +0.026 C 
ENDBRANCH   9  12
ENDBRANCH   5   9
BRANCH   3  20
ATOM     20  N   UNL     1       7.906  -4.539   1.664  0.00  0.00    -0.358 N 
ATOM     21  H   UNL     1       7.223  -5.322   1.303  0.00  0.00    +0.142 HD
ATOM     22  H   UNL     1       8.868  -4.816   2.121  0.00  0.00    +0.142 HD
ENDBRANCH   3  20
TORSDOF 3
