REMARK  Name = ZINC42959814
REMARK  8 active torsions:
REMARK  status: ('A' for Active; 'I' for Inactive)
REMARK    1  A    between atoms: C_1  and  C_2
REMARK    2  A    between atoms: C_2  and  C_3
REMARK    3  A    between atoms: C_3  and  C_5
REMARK    4  A    between atoms: C_3  and  N_23
REMARK    5  A    between atoms: C_5  and  C_7
REMARK    6  A    between atoms: C_5  and  S_14
REMARK    7  A    between atoms: S_14  and  C_15
REMARK    8  A    between atoms: C_19  and  N_21
REMARK                            x       y       z     vdW  Elec       q    Type
REMARK                         _______ _______ _______ _____ _____    ______ ____
ROOT
ATOM      1  C   UNL     1       1.027  -2.042   1.334  0.00  0.00    +0.070 C 
ENDROOT
BRANCH   1   2
ATOM      2  C   UNL     1       1.535  -2.470   2.687  0.00  0.00    -0.036 A 
ATOM      3  C   UNL     1       0.773  -2.236   3.817  0.00  0.00    +0.006 A 
ATOM      4  C   UNL     1       1.237  -2.629   5.058  0.00  0.00    +0.015 A 
ATOM      5  C   UNL     1       2.465  -3.256   5.169  0.00  0.00    +0.018 A 
ATOM      6  C   UNL     1       3.228  -3.490   4.039  0.00  0.00    +0.015 A 
ATOM      7  C   UNL     1       2.760  -3.101   2.797  0.00  0.00    +0.006 A 
ATOM      8 BR   UNL     1       3.102  -3.794   6.867  0.00  0.00    -0.050 Br
ENDBRANCH   1   2
BRANCH   1   9
ATOM      9  C   UNL     1       1.111  -0.518   1.217  0.00  0.00    -0.057 C 
BRANCH   9  10
ATOM     10  N   UNL     1       2.482  -0.080   1.513  0.00  0.00    +0.381 N 
ATOM     11  H   UNL     1       2.528   0.928   1.476  0.00  0.00    -0.090 HD
ATOM     12  H   UNL     1       2.744  -0.395   2.434  0.00  0.00    -0.090 HD
ATOM     13  H   UNL     1       3.115  -0.470   0.831  0.00  0.00    -0.090 HD
ENDBRANCH   9  10
BRANCH   9  15
ATOM     14  C   UNL     1       0.125   1.639   2.000  0.00  0.00    +0.002 C 
ATOM     15  C   UNL     1       0.144   0.124   2.212  0.00  0.00    -0.018 C 
ENDBRANCH   9  15
ENDBRANCH   1   9
BRANCH   1  16
ATOM     16  S   UNL     1      -0.698  -2.568   1.141  0.00  0.00    -0.079 S 
BRANCH  16  17
ATOM     17  C   UNL     1      -1.060  -2.229  -0.550  0.00  0.00    +0.192 A 
ATOM     18  N   UNL     1      -0.088  -1.811  -1.347  0.00  0.00    -0.207 NA
ATOM     19  C   UNL     1      -0.325  -1.546  -2.629  0.00  0.00    +0.122 A 
ATOM     20  C   UNL     1      -1.613  -1.711  -3.129  0.00  0.00    +0.086 A 
ATOM     21  C   UNL     1      -2.609  -2.151  -2.261  0.00  0.00    +0.122 A 
ATOM     22  N   UNL     1      -2.297  -2.402  -0.992  0.00  0.00    -0.207 NA
ATOM     23  N   UNL     1       0.698  -1.109  -3.457  0.00  0.00    -0.343 N 
ATOM     24  H   UNL     1       1.594  -0.995  -3.102  0.00  0.00    +0.144 HD
ATOM     25  H   UNL     1       0.518  -0.917  -4.390  0.00  0.00    +0.144 HD
BRANCH  21  26
ATOM     26  N   UNL     1      -3.907  -2.330  -2.714  0.00  0.00    -0.343 N 
ATOM     27  H   UNL     1      -4.126  -2.148  -3.642  0.00  0.00    +0.144 HD
ATOM     28  H   UNL     1      -4.596  -2.637  -2.104  0.00  0.00    +0.144 HD
ENDBRANCH  21  26
ENDBRANCH  16  17
ENDBRANCH   1  16
TORSDOF 7
