REMARK  Name = ZINC36610411
REMARK  9 active torsions:
REMARK  status: ('A' for Active; 'I' for Inactive)
REMARK    1  A    between atoms: C_4  and  N_7
REMARK    2  A    between atoms: N_7  and  C_8
REMARK    3  A    between atoms: C_8  and  C_10
REMARK    4  A    between atoms: C_8  and  C_19
REMARK    5  A    between atoms: C_13  and  N_16
REMARK    6  A    between atoms: N_21  and  C_22
REMARK    7  A    between atoms: C_28  and  C_30
REMARK    8  A    between atoms: C_34  and  O_37
REMARK    9  A    between atoms: C_35  and  O_36
REMARK                            x       y       z     vdW  Elec       q    Type
REMARK                         _______ _______ _______ _____ _____    ______ ____
ROOT
ATOM      1  C   UNL     1       5.231  -2.565  -0.618  0.00  0.00    +0.197 C 
ENDROOT
BRANCH   1   2
ATOM      2  C   UNL     1       5.757  -2.956  -1.975  0.00  0.00    -0.018 A 
ATOM      3  C   UNL     1       4.992  -2.727  -3.104  0.00  0.00    +0.008 A 
ATOM      4  C   UNL     1       5.474  -3.085  -4.349  0.00  0.00    +0.033 A 
ATOM      5  C   UNL     1       6.721  -3.672  -4.465  0.00  0.00    +0.126 A 
ATOM      6  C   UNL     1       7.485  -3.900  -3.336  0.00  0.00    +0.033 A 
ATOM      7  C   UNL     1       7.005  -3.538  -2.091  0.00  0.00    +0.008 A 
BRANCH   5   8
ATOM      8  N   UNL     1       7.237  -4.056  -5.798  0.00  0.00    +0.056 N 
ATOM      9  O   UNL     1       6.568  -3.857  -6.785  0.00  0.00    -0.126 OA
ATOM     10  O   UNL     1       8.327  -4.569  -5.900  0.00  0.00    -0.126 OA
ENDBRANCH   5   8
ENDBRANCH   1   2
BRANCH   1  11
ATOM     11  C   UNL     1       3.829  -3.091  -0.451  0.00  0.00    +0.239 C 
ATOM     12  O   UNL     1       2.912  -2.322  -0.253  0.00  0.00    -0.273 OA
ATOM     13  N   UNL     1       3.593  -4.417  -0.523  0.00  0.00    -0.311 N 
ATOM     14  H   UNL     1       4.327  -5.032  -0.681  0.00  0.00    +0.149 HD
BRANCH  13  15
ATOM     15  C   UNL     1       2.230  -4.928  -0.361  0.00  0.00    +0.073 C 
ATOM     16  C   UNL     1       1.924  -5.102   1.128  0.00  0.00    +0.022 C 
ATOM     17  C   UNL     1       0.500  -5.637   1.296  0.00  0.00    +0.002 C 
ATOM     18  C   UNL     1       0.375  -6.987   0.588  0.00  0.00    +0.000 C 
ATOM     19  C   UNL     1       0.681  -6.813  -0.901  0.00  0.00    +0.002 C 
ATOM     20  C   UNL     1       2.105  -6.279  -1.069  0.00  0.00    +0.022 C 
ENDBRANCH  13  15
ENDBRANCH   1  11
BRANCH   1  21
ATOM     21  N   UNL     1       5.222  -1.105  -0.499  0.00  0.00    -0.251 N 
ATOM     22  C   UNL     1       5.224  -0.528   0.719  0.00  0.00    +0.255 C 
ATOM     23  O   UNL     1       4.840   0.618   0.849  0.00  0.00    -0.269 OA
BRANCH  21  27
ATOM     24  C   UNL     1       5.189   1.263  -3.925  0.00  0.00    +0.000 A 
ATOM     25  C   UNL     1       4.036   0.614  -3.525  0.00  0.00    +0.002 A 
ATOM     26  C   UNL     1       4.044  -0.173  -2.389  0.00  0.00    +0.023 A 
ATOM     27  C   UNL     1       5.211  -0.310  -1.649  0.00  0.00    +0.038 A 
ATOM     28  C   UNL     1       6.367   0.344  -2.055  0.00  0.00    +0.023 A 
ATOM     29  C   UNL     1       6.353   1.129  -3.191  0.00  0.00    +0.002 A 
ENDBRANCH  21  27
BRANCH  22  30
ATOM     30  C   UNL     1       5.693  -1.287   1.894  0.00  0.00    +0.082 A 
ATOM     31  C   UNL     1       5.267  -2.603   2.096  0.00  0.00    +0.017 A 
ATOM     32  C   UNL     1       5.707  -3.308   3.195  0.00  0.00    +0.005 A 
ATOM     33  C   UNL     1       6.572  -2.720   4.103  0.00  0.00    +0.049 A 
ATOM     34  C   UNL     1       7.004  -1.419   3.917  0.00  0.00    +0.159 A 
ATOM     35  C   UNL     1       6.572  -0.695   2.809  0.00  0.00    +0.171 A 
BRANCH  35  36
ATOM     36  O   UNL     1       6.997   0.581   2.619  0.00  0.00    -0.503 OA
ATOM     37  H   UNL     1       6.433   1.249   3.032  0.00  0.00    +0.292 HD
ENDBRANCH  35  36
BRANCH  34  38
ATOM     38  O   UNL     1       7.853  -0.848   4.813  0.00  0.00    -0.503 OA
ATOM     39  H   UNL     1       8.788  -0.979   4.607  0.00  0.00    +0.292 HD
ENDBRANCH  34  38
ENDBRANCH  22  30
ENDBRANCH   1  21
TORSDOF 9
