REMARK  Name = ZINC35888049
REMARK  14 active torsions:
REMARK  status: ('A' for Active; 'I' for Inactive)
REMARK    1  A    between atoms: C_1  and  C_2
REMARK    2  A    between atoms: C_5  and  C_8
REMARK    3  A    between atoms: N_10  and  C_11
REMARK    4  A    between atoms: N_10  and  C_34
REMARK    5  A    between atoms: C_11  and  C_12
REMARK    6  A    between atoms: N_15  and  C_27
REMARK    7  A    between atoms: C_17  and  C_19
REMARK    8  A    between atoms: C_22  and  O_25
REMARK    9  A    between atoms: O_25  and  C_26
REMARK   10  A    between atoms: C_27  and  C_28
REMARK   11  A    between atoms: C_31  and  C_33
REMARK   12  A    between atoms: C_34  and  C_35
REMARK   13  A    between atoms: C_35  and  C_36
REMARK   14  A    between atoms: C_35  and  C_37
REMARK                            x       y       z     vdW  Elec       q    Type
REMARK                         _______ _______ _______ _____ _____    ______ ____
ROOT
ATOM      1  C   UNL     1       0.368  -7.240  -0.120  0.00  0.00    -0.005 C 
ATOM      2  C   UNL     1       1.402  -7.551   0.983  0.00  0.00    -0.073 C 
ATOM      3  N   UNL     1       1.068  -8.928   1.432  0.00  0.00    +0.383 N 
ATOM      4  C   UNL     1       0.721  -9.646   0.178  0.00  0.00    -0.070 C 
ATOM      5  C   UNL     1      -0.081  -8.617  -0.652  0.00  0.00    +0.005 C 
ATOM      6  H   UNL     1       0.279  -8.913   2.060  0.00  0.00    -0.081 HD
ENDROOT
BRANCH   5   7
ATOM      7  C   UNL     1       0.255  -8.748  -2.115  0.00  0.00    -0.046 A 
ATOM      8  C   UNL     1       1.570  -8.659  -2.532  0.00  0.00    +0.007 A 
ATOM      9  C   UNL     1       1.880  -8.778  -3.873  0.00  0.00    +0.046 A 
ATOM     10  C   UNL     1       0.870  -8.986  -4.802  0.00  0.00    +0.120 A 
ATOM     11  C   UNL     1      -0.449  -9.075  -4.380  0.00  0.00    +0.046 A 
ATOM     12  C   UNL     1      -0.753  -8.961  -3.038  0.00  0.00    +0.007 A 
BRANCH  10  13
ATOM     13  O   UNL     1       1.173  -9.103  -6.122  0.00  0.00    -0.495 OA
ATOM     14  C   UNL     1       0.082  -9.316  -7.020  0.00  0.00    +0.277 C 
ENDBRANCH  10  13
ENDBRANCH   5   7
BRANCH   1  15
ATOM     15  C   UNL     1      -0.825  -6.484   0.468  0.00  0.00    +0.110 C 
BRANCH  15  18
ATOM     16  C   UNL     1      -0.844  -4.363  -0.732  0.00  0.00    +0.247 C 
ATOM     17  O   UNL     1      -1.603  -4.835  -1.556  0.00  0.00    -0.270 OA
ATOM     18  N   UNL     1      -0.571  -5.043   0.400  0.00  0.00    -0.297 N 
BRANCH  16  23
ATOM     19  C   UNL     1       1.580   0.773  -1.660  0.00  0.00    +0.044 C 
ATOM     20  C   UNL     1       0.946  -0.572  -1.417  0.00  0.00    -0.050 A 
ATOM     21  C   UNL     1       0.584  -1.367  -2.490  0.00  0.00    +0.004 A 
ATOM     22  C   UNL     1       0.003  -2.599  -2.274  0.00  0.00    +0.013 A 
ATOM     23  C   UNL     1      -0.221  -3.043  -0.970  0.00  0.00    +0.037 A 
ATOM     24  C   UNL     1       0.146  -2.236   0.108  0.00  0.00    +0.013 A 
ATOM     25  C   UNL     1       0.732  -1.009  -0.122  0.00  0.00    +0.004 A 
ENDBRANCH  16  23
BRANCH  18  26
ATOM     26  C   UNL     1      -0.019  -4.340   1.561  0.00  0.00    +0.111 C 
BRANCH  26  27
ATOM     27  C   UNL     1       1.374  -3.808   1.221  0.00  0.00    +0.000 C 
ATOM     28  C   UNL     1       1.745  -2.689   2.196  0.00  0.00    +0.009 C 
ATOM     29  C   UNL     1       2.395  -4.943   1.335  0.00  0.00    +0.009 C 
ENDBRANCH  26  27
ENDBRANCH  18  26
ENDBRANCH  15  18
ENDBRANCH   1  15
BRANCH   3  30
ATOM     30  C   UNL     1       2.230  -9.554   2.077  0.00  0.00    -0.036 C 
BRANCH  30  31
ATOM     31  C   UNL     1       1.833 -10.898   2.631  0.00  0.00    -0.026 A 
ATOM     32  C   UNL     1       1.876 -12.114   2.034  0.00  0.00    +0.009 A 
ATOM     33  C   UNL     1       1.458 -13.224   2.743  0.00  0.00    +0.011 A 
ATOM     34  C   UNL     1       1.016 -13.064   4.014  0.00  0.00    -0.013 A 
ATOM     35  S   UNL     1       1.192 -11.303   4.247  0.00  0.00    -0.100 S 
ATOM     36  C   UNL     1       0.512 -14.104   4.982  0.00  0.00    +0.051 C 
ENDBRANCH  30  31
ENDBRANCH   3  30
TORSDOF 9
