REMARK  Name = ZINC31046863
REMARK  10 active torsions:
REMARK  status: ('A' for Active; 'I' for Inactive)
REMARK    1  A    between atoms: C_4  and  C_7
REMARK    2  A    between atoms: C_7  and  S_8
REMARK    3  A    between atoms: S_8  and  C_9
REMARK    4  A    between atoms: C_9  and  C_10
REMARK    5  A    between atoms: C_10  and  C_11
REMARK    6  A    between atoms: C_11  and  N_12
REMARK    7  A    between atoms: C_13  and  C_15
REMARK    8  A    between atoms: N_20  and  C_22
REMARK    9  A    between atoms: C_22  and  C_23
REMARK   10  A    between atoms: C_25  and  C_28
REMARK                            x       y       z     vdW  Elec       q    Type
REMARK                         _______ _______ _______ _____ _____    ______ ____
ROOT
ATOM      1  C   UNL     1       1.893   5.551  -2.874  0.00  0.00    +0.058 C 
ATOM      2  C   UNL     1       3.026   4.873  -3.650  0.00  0.00    +0.009 C 
ATOM      3  C   UNL     1       2.863   3.354  -3.552  0.00  0.00    -0.018 C 
ATOM      4  C   UNL     1       2.861   2.939  -2.079  0.00  0.00    -0.078 C 
ATOM      5  N   UNL     1       1.759   3.614  -1.380  0.00  0.00    +0.386 N 
ATOM      6  C   UNL     1       1.920   5.073  -1.420  0.00  0.00    -0.065 C 
ATOM      7  H   UNL     1       0.826   3.365  -1.907  0.00  0.00    -0.081 HD
ENDROOT
BRANCH   1   9
ATOM      8  N   UNL     1       2.090   7.691  -4.098  0.00  0.00    -0.315 N 
ATOM      9  C   UNL     1       2.079   7.046  -2.915  0.00  0.00    +0.214 C 
ATOM     10  O   UNL     1       2.218   7.669  -1.884  0.00  0.00    -0.276 OA
ATOM     11  H   UNL     1       1.963   7.127  -5.034  0.00  0.00    +0.149 HD
BRANCH   8  12
ATOM     12  C   UNL     1       2.270   9.145  -4.139  0.00  0.00    +0.105 C 
BRANCH  12  13
ATOM     13  C   UNL     1       2.243   9.622  -5.592  0.00  0.00    +0.029 C 
BRANCH  13  14
ATOM     14  C   UNL     1       2.432  11.139  -5.634  0.00  0.00    +0.071 C 
BRANCH  14  15
ATOM     15  S   UNL     1       2.400  11.705  -7.357  0.00  0.00    -0.156 S 
BRANCH  15  16
ATOM     16  C   UNL     1       2.633  13.500  -7.234  0.00  0.00    +0.104 C 
BRANCH  16  20
ATOM     17  C   UNL     1       2.615  15.210 -11.149  0.00  0.00    +0.000 A 
ATOM     18  C   UNL     1       1.432  15.082 -10.445  0.00  0.00    +0.000 A 
ATOM     19  C   UNL     1       1.438  14.529  -9.178  0.00  0.00    +0.004 A 
ATOM     20  C   UNL     1       2.627  14.103  -8.615  0.00  0.00    -0.038 A 
ATOM     21  C   UNL     1       3.810  14.236  -9.317  0.00  0.00    +0.004 A 
ATOM     22  C   UNL     1       3.804  14.785 -10.586  0.00  0.00    +0.000 A 
ENDBRANCH  16  20
ENDBRANCH  15  16
ENDBRANCH  14  15
ENDBRANCH  13  14
ENDBRANCH  12  13
ENDBRANCH   8  12
ENDBRANCH   1   9
BRANCH   5  23
ATOM     23  C   UNL     1       1.641   3.135   0.003  0.00  0.00    +0.022 C 
BRANCH  23  24
ATOM     24  C   UNL     1       1.235   1.683  -0.001  0.00  0.00    +0.211 A 
ATOM     25  N   UNL     1       2.040   0.650  -0.014  0.00  0.00    -0.193 NA
ATOM     26  C   UNL     1       1.236  -0.437  -0.012  0.00  0.00    +0.202 A 
ATOM     27  N   UNL     1       0.002  -0.004   0.002  0.00  0.00    -0.056 NA
ATOM     28  O   UNL     1      -0.014   1.209   0.009  0.00  0.00    -0.340 OA
BRANCH  26  29
ATOM     29  C   UNL     1       1.672  -1.855  -0.023  0.00  0.00    +0.023 A 
ATOM     30  C   UNL     1       3.030  -2.169  -0.043  0.00  0.00    +0.013 A 
ATOM     31  C   UNL     1       3.431  -3.489  -0.047  0.00  0.00    +0.021 A 
ATOM     32  C   UNL     1       2.486  -4.501  -0.044  0.00  0.00    +0.041 A 
ATOM     33  C   UNL     1       1.136  -4.195  -0.030  0.00  0.00    +0.021 A 
ATOM     34  C   UNL     1       0.726  -2.877  -0.020  0.00  0.00    +0.013 A 
ATOM     35 CL   UNL     1       2.997  -6.161  -0.057  0.00  0.00    -0.084 Cl
ENDBRANCH  26  29
ENDBRANCH  23  24
ENDBRANCH   5  23
TORSDOF 10
