REMARK  Name = ZINC35399404
REMARK  2 active torsions:
REMARK  status: ('A' for Active; 'I' for Inactive)
REMARK    1  A    between atoms: C_1  and  C_2
REMARK    2  A    between atoms: C_6  and  C_8
REMARK                            x       y       z     vdW  Elec       q    Type
REMARK                         _______ _______ _______ _____ _____    ______ ____
ROOT
ATOM      1  C   UNL     1       0.052  -2.845   2.458  0.00  0.00    +0.247 C 
ATOM      2  O   UNL     1      -0.068  -2.234   1.414  0.00  0.00    -0.270 OA
ATOM      3  N   UNL     1       0.172  -4.188   2.442  0.00  0.00    -0.297 N 
ATOM      4  C   UNL     1       0.293  -4.914   1.171  0.00  0.00    +0.110 C 
ATOM      5  C   UNL     1      -0.783  -6.003   1.120  0.00  0.00    +0.051 C 
ATOM      6  C   UNL     1      -0.674  -6.883   2.365  0.00  0.00    +0.075 C 
ATOM      7  C   UNL     1      -0.894  -6.040   3.620  0.00  0.00    +0.051 C 
ATOM      8  C   UNL     1       0.189  -4.952   3.697  0.00  0.00    +0.110 C 
ATOM      9  C   UNL     1      -1.702  -7.984   2.304  0.00  0.00    +0.047 A 
ATOM     10  C   UNL     1      -2.989  -7.969   2.668  0.00  0.00    +0.025 A 
ATOM     11  C   UNL     1      -3.522  -9.247   2.387  0.00  0.00    +0.020 A 
ATOM     12  C   UNL     1      -2.526  -9.998   1.865  0.00  0.00    +0.092 A 
ATOM     13  N   UNL     1      -1.403  -9.240   1.823  0.00  0.00    -0.316 N 
ATOM     14  C   UNL     1      -0.105  -9.572   1.407  0.00  0.00    +0.067 A 
ATOM     15  C   UNL     1       0.165 -10.751   0.741  0.00  0.00    +0.028 A 
ATOM     16  C   UNL     1       1.457 -11.028   0.329  0.00  0.00    +0.002 A 
ATOM     17  C   UNL     1       2.474 -10.126   0.583  0.00  0.00    +0.002 A 
ATOM     18  C   UNL     1       2.213  -8.948   1.257  0.00  0.00    +0.025 A 
ATOM     19  C   UNL     1       0.924  -8.666   1.683  0.00  0.00    +0.052 A 
ATOM     20  N   UNL     1       0.658  -7.503   2.416  0.00  0.00    -0.331 N 
ATOM     21  H   UNL     1       1.356  -7.104   2.959  0.00  0.00    +0.147 HD
ENDROOT
BRANCH   1  27
ATOM     22  C   UNL     1      -1.754   0.759   5.399  0.00  0.00    +0.044 C 
ATOM     23  C   UNL     1      -0.799  -0.383   5.163  0.00  0.00    -0.050 A 
ATOM     24  C   UNL     1       0.096  -0.750   6.152  0.00  0.00    +0.003 A 
ATOM     25  C   UNL     1       0.976  -1.797   5.944  0.00  0.00    +0.001 A 
ATOM     26  C   UNL     1       0.967  -2.482   4.746  0.00  0.00    +0.013 A 
ATOM     27  C   UNL     1       0.067  -2.116   3.744  0.00  0.00    +0.037 A 
ATOM     28  C   UNL     1      -0.822  -1.063   3.963  0.00  0.00    +0.016 A 
ENDBRANCH   1  27
TORSDOF 1
