REMARK  Name = ZINC05777370
REMARK  5 active torsions:
REMARK  status: ('A' for Active; 'I' for Inactive)
REMARK    1  A    between atoms: C_10  and  C_11
REMARK    2  A    between atoms: C_12  and  C_13
REMARK    3  A    between atoms: N_15  and  C_16
REMARK    4  A    between atoms: C_19  and  S_22
REMARK    5  A    between atoms: S_22  and  N_25
REMARK                            x       y       z     vdW  Elec       q    Type
REMARK                         _______ _______ _______ _____ _____    ______ ____
ROOT
ATOM      1  C   UNL     1      -2.448   0.988   0.017  0.00  0.00    +0.241 C 
ATOM      2  O   UNL     1      -2.432  -0.230   0.001  0.00  0.00    -0.270 OA
ATOM      3  N   UNL     1      -3.624   1.645   0.028  0.00  0.00    -0.282 N 
ATOM      4  H   UNL     1      -3.639   2.612   0.108  0.00  0.00    +0.155 HD
ENDROOT
BRANCH   3   5
ATOM      5  C   UNL     1      -4.824   0.934  -0.075  0.00  0.00    +0.034 A 
ATOM      6  C   UNL     1      -5.901   1.483  -0.759  0.00  0.00    +0.025 A 
ATOM      7  C   UNL     1      -7.082   0.776  -0.865  0.00  0.00    +0.030 A 
ATOM      8  C   UNL     1      -7.197  -0.472  -0.281  0.00  0.00    +0.105 A 
ATOM      9  C   UNL     1      -6.129  -1.019   0.405  0.00  0.00    +0.030 A 
ATOM     10  C   UNL     1      -4.942  -0.320   0.510  0.00  0.00    +0.025 A 
BRANCH   8  11
ATOM     11  S   UNL     1      -8.709  -1.369  -0.412  0.00  0.00    +0.056 S 
ATOM     12  O   UNL     1      -9.374  -0.877  -1.568  0.00  0.00    -0.153 OA
ATOM     13  O   UNL     1      -8.382  -2.742  -0.248  0.00  0.00    -0.153 OA
BRANCH  11  14
ATOM     14  N   UNL     1      -9.643  -0.946   0.887  0.00  0.00    -0.204 NA
ATOM     15  H   UNL     1      -9.310  -0.308   1.538  0.00  0.00    +0.144 HD
ATOM     16  H   UNL     1     -10.525  -1.335   0.999  0.00  0.00    +0.144 HD
ENDBRANCH  11  14
ENDBRANCH   8  11
ENDBRANCH   3   5
BRANCH   1  18
ATOM     17  C   UNL     1      -0.013   1.076   0.012  0.00  0.00    +0.013 C 
ATOM     18  C   UNL     1      -1.192   1.736   0.024  0.00  0.00    +0.068 C 
BRANCH  17  28
ATOM     19  C   UNL     1       5.001  -0.130  -0.039  0.00  0.00    +0.001 A 
ATOM     20  C   UNL     1       3.826  -0.878  -0.039  0.00  0.00    +0.001 A 
ATOM     21  C   UNL     1       2.607  -0.268  -0.022  0.00  0.00    +0.009 A 
ATOM     22  C   UNL     1       2.534   1.129  -0.005  0.00  0.00    -0.011 A 
ATOM     23  C   UNL     1       3.726   1.893  -0.004  0.00  0.00    -0.017 A 
ATOM     24  C   UNL     1       4.966   1.231  -0.022  0.00  0.00    +0.008 A 
ATOM     25  C   UNL     1       3.648   3.296   0.014  0.00  0.00    +0.008 A 
ATOM     26  C   UNL     1       2.440   3.925   0.031  0.00  0.00    +0.001 A 
ATOM     27  C   UNL     1       1.246   3.219   0.025  0.00  0.00    +0.008 A 
ATOM     28  C   UNL     1       1.248   1.827   0.013  0.00  0.00    -0.017 A 
ENDBRANCH  17  28
ENDBRANCH   1  18
TORSDOF 5
