REMARK  Name = ZINC12536622
REMARK  11 active torsions:
REMARK  status: ('A' for Active; 'I' for Inactive)
REMARK    1  A    between atoms: C_1  and  N_2
REMARK    2  A    between atoms: N_2  and  C_3
REMARK    3  A    between atoms: N_2  and  C_4
REMARK    4  A    between atoms: C_7  and  S_22
REMARK    5  A    between atoms: C_9  and  N_10
REMARK    6  A    between atoms: C_11  and  C_13
REMARK    7  A    between atoms: C_13  and  N_57
REMARK    8  A    between atoms: C_16  and  C_19
REMARK    9  A    between atoms: S_22  and  N_25
REMARK   10  A    between atoms: N_25  and  C_26
REMARK   11  A    between atoms: N_25  and  C_27
REMARK                            x       y       z     vdW  Elec       q    Type
REMARK                         _______ _______ _______ _____ _____    ______ ____
ROOT
ATOM      1  N   UNL     1       0.961   1.692  -0.043  0.00  0.00    -0.285 N 
ATOM      2  C   UNL     1      -0.087   1.171   0.625  0.00  0.00    +0.201 C 
ATOM      3  O   UNL     1       0.030   0.113   1.207  0.00  0.00    -0.278 OA
ATOM      4  H   UNL     1       0.847   2.496  -0.573  0.00  0.00    +0.155 HD
ENDROOT
BRANCH   1  10
ATOM      5  C   UNL     1       3.378   1.827  -0.128  0.00  0.00    +0.051 A 
ATOM      6  C   UNL     1       4.617   1.207  -0.057  0.00  0.00    +0.027 A 
ATOM      7  C   UNL     1       4.697  -0.155   0.168  0.00  0.00    +0.030 A 
ATOM      8  C   UNL     1       3.544  -0.903   0.321  0.00  0.00    +0.107 A 
ATOM      9  C   UNL     1       2.305  -0.292   0.258  0.00  0.00    +0.053 A 
ATOM     10  C   UNL     1       2.216   1.072   0.027  0.00  0.00    +0.056 A 
BRANCH   5  12
ATOM     11  C   UNL     1       3.978   3.955   0.707  0.00  0.00    +0.129 C 
ATOM     12  N   UNL     1       3.296   3.204  -0.355  0.00  0.00    -0.335 N 
ATOM     13  C   UNL     1       3.834   3.554  -1.676  0.00  0.00    +0.129 C 
ENDBRANCH   5  12
BRANCH   8  14
ATOM     14  S   UNL     1       3.654  -2.638   0.607  0.00  0.00    +0.060 S 
ATOM     15  O   UNL     1       2.423  -3.200   0.173  0.00  0.00    -0.153 OA
ATOM     16  O   UNL     1       4.908  -3.057   0.085  0.00  0.00    -0.153 OA
BRANCH  14  17
ATOM     17  N   UNL     1       3.725  -2.861   2.246  0.00  0.00    -0.183 NA
ATOM     18  C   UNL     1       2.490  -3.033   3.016  0.00  0.00    +0.131 C 
ATOM     19  C   UNL     1       5.022  -2.887   2.926  0.00  0.00    +0.131 C 
ENDBRANCH  14  17
ENDBRANCH   8  14
ENDBRANCH   1  10
BRANCH   2  20
ATOM     20  C   UNL     1      -1.406   1.899   0.644  0.00  0.00    +0.019 C 
BRANCH  20  26
ATOM     21  C   UNL     1      -3.641   1.831   1.572  0.00  0.00    -0.077 C 
ATOM     22  C   UNL     1      -4.612   0.976   2.389  0.00  0.00    -0.006 C 
ATOM     23  C   UNL     1      -4.945  -0.298   1.608  0.00  0.00    +0.071 C 
ATOM     24  C   UNL     1      -3.649  -1.053   1.302  0.00  0.00    -0.006 C 
ATOM     25  C   UNL     1      -2.705  -0.140   0.517  0.00  0.00    -0.077 C 
ATOM     26  N   UNL     1      -2.405   1.056   1.333  0.00  0.00    +0.385 N 
ATOM     27  H   UNL     1      -2.021   0.755   2.236  0.00  0.00    -0.081 HD
BRANCH  23  28
ATOM     28  C   UNL     1      -5.854  -1.172   2.433  0.00  0.00    +0.213 C 
ATOM     29  O   UNL     1      -5.501  -2.289   2.747  0.00  0.00    -0.276 OA
ATOM     30  N   UNL     1      -7.060  -0.712   2.822  0.00  0.00    -0.329 N 
ATOM     31  H   UNL     1      -7.342   0.181   2.572  0.00  0.00    +0.145 HD
ATOM     32  H   UNL     1      -7.645  -1.275   3.353  0.00  0.00    +0.145 HD
ENDBRANCH  23  28
ENDBRANCH  20  26
ENDBRANCH   2  20
TORSDOF 7
