REMARK  Name = ZINC63622978
REMARK  10 active torsions:
REMARK  status: ('A' for Active; 'I' for Inactive)
REMARK    1  A    between atoms: C_1  and  C_2
REMARK    2  A    between atoms: C_5  and  C_8
REMARK    3  A    between atoms: C_8  and  C_10
REMARK    4  A    between atoms: C_10  and  O_11
REMARK    5  A    between atoms: O_11  and  C_12
REMARK    6  A    between atoms: C_12  and  C_14
REMARK    7  A    between atoms: C_14  and  C_16
REMARK    8  A    between atoms: C_14  and  N_26
REMARK    9  A    between atoms: C_16  and  C_17
REMARK   10  A    between atoms: C_27  and  C_29
REMARK                            x       y       z     vdW  Elec       q    Type
REMARK                         _______ _______ _______ _____ _____    ______ ____
ROOT
ATOM      1  C   UNL     1       0.126  -8.726   1.865  0.00  0.00    +0.186 C 
ENDROOT
BRANCH   1   2
ATOM      2  N   UNL     1       0.141  -9.398   3.167  0.00  0.00    -0.298 N 
ATOM      3  C   UNL     1       0.651 -10.640   3.277  0.00  0.00    +0.245 C 
ATOM      4  O   UNL     1       1.098 -11.203   2.297  0.00  0.00    -0.270 OA
ATOM      5  H   UNL     1      -0.216  -8.948   3.949  0.00  0.00    +0.150 HD
BRANCH   3   6
ATOM      6  C   UNL     1       0.666 -11.318   4.590  0.00  0.00    +0.037 A 
ATOM      7  C   UNL     1       0.148 -10.676   5.717  0.00  0.00    +0.014 A 
ATOM      8  C   UNL     1       0.165 -11.314   6.939  0.00  0.00    +0.021 A 
ATOM      9  C   UNL     1       0.695 -12.589   7.051  0.00  0.00    +0.041 A 
ATOM     10  C   UNL     1       1.211 -13.231   5.937  0.00  0.00    +0.021 A 
ATOM     11  C   UNL     1       1.194 -12.605   4.708  0.00  0.00    +0.014 A 
ATOM     12 CL   UNL     1       0.714 -13.385   8.594  0.00  0.00    -0.084 Cl
ENDBRANCH   3   6
ENDBRANCH   1   2
BRANCH   1  13
ATOM     13  C   UNL     1       0.107  -7.233   2.071  0.00  0.00    +0.328 C 
ATOM     14  O   UNL     1       0.107  -6.777   3.190  0.00  0.00    -0.249 OA
BRANCH  13  15
ATOM     15  O   UNL     1       0.091  -6.409   1.011  0.00  0.00    -0.455 OA
BRANCH  15  16
ATOM     16  C   UNL     1       0.075  -5.006   1.280  0.00  0.00    +0.311 C 
BRANCH  16  17
ATOM     17  C   UNL     1       0.058  -4.245  -0.021  0.00  0.00    +0.200 C 
ATOM     18  O   UNL     1       0.060  -4.846  -1.075  0.00  0.00    -0.288 OA
BRANCH  17  23
ATOM     19  C   UNL     1      -0.018   1.503   0.010  0.00  0.00    +0.044 C 
ATOM     20  C   UNL     1       0.002  -0.004   0.002  0.00  0.00    -0.050 A 
ATOM     21  C   UNL     1       0.006  -0.686  -1.202  0.00  0.00    +0.004 A 
ATOM     22  C   UNL     1       0.024  -2.064  -1.218  0.00  0.00    +0.012 A 
ATOM     23  C   UNL     1       0.039  -2.774  -0.013  0.00  0.00    +0.021 A 
ATOM     24  C   UNL     1       0.036  -2.078   1.200  0.00  0.00    +0.012 A 
ATOM     25  C   UNL     1       0.023  -0.699   1.199  0.00  0.00    +0.004 A 
ENDBRANCH  17  23
ENDBRANCH  16  17
ENDBRANCH  15  16
ENDBRANCH  13  15
ENDBRANCH   1  13
BRANCH   1  26
ATOM     26  C   UNL     1      -1.122  -9.148   1.087  0.00  0.00    +0.067 C 
BRANCH  26  27
ATOM     27  C   UNL     1      -1.044 -10.621   0.775  0.00  0.00    -0.039 C 
ATOM     28  C   UNL     1      -1.592 -11.633   1.486  0.00  0.00    -0.001 A 
ATOM     29  C   UNL     1      -2.392 -11.665   2.716  0.00  0.00    +0.010 A 
ATOM     30  C   UNL     1      -2.806 -12.859   3.198  0.00  0.00    +0.001 A 
ATOM     31  C   UNL     1      -2.490 -14.063   2.555  0.00  0.00    +0.002 A 
ATOM     32  C   UNL     1      -1.760 -14.114   1.421  0.00  0.00    +0.026 A 
ATOM     33  C   UNL     1      -1.272 -12.918   0.825  0.00  0.00    +0.043 A 
ATOM     34  N   UNL     1      -0.556 -12.709  -0.253  0.00  0.00    -0.380 N 
ATOM     35  C   UNL     1      -0.344 -11.265  -0.400  0.00  0.00    +0.144 C 
ATOM     36  H   UNL     1      -0.224 -13.394  -0.854  0.00  0.00    +0.160 HD
ENDBRANCH  26  27
ENDBRANCH   1  26
TORSDOF 9
