REMARK  Name = ZINC10165984
REMARK  13 active torsions:
REMARK  status: ('A' for Active; 'I' for Inactive)
REMARK    1  A    between atoms: C_1  and  C_2
REMARK    2  A    between atoms: C_3  and  C_31
REMARK    3  A    between atoms: C_4  and  C_30
REMARK    4  A    between atoms: C_7  and  C_8
REMARK    5  A    between atoms: C_8  and  C_10
REMARK    6  A    between atoms: C_10  and  C_12
REMARK    7  A    between atoms: C_10  and  O_13
REMARK    8  A    between atoms: O_13  and  C_14
REMARK    9  A    between atoms: C_14  and  C_16
REMARK   10  A    between atoms: C_17  and  C_29
REMARK   11  A    between atoms: N_19  and  C_22
REMARK   12  A    between atoms: C_31  and  O_33
REMARK   13  A    between atoms: O_33  and  C_34
REMARK                            x       y       z     vdW  Elec       q    Type
REMARK                         _______ _______ _______ _____ _____    ______ ____
ROOT
ATOM      1  O   UNL     1      -2.311   4.294  -0.318  0.00  0.00    -0.450 OA
ENDROOT
BRANCH   1   2
ATOM      2  C   UNL     1      -1.037   3.691   0.027  0.00  0.00    +0.246 C 
ATOM      3  C   UNL     1      -0.612   4.157   1.421  0.00  0.00    +0.061 C 
BRANCH   2   4
ATOM      4  C   UNL     1      -1.173   2.190   0.020  0.00  0.00    +0.219 C 
ATOM      5  O   UNL     1      -2.276   1.681   0.022  0.00  0.00    -0.287 OA
BRANCH   4  12
ATOM      6  C   UNL     1      -1.196  -0.919   0.009  0.00  0.00    +0.047 C 
ATOM      7  C   UNL     1       0.002  -0.004   0.002  0.00  0.00    -0.008 A 
ATOM      8  C   UNL     1       1.358  -0.394  -0.013  0.00  0.00    +0.083 A 
ATOM      9  C   UNL     1       2.117   0.764  -0.014  0.00  0.00    +0.028 A 
ATOM     10  N   UNL     1       1.290   1.819  -0.001  0.00  0.00    -0.355 N 
ATOM     11  H   UNL     1       1.566   2.749   0.002  0.00  0.00    +0.166 HD
ATOM     12  C   UNL     1      -0.017   1.374   0.010  0.00  0.00    +0.090 A 
ATOM     13  C   UNL     1       3.622   0.828  -0.028  0.00  0.00    +0.064 C 
BRANCH   8  14
ATOM     14  C   UNL     1       1.871  -1.775  -0.025  0.00  0.00    +0.341 C 
ATOM     15  O   UNL     1       2.072  -2.339  -1.082  0.00  0.00    -0.245 OA
BRANCH  14  16
ATOM     16  O   UNL     1       2.117  -2.412   1.137  0.00  0.00    -0.464 OA
ATOM     17  C   UNL     1       2.620  -3.771   1.050  0.00  0.00    +0.280 C 
ENDBRANCH  14  16
ENDBRANCH   8  14
ENDBRANCH   4  12
ENDBRANCH   2   4
ENDBRANCH   1   2
BRANCH   1  18
ATOM     18  C   UNL     1      -2.274   5.484  -0.951  0.00  0.00    +0.345 C 
ATOM     19  O   UNL     1      -1.205   6.002  -1.208  0.00  0.00    -0.245 OA
BRANCH  18  20
ATOM     20  C   UNL     1      -3.527   6.154  -1.331  0.00  0.00    +0.118 A 
ATOM     21  C   UNL     1      -4.224   6.002  -2.552  0.00  0.00    +0.076 A 
ATOM     22  N   UNL     1      -5.285   6.760  -2.509  0.00  0.00    -0.169 NA
ATOM     23  N   UNL     1      -5.321   7.425  -1.279  0.00  0.00    -0.220 N 
ATOM     24  C   UNL     1      -4.248   7.048  -0.559  0.00  0.00    +0.147 A 
ATOM     25 CL   UNL     1      -3.841   7.587   1.040  0.00  0.00    -0.061 Cl
ATOM     26  C   UNL     1      -3.813   5.119  -3.702  0.00  0.00    +0.068 C 
BRANCH  23  27
ATOM     27  C   UNL     1      -6.310   8.327  -0.863  0.00  0.00    +0.067 A 
ATOM     28  C   UNL     1      -6.697   8.370   0.469  0.00  0.00    +0.030 A 
ATOM     29  C   UNL     1      -7.668   9.263   0.878  0.00  0.00    +0.040 A 
ATOM     30  C   UNL     1      -8.265  10.107  -0.043  0.00  0.00    +0.124 A 
ATOM     31  C   UNL     1      -7.884  10.063  -1.374  0.00  0.00    +0.040 A 
ATOM     32  C   UNL     1      -6.909   9.175  -1.785  0.00  0.00    +0.030 A 
ATOM     33  F   UNL     1      -9.219  10.976   0.357  0.00  0.00    -0.205 F 
ENDBRANCH  23  27
ENDBRANCH  18  20
ENDBRANCH   1  18
TORSDOF 8
