REMARK  Name = ZINC00925102
REMARK  12 active torsions:
REMARK  status: ('A' for Active; 'I' for Inactive)
REMARK    1  A    between atoms: C_1  and  C_2
REMARK    2  A    between atoms: C_4  and  C_35
REMARK    3  A    between atoms: C_6  and  S_8
REMARK    4  A    between atoms: S_8  and  C_9
REMARK    5  A    between atoms: C_9  and  C_10
REMARK    6  A    between atoms: C_13  and  S_21
REMARK    7  A    between atoms: N_14  and  C_15
REMARK    8  A    between atoms: S_21  and  C_22
REMARK    9  A    between atoms: C_22  and  C_23
REMARK   10  A    between atoms: N_25  and  C_26
REMARK   11  A    between atoms: C_31  and  O_32
REMARK   12  A    between atoms: O_32  and  C_33
REMARK                            x       y       z     vdW  Elec       q    Type
REMARK                         _______ _______ _______ _____ _____    ______ ____
ROOT
ATOM      1  C   UNL     1       0.058  -2.094   5.323  0.00  0.00    +0.149 A 
ATOM      2  N   UNL     1      -0.984  -2.427   6.031  0.00  0.00    -0.132 NA
ATOM      3  N   UNL     1      -0.614  -2.927   7.155  0.00  0.00    -0.122 NA
ATOM      4  C   UNL     1       0.697  -2.941   7.229  0.00  0.00    +0.197 A 
ATOM      5  N   UNL     1       1.169  -2.414   6.058  0.00  0.00    -0.274 N 
ENDROOT
BRANCH   5   6
ATOM      6  C   UNL     1       2.510  -2.236   5.688  0.00  0.00    +0.050 A 
ATOM      7  C   UNL     1       3.034  -2.938   4.612  0.00  0.00    +0.026 A 
ATOM      8  C   UNL     1       4.355  -2.761   4.250  0.00  0.00    +0.002 A 
ATOM      9  C   UNL     1       5.156  -1.885   4.960  0.00  0.00    +0.000 A 
ATOM     10  C   UNL     1       4.637  -1.183   6.032  0.00  0.00    +0.002 A 
ATOM     11  C   UNL     1       3.314  -1.352   6.395  0.00  0.00    +0.026 A 
ENDBRANCH   5   6
BRANCH   1  12
ATOM     12  C   UNL     1       0.044  -1.477   3.948  0.00  0.00    +0.154 C 
BRANCH  12  13
ATOM     13  S   UNL     1       0.052  -2.789   2.696  0.00  0.00    -0.078 S 
BRANCH  13  19
ATOM     14  C   UNL     1      -0.011   1.599   0.064  0.00  0.00    +0.066 C 
ATOM     15  C   UNL     1       0.006   0.093   0.043  0.00  0.00    +0.043 A 
ATOM     16  C   UNL     1       0.007  -0.593  -1.162  0.00  0.00    +0.046 A 
ATOM     17  C   UNL     1       0.023  -1.978  -1.136  0.00  0.00    +0.043 A 
ATOM     18  N   UNL     1       0.036  -2.602   0.030  0.00  0.00    -0.227 NA
ATOM     19  C   UNL     1       0.034  -1.917   1.165  0.00  0.00    +0.189 A 
ATOM     20  N   UNL     1       0.025  -0.592   1.175  0.00  0.00    -0.227 NA
ATOM     21  C   UNL     1       0.024  -2.765  -2.421  0.00  0.00    +0.066 C 
ENDBRANCH  13  19
ENDBRANCH  12  13
ENDBRANCH   1  12
BRANCH   4  22
ATOM     22  S   UNL     1       1.665  -3.533   8.577  0.00  0.00    -0.076 S 
BRANCH  22  23
ATOM     23  C   UNL     1       0.435  -4.096   9.786  0.00  0.00    +0.173 C 
BRANCH  23  24
ATOM     24  C   UNL     1       1.140  -4.634  11.005  0.00  0.00    +0.228 C 
ATOM     25  O   UNL     1       2.352  -4.637  11.053  0.00  0.00    -0.275 OA
ATOM     26  N   UNL     1       0.422  -5.111  12.042  0.00  0.00    -0.282 N 
ATOM     27  H   UNL     1      -0.545  -5.049  12.031  0.00  0.00    +0.155 HD
BRANCH  26  28
ATOM     28  C   UNL     1       1.075  -5.696  13.135  0.00  0.00    +0.077 A 
ATOM     29  C   UNL     1       2.307  -5.212  13.550  0.00  0.00    +0.047 A 
ATOM     30  C   UNL     1       2.949  -5.791  14.629  0.00  0.00    +0.043 A 
ATOM     31  C   UNL     1       2.366  -6.854  15.296  0.00  0.00    +0.024 A 
ATOM     32  C   UNL     1       1.138  -7.341  14.887  0.00  0.00    +0.049 A 
ATOM     33  C   UNL     1       0.486  -6.762  13.811  0.00  0.00    +0.141 A 
ATOM     34 CL   UNL     1       4.491  -5.184  15.148  0.00  0.00    -0.083 Cl
BRANCH  33  35
ATOM     35  O   UNL     1      -0.724  -7.237  13.412  0.00  0.00    -0.493 OA
ATOM     36  C   UNL     1      -1.268  -8.332  14.152  0.00  0.00    +0.277 C 
ENDBRANCH  33  35
ENDBRANCH  26  28
ENDBRANCH  23  24
ENDBRANCH  22  23
ENDBRANCH   4  22
TORSDOF 9
