REMARK  Name = ZINC38609877
REMARK  10 active torsions:
REMARK  status: ('A' for Active; 'I' for Inactive)
REMARK    1  A    between atoms: C_1  and  O_2
REMARK    2  A    between atoms: O_2  and  C_3
REMARK    3  A    between atoms: C_6  and  C_9
REMARK    4  A    between atoms: C_9  and  N_10
REMARK    5  A    between atoms: C_11  and  C_28
REMARK    6  A    between atoms: C_14  and  C_21
REMARK    7  A    between atoms: C_26  and  O_27
REMARK    8  A    between atoms: C_31  and  O_34
REMARK    9  A    between atoms: O_34  and  C_35
REMARK   10  A    between atoms: C_35  and  C_36
REMARK                            x       y       z     vdW  Elec       q    Type
REMARK                         _______ _______ _______ _____ _____    ______ ____
ROOT
ATOM      1  N   UNL     1      -5.287  -2.738  -1.399  0.00  0.00    -0.281 N 
ATOM      2  C   UNL     1      -6.110  -1.862  -2.243  0.00  0.00    +0.142 C 
ATOM      3  C   UNL     1      -6.368  -2.630  -3.511  0.00  0.00    +0.035 A 
ATOM      4  C   UNL     1      -6.972  -2.654  -4.773  0.00  0.00    +0.102 A 
ATOM      5  N   UNL     1      -6.692  -3.820  -5.322  0.00  0.00    -0.173 NA
ATOM      6  N   UNL     1      -5.972  -4.534  -4.532  0.00  0.00    -0.272 N 
ATOM      7  H   UNL     1      -5.648  -5.426  -4.728  0.00  0.00    +0.189 HD
ATOM      8  C   UNL     1      -5.730  -3.848  -3.376  0.00  0.00    +0.126 A 
ATOM      9  C   UNL     1      -5.069  -3.885  -2.067  0.00  0.00    +0.266 C 
ATOM     10  O   UNL     1      -4.417  -4.820  -1.645  0.00  0.00    -0.268 OA
ENDROOT
BRANCH   4  11
ATOM     11  C   UNL     1      -7.780  -1.568  -5.381  0.00  0.00    +0.044 A 
ATOM     12  C   UNL     1      -7.322  -0.253  -5.347  0.00  0.00    +0.014 A 
ATOM     13  C   UNL     1      -8.077   0.754  -5.915  0.00  0.00    +0.001 A 
ATOM     14  C   UNL     1      -9.287   0.462  -6.518  0.00  0.00    +0.004 A 
ATOM     15  C   UNL     1      -9.751  -0.840  -6.558  0.00  0.00    +0.046 A 
ATOM     16  C   UNL     1      -9.000  -1.861  -5.997  0.00  0.00    +0.126 A 
BRANCH  16  17
ATOM     17  O   UNL     1      -9.452  -3.141  -6.039  0.00  0.00    -0.506 OA
ATOM     18  H   UNL     1      -9.999  -3.391  -5.282  0.00  0.00    +0.292 HD
ENDBRANCH  16  17
ENDBRANCH   4  11
BRANCH   2  19
ATOM     19  C   UNL     1      -7.412  -1.548  -1.552  0.00  0.00    -0.022 A 
ATOM     20  C   UNL     1      -8.132  -2.560  -0.944  0.00  0.00    +0.009 A 
ATOM     21  C   UNL     1      -9.326  -2.274  -0.309  0.00  0.00    +0.046 A 
ATOM     22  C   UNL     1      -9.802  -0.971  -0.283  0.00  0.00    +0.121 A 
ATOM     23  C   UNL     1      -9.077   0.042  -0.894  0.00  0.00    +0.046 A 
ATOM     24  C   UNL     1      -7.881  -0.248  -1.522  0.00  0.00    +0.009 A 
BRANCH  22  25
ATOM     25  O   UNL     1     -10.976  -0.688   0.340  0.00  0.00    -0.483 OA
BRANCH  25  26
ATOM     26  C   UNL     1     -11.404   0.675   0.328  0.00  0.00    +0.324 C 
BRANCH  26  27
ATOM     27  C   UNL     1     -12.716   0.796   1.060  0.00  0.00    +0.248 C 
ATOM     28  O   UNL     1     -13.232  -0.188   1.545  0.00  0.00    -0.272 OA
ATOM     29  N   UNL     1     -13.314   1.998   1.177  0.00  0.00    -0.327 N 
ATOM     30  H   UNL     1     -12.901   2.785   0.789  0.00  0.00    +0.145 HD
ATOM     31  H   UNL     1     -14.158   2.076   1.649  0.00  0.00    +0.145 HD
ENDBRANCH  26  27
ENDBRANCH  25  26
ENDBRANCH  22  25
ENDBRANCH   2  19
BRANCH   1  32
ATOM     32  C   UNL     1      -4.786  -2.415  -0.060  0.00  0.00    +0.144 C 
BRANCH  32  36
ATOM     33  C   UNL     1      -0.971  -0.518  -0.388  0.00  0.00    +0.120 A 
ATOM     34  C   UNL     1      -2.129   0.246  -0.392  0.00  0.00    +0.046 A 
ATOM     35  C   UNL     1      -3.361  -0.370  -0.286  0.00  0.00    +0.009 A 
ATOM     36  C   UNL     1      -3.441  -1.746  -0.176  0.00  0.00    -0.030 A 
ATOM     37  C   UNL     1      -2.288  -2.509  -0.172  0.00  0.00    +0.009 A 
ATOM     38  C   UNL     1      -1.053  -1.899  -0.284  0.00  0.00    +0.046 A 
BRANCH  33  40
ATOM     39  C   UNL     1       0.252   1.510  -0.597  0.00  0.00    +0.277 C 
ATOM     40  O   UNL     1       0.243   0.085  -0.493  0.00  0.00    -0.495 OA
ENDBRANCH  33  40
ENDBRANCH  32  36
ENDBRANCH   1  32
TORSDOF 9
