REMARK  Name = ZINC16303180
REMARK  7 active torsions:
REMARK  status: ('A' for Active; 'I' for Inactive)
REMARK    1  A    between atoms: C_1  and  C_2
REMARK    2  A    between atoms: C_2  and  O_3
REMARK    3  A    between atoms: O_3  and  C_4
REMARK    4  A    between atoms: C_9  and  N_10
REMARK    5  A    between atoms: C_11  and  C_13
REMARK    6  A    between atoms: C_14  and  C_28
REMARK    7  A    between atoms: C_30  and  C_33
REMARK                            x       y       z     vdW  Elec       q    Type
REMARK                         _______ _______ _______ _____ _____    ______ ____
ROOT
ATOM      1  N   UNL     1      -2.450   3.835   0.041  0.00  0.00    -0.278 N 
ATOM      2  C   UNL     1      -2.462   5.179   0.150  0.00  0.00    +0.255 C 
ATOM      3  O   UNL     1      -1.415   5.799   0.146  0.00  0.00    -0.269 OA
ATOM      4  H   UNL     1      -3.285   3.346  -0.022  0.00  0.00    +0.155 HD
ENDROOT
BRANCH   2   5
ATOM      5  C   UNL     1      -3.737   5.892   0.272  0.00  0.00    +0.080 A 
ATOM      6  C   UNL     1      -3.954   7.234   0.391  0.00  0.00    -0.017 A 
ATOM      7  C   UNL     1      -5.259   7.721   0.497  0.00  0.00    +0.076 A 
ATOM      8  C   UNL     1      -6.283   6.747   0.470  0.00  0.00    +0.116 A 
ATOM      9  S   UNL     1      -5.391   5.222   0.294  0.00  0.00    -0.064 S 
ATOM     10  N   UNL     1      -7.565   7.076   0.562  0.00  0.00    -0.226 NA
ATOM     11  C   UNL     1      -7.948   8.315   0.694  0.00  0.00    +0.114 A 
ATOM     12  N   UNL     1      -7.050   9.341   0.734  0.00  0.00    -0.296 N 
ATOM     13  C   UNL     1      -5.728   9.118   0.636  0.00  0.00    +0.263 A 
ATOM     14  O   UNL     1      -4.935  10.043   0.660  0.00  0.00    -0.267 OA
ATOM     15  C   UNL     1      -7.565  10.708   0.889  0.00  0.00    +0.126 C 
ATOM     16  C   UNL     1      -8.032  10.907   2.329  0.00  0.00    +0.022 C 
ATOM     17  C   UNL     1      -9.493  10.520   2.490  0.00  0.00    +0.002 C 
ATOM     18  C   UNL     1      -9.722   9.037   2.260  0.00  0.00    +0.008 C 
ATOM     19  C   UNL     1      -9.417   8.651   0.814  0.00  0.00    +0.074 C 
ATOM     20  C   UNL     1      -2.788   8.189   0.408  0.00  0.00    +0.046 C 
ENDBRANCH   2   5
BRANCH   1  26
ATOM     21  C   UNL     1      -1.135   1.886   0.607  0.00  0.00    +0.142 A 
ATOM     22  C   UNL     1       0.075   1.211   0.583  0.00  0.00    +0.055 A 
ATOM     23  C   UNL     1       1.171   1.781  -0.028  0.00  0.00    +0.001 A 
ATOM     24  C   UNL     1       1.089   3.037  -0.616  0.00  0.00    +0.126 A 
ATOM     25  C   UNL     1      -0.126   3.716  -0.590  0.00  0.00    +0.073 A 
ATOM     26  C   UNL     1      -1.231   3.146   0.019  0.00  0.00    +0.079 A 
ATOM     27  O   UNL     1       2.287   3.413  -1.145  0.00  0.00    -0.488 OA
ATOM     28  C   UNL     1       3.110   2.249  -1.327  0.00  0.00    +0.175 C 
ATOM     29  C   UNL     1       2.591   1.287  -0.232  0.00  0.00    +0.083 C 
ATOM     30  C   UNL     1       4.584   2.586  -1.098  0.00  0.00    +0.052 C 
BRANCH  21  31
ATOM     31  O   UNL     1      -2.221   1.325   1.204  0.00  0.00    -0.490 OA
BRANCH  31  33
ATOM     32  C   UNL     1      -3.364  -0.432   2.408  0.00  0.00    +0.048 C 
ATOM     33  C   UNL     1      -2.044   0.033   1.789  0.00  0.00    +0.226 C 
ENDBRANCH  31  33
ENDBRANCH  21  31
ENDBRANCH   1  26
TORSDOF 4
