REMARK  Name = ZINC40559121
REMARK  4 active torsions:
REMARK  status: ('A' for Active; 'I' for Inactive)
REMARK    1  A    between atoms: C_6  and  C_7
REMARK    2  A    between atoms: C_7  and  O_8
REMARK    3  A    between atoms: C_13  and  O_21
REMARK    4  A    between atoms: C_16  and  C_18
REMARK                            x       y       z     vdW  Elec       q    Type
REMARK                         _______ _______ _______ _____ _____    ______ ____
ROOT
ATOM      1  C   UNL     1      -0.118   1.584  -0.111  0.00  0.00    +0.025 C 
ATOM      2  C   UNL     1       1.343   2.042  -0.055  0.00  0.00    +0.109 C 
ATOM      3  N   UNL     1       2.064   1.464  -1.196  0.00  0.00    -0.285 N 
ATOM      4  C   UNL     1       2.008   0.011  -1.405  0.00  0.00    +0.109 C 
ATOM      5  C   UNL     1       0.539  -0.425  -1.446  0.00  0.00    +0.025 C 
ATOM      6  C   UNL     1      -0.167   0.056  -0.176  0.00  0.00    +0.017 C 
ATOM      7  C   UNL     1       2.764   2.251  -2.037  0.00  0.00    +0.306 C 
ATOM      8  O   UNL     1       3.483   1.752  -2.881  0.00  0.00    -0.252 OA
ATOM      9  N   UNL     1       2.667   3.592  -1.942  0.00  0.00    -0.269 N 
ATOM     10  C   UNL     1       3.214   4.564  -2.906  0.00  0.00    +0.141 C 
ATOM     11  C   UNL     1       2.350   5.836  -2.720  0.00  0.00    +0.134 C 
ATOM     12  C   UNL     1       2.116   5.832  -1.186  0.00  0.00    +0.067 C 
ATOM     13  C   UNL     1       1.994   4.328  -0.862  0.00  0.00    +0.193 C 
ENDROOT
BRANCH  13  14
ATOM     14  C   UNL     1       2.665   4.034   0.455  0.00  0.00    +0.376 C 
ATOM     15  O   UNL     1       3.856   3.772   0.487  0.00  0.00    -0.244 OA
ATOM     16  O   UNL     1       2.018   4.058   1.488  0.00  0.00    -0.244 OA
ENDBRANCH  13  14
BRANCH  11  17
ATOM     17  O   UNL     1       3.066   7.005  -3.126  0.00  0.00    -0.390 OA
ATOM     18  H   UNL     1       3.320   7.006  -4.059  0.00  0.00    +0.210 HD
ENDBRANCH  11  17
BRANCH   6  19
ATOM     19  C   UNL     1      -1.625  -0.407  -0.198  0.00  0.00    +0.159 C 
BRANCH  19  20
ATOM     20  O   UNL     1      -1.673  -1.834  -0.141  0.00  0.00    -0.395 OA
ATOM     21  H   UNL     1      -2.568  -2.199  -0.151  0.00  0.00    +0.209 HD
ENDBRANCH  19  20
ENDBRANCH   6  19
TORSDOF 4
