REMARK  Name = ZINC04044293
REMARK  7 active torsions:
REMARK  status: ('A' for Active; 'I' for Inactive)
REMARK    1  A    between atoms: C_1  and  C_2
REMARK    2  A    between atoms: C_2  and  C_3
REMARK    3  A    between atoms: C_3  and  N_22
REMARK    4  A    between atoms: N_4  and  N_5
REMARK    5  A    between atoms: N_14  and  C_15
REMARK    6  A    between atoms: C_15  and  C_16
REMARK    7  A    between atoms: N_23  and  C_24
REMARK                            x       y       z     vdW  Elec       q    Type
REMARK                         _______ _______ _______ _____ _____    ______ ____
ROOT
ATOM      1  N   UNL     1       2.154   6.572   0.021  0.00  0.00    -0.205 N 
ATOM      2  C   UNL     1       1.515   5.349   0.025  0.00  0.00    +0.217 A 
ATOM      3  N   UNL     1       0.217   5.178   0.036  0.00  0.00    -0.213 NA
ATOM      4  C   UNL     1      -0.068   3.850   0.037  0.00  0.00    +0.091 A 
ATOM      5  C   UNL     1      -1.263   3.124   0.047  0.00  0.00    +0.030 A 
ATOM      6  C   UNL     1      -1.226   1.748   0.039  0.00  0.00    +0.002 A 
ATOM      7  C   UNL     1      -0.013   1.076   0.032  0.00  0.00    +0.002 A 
ATOM      8  C   UNL     1       1.175   1.777   0.023  0.00  0.00    +0.028 A 
ATOM      9  C   UNL     1       1.158   3.164   0.025  0.00  0.00    +0.070 A 
ATOM     10  N   UNL     1       2.143   4.136   0.018  0.00  0.00    -0.306 N 
ATOM     11  H   UNL     1       3.123   6.614   0.013  0.00  0.00    +0.177 HD
ENDROOT
BRANCH   1  13
ATOM     12  C   UNL     1       2.003   8.908   0.126  0.00  0.00    +0.169 C 
ATOM     13  N   UNL     1       1.403   7.755   0.030  0.00  0.00    -0.163 NA
BRANCH  12  15
ATOM     14  C   UNL     1      -0.298   9.825   0.238  0.00  0.00    +0.012 C 
ATOM     15  C   UNL     1       1.192  10.172   0.251  0.00  0.00    +0.076 C 
ENDBRANCH  12  15
BRANCH  12  16
ATOM     16  N   UNL     1       3.348   8.970   0.114  0.00  0.00    -0.132 NA
ATOM     17  N   UNL     1       3.943  10.098   0.308  0.00  0.00    -0.148 NA
BRANCH  17  18
ATOM     18  C   UNL     1       5.307  10.161   0.296  0.00  0.00    +0.086 A 
ATOM     19  C   UNL     1       6.061   9.003   0.080  0.00  0.00    +0.030 A 
ATOM     20  C   UNL     1       7.438   9.075   0.064  0.00  0.00    +0.017 A 
ATOM     21  C   UNL     1       8.074  10.288   0.272  0.00  0.00    +0.018 A 
ATOM     22  C   UNL     1       7.333  11.437   0.493  0.00  0.00    +0.017 A 
ATOM     23  C   UNL     1       5.956  11.381   0.506  0.00  0.00    +0.030 A 
ATOM     24 BR   UNL     1       9.963  10.375   0.255  0.00  0.00    -0.050 Br
ENDBRANCH  17  18
ENDBRANCH  12  16
ENDBRANCH   1  13
BRANCH  10  25
ATOM     25  C   UNL     1       3.590   3.906   0.005  0.00  0.00    +0.160 C 
BRANCH  25  26
ATOM     26  C   UNL     1       4.074   3.829  -1.420  0.00  0.00    -0.028 A 
ATOM     27  C   UNL     1       4.114   2.610  -2.071  0.00  0.00    +0.005 A 
ATOM     28  C   UNL     1       4.553   2.540  -3.380  0.00  0.00    +0.000 A 
ATOM     29  C   UNL     1       4.962   3.687  -4.034  0.00  0.00    +0.000 A 
ATOM     30  C   UNL     1       4.928   4.905  -3.381  0.00  0.00    +0.000 A 
ATOM     31  C   UNL     1       4.484   4.976  -2.074  0.00  0.00    +0.005 A 
ENDBRANCH  25  26
ENDBRANCH  10  25
TORSDOF 6
