REMARK  Name = ZINC10557366
REMARK  5 active torsions:
REMARK  status: ('A' for Active; 'I' for Inactive)
REMARK    1  A    between atoms: C_1  and  C_2
REMARK    2  A    between atoms: C_14  and  C_15
REMARK    3  A    between atoms: N_17  and  C_18
REMARK    4  A    between atoms: C_18  and  C_20
REMARK    5  A    between atoms: C_18  and  C_21
REMARK                            x       y       z     vdW  Elec       q    Type
REMARK                         _______ _______ _______ _____ _____    ______ ____
ROOT
ATOM      1  C   UNL     1      -1.969   8.438   0.062  0.00  0.00    +0.048 C 
ATOM      2  C   UNL     1      -0.970   7.309   0.047  0.00  0.00    +0.008 A 
ATOM      3  C   UNL     1      -1.263   5.922   0.043  0.00  0.00    +0.024 A 
ATOM      4  C   UNL     1      -2.468   5.190   0.051  0.00  0.00    +0.012 A 
ATOM      5  C   UNL     1      -2.456   3.837   0.044  0.00  0.00    +0.009 A 
ATOM      6  C   UNL     1      -1.232   3.135   0.030  0.00  0.00    -0.014 A 
ATOM      7  C   UNL     1      -1.207   1.731   0.017  0.00  0.00    +0.008 A 
ATOM      8  C   UNL     1      -0.013   1.076   0.008  0.00  0.00    +0.001 A 
ATOM      9  C   UNL     1       1.189   1.778   0.000  0.00  0.00    +0.001 A 
ATOM     10  C   UNL     1       1.202   3.141   0.007  0.00  0.00    +0.012 A 
ATOM     11  C   UNL     1      -0.009   3.848   0.022  0.00  0.00    +0.025 A 
ATOM     12  C   UNL     1      -0.031   5.260   0.029  0.00  0.00    +0.144 A 
ATOM     13  O   UNL     1       0.937   6.195   0.024  0.00  0.00    -0.449 OA
ATOM     14  C   UNL     1       0.384   7.426   0.035  0.00  0.00    +0.193 A 
ENDROOT
BRANCH  14  15
ATOM     15  C   UNL     1       1.128   8.693   0.034  0.00  0.00    +0.280 C 
ATOM     16  O   UNL     1       0.527   9.751   0.045  0.00  0.00    -0.267 OA
ATOM     17  N   UNL     1       2.475   8.683   0.022  0.00  0.00    -0.301 N 
ATOM     18  H   UNL     1       2.954   7.839   0.013  0.00  0.00    +0.150 HD
BRANCH  17  19
ATOM     19  C   UNL     1       3.217   9.946   0.021  0.00  0.00    +0.119 C 
ATOM     20  C   UNL     1       3.381  10.442   1.459  0.00  0.00    +0.034 C 
BRANCH  19  21
ATOM     21  C   UNL     1       4.576   9.730  -0.593  0.00  0.00    +0.061 A 
ATOM     22  C   UNL     1       5.241  10.794  -1.173  0.00  0.00    +0.025 A 
ATOM     23  C   UNL     1       6.491  10.585  -1.735  0.00  0.00    +0.003 A 
ATOM     24  C   UNL     1       7.028   9.307  -1.692  0.00  0.00    +0.020 A 
ATOM     25  C   UNL     1       6.305   8.292  -1.095  0.00  0.00    +0.111 A 
ATOM     26  N   UNL     1       5.120   8.529  -0.566  0.00  0.00    -0.258 NA
ENDBRANCH  19  21
ENDBRANCH  17  19
ENDBRANCH  14  15
TORSDOF 3
