REMARK  Name = ZINC36589848
REMARK  11 active torsions:
REMARK  status: ('A' for Active; 'I' for Inactive)
REMARK    1  A    between atoms: C_1  and  O_2
REMARK    2  A    between atoms: O_2  and  C_3
REMARK    3  A    between atoms: C_6  and  C_11
REMARK    4  A    between atoms: C_8  and  O_9
REMARK    5  A    between atoms: O_9  and  C_10
REMARK    6  A    between atoms: N_24  and  C_25
REMARK    7  A    between atoms: C_25  and  C_27
REMARK    8  A    between atoms: C_25  and  C_34
REMARK    9  A    between atoms: C_27  and  C_28
REMARK   10  A    between atoms: C_34  and  O_36
REMARK   11  A    between atoms: O_36  and  C_37
REMARK                            x       y       z     vdW  Elec       q    Type
REMARK                         _______ _______ _______ _____ _____    ______ ____
ROOT
ATOM      1  C   UNL     1       2.507  -2.499  -4.383  0.00  0.00    +0.156 C 
ATOM      2  C   UNL     1       1.538  -2.599  -5.538  0.00  0.00    +0.062 A 
ATOM      3  C   UNL     1       1.629  -1.851  -6.659  0.00  0.00    +0.040 A 
ATOM      4  N   UNL     1       0.589  -2.213  -7.462  0.00  0.00    -0.349 N 
ATOM      5  H   UNL     1       0.384  -1.850  -8.338  0.00  0.00    +0.166 HD
ATOM      6  C   UNL     1      -0.102  -3.174  -6.807  0.00  0.00    +0.171 A 
ATOM      7  N   UNL     1       0.475  -3.397  -5.655  0.00  0.00    -0.348 N 
ATOM      8  C   UNL     1       2.700  -0.828  -6.926  0.00  0.00    +0.074 C 
ATOM      9  C   UNL     1       3.373  -0.457  -5.598  0.00  0.00    +0.116 C 
ATOM     10  N   UNL     1       3.650  -1.686  -4.838  0.00  0.00    -0.273 N 
ATOM     11  C   UNL     1       4.915  -2.061  -4.565  0.00  0.00    +0.304 C 
ATOM     12  O   UNL     1       5.843  -1.335  -4.866  0.00  0.00    -0.253 OA
ATOM     13  N   UNL     1       5.153  -3.241  -3.958  0.00  0.00    -0.286 N 
ATOM     14  H   UNL     1       4.421  -3.853  -3.784  0.00  0.00    +0.151 HD
ATOM     15  H   UNL     1       0.179  -4.041  -4.992  0.00  0.00    +0.167 HD
ENDROOT
BRANCH   1  19
ATOM     16  C   UNL     1       0.608  -0.603  -1.054  0.00  0.00    +0.162 A 
ATOM     17  C   UNL     1       0.625   0.019  -2.292  0.00  0.00    +0.050 A 
ATOM     18  C   UNL     1       1.240  -0.597  -3.366  0.00  0.00    +0.009 A 
ATOM     19  C   UNL     1       1.839  -1.833  -3.209  0.00  0.00    -0.017 A 
ATOM     20  C   UNL     1       1.826  -2.459  -1.976  0.00  0.00    +0.055 A 
ATOM     21  C   UNL     1       1.216  -1.844  -0.894  0.00  0.00    +0.162 A 
BRANCH  16  23
ATOM     22  C   UNL     1      -0.599   1.275  -0.234  0.00  0.00    +0.277 C 
ATOM     23  O   UNL     1       0.004   0.001   0.004  0.00  0.00    -0.491 OA
ENDBRANCH  16  23
BRANCH  21  24
ATOM     24  O   UNL     1       1.208  -2.456   0.321  0.00  0.00    -0.491 OA
ATOM     25  C   UNL     1       1.851  -3.729   0.411  0.00  0.00    +0.277 C 
ENDBRANCH  21  24
ENDBRANCH   1  19
BRANCH  13  26
ATOM     26  C   UNL     1       6.517  -3.599  -3.561  0.00  0.00    +0.187 C 
BRANCH  26  27
ATOM     27  C   UNL     1       6.818  -3.006  -2.208  0.00  0.00    +0.328 C 
ATOM     28  O   UNL     1       5.980  -2.352  -1.635  0.00  0.00    -0.249 OA
BRANCH  27  29
ATOM     29  O   UNL     1       8.018  -3.205  -1.641  0.00  0.00    -0.467 OA
ATOM     30  C   UNL     1       8.235  -2.615  -0.357  0.00  0.00    +0.280 C 
ENDBRANCH  27  29
ENDBRANCH  26  27
BRANCH  26  31
ATOM     31  C   UNL     1       6.645  -5.122  -3.491  0.00  0.00    +0.069 C 
BRANCH  31  32
ATOM     32  C   UNL     1       6.464  -5.705  -4.868  0.00  0.00    -0.045 A 
ATOM     33  C   UNL     1       5.203  -6.057  -5.310  0.00  0.00    +0.004 A 
ATOM     34  C   UNL     1       5.037  -6.592  -6.574  0.00  0.00    +0.000 A 
ATOM     35  C   UNL     1       6.133  -6.774  -7.396  0.00  0.00    +0.000 A 
ATOM     36  C   UNL     1       7.395  -6.421  -6.955  0.00  0.00    +0.000 A 
ATOM     37  C   UNL     1       7.560  -5.883  -5.692  0.00  0.00    +0.004 A 
ENDBRANCH  31  32
ENDBRANCH  26  31
ENDBRANCH  13  26
TORSDOF 8
