REMARK  Name = ZINC45047482
REMARK  4 active torsions:
REMARK  status: ('A' for Active; 'I' for Inactive)
REMARK    1  A    between atoms: C_1  and  C_2
REMARK    2  A    between atoms: C_2  and  N_8
REMARK    3  A    between atoms: N_11  and  C_12
REMARK    4  A    between atoms: C_12  and  C_17
REMARK                            x       y       z     vdW  Elec       q    Type
REMARK                         _______ _______ _______ _____ _____    ______ ____
ROOT
ATOM      1  N   UNL     1      -1.372  -0.511   0.012  0.00  0.00    -0.294 N 
ATOM      2  C   UNL     1      -2.216  -0.192  -0.989  0.00  0.00    +0.301 C 
ATOM      3  O   UNL     1      -1.837   0.518  -1.901  0.00  0.00    -0.253 OA
ATOM      4  N   UNL     1      -3.481  -0.658  -0.979  0.00  0.00    -0.284 N 
ATOM      5  H   UNL     1      -1.675  -1.077   0.740  0.00  0.00    +0.151 HD
ATOM      6  H   UNL     1      -3.783  -1.224  -0.252  0.00  0.00    +0.151 HD
ENDROOT
BRANCH   1   8
ATOM      7  C   UNL     1      -0.019   1.526   0.010  0.00  0.00    +0.031 C 
ATOM      8  C   UNL     1       0.002  -0.004   0.002  0.00  0.00    +0.033 C 
ATOM      9  C   UNL     1       0.718  -0.497  -1.257  0.00  0.00    +0.025 C 
ATOM     10  C   UNL     1       0.739  -2.027  -1.265  0.00  0.00    +0.002 C 
ATOM     11  C   UNL     1       1.479  -2.534  -0.026  0.00  0.00    +0.000 C 
ATOM     12  C   UNL     1       0.763  -2.041   1.233  0.00  0.00    +0.002 C 
ATOM     13  C   UNL     1       0.742  -0.511   1.242  0.00  0.00    +0.025 C 
ENDBRANCH   1   8
BRANCH   4  14
ATOM     14  C   UNL     1      -4.398  -0.310  -2.067  0.00  0.00    +0.137 C 
ATOM     15  C   UNL     1      -4.687   1.211  -2.067  0.00  0.00    +0.037 C 
ATOM     16  C   UNL     1      -5.766   1.354  -0.966  0.00  0.00    +0.003 C 
ATOM     17  C   UNL     1      -6.649   0.101  -1.137  0.00  0.00    +0.003 C 
ATOM     18  C   UNL     1      -5.779  -0.958  -1.837  0.00  0.00    +0.037 C 
BRANCH  14  19
ATOM     19  C   UNL     1      -3.828  -0.742  -3.394  0.00  0.00    +0.379 C 
ATOM     20  O   UNL     1      -2.749  -1.308  -3.439  0.00  0.00    -0.244 OA
ATOM     21  O   UNL     1      -4.446  -0.525  -4.422  0.00  0.00    -0.244 OA
ENDBRANCH  14  19
ENDBRANCH   4  14
TORSDOF 3
