REMARK  Name = ZINC36116910
REMARK  14 active torsions:
REMARK  status: ('A' for Active; 'I' for Inactive)
REMARK    1  A    between atoms: C_1  and  C_2
REMARK    2  A    between atoms: C_2  and  C_3
REMARK    3  A    between atoms: C_3  and  N_4
REMARK    4  A    between atoms: N_4  and  C_5
REMARK    5  A    between atoms: C_5  and  C_6
REMARK    6  A    between atoms: C_16  and  C_18
REMARK    7  A    between atoms: C_18  and  O_19
REMARK    8  A    between atoms: O_19  and  C_20
REMARK    9  A    between atoms: C_23  and  C_26
REMARK   10  A    between atoms: C_26  and  C_27
REMARK   11  A    between atoms: C_26  and  C_28
REMARK   12  A    between atoms: C_29  and  C_31
REMARK   13  A    between atoms: C_34  and  O_37
REMARK   14  A    between atoms: O_37  and  C_38
REMARK                            x       y       z     vdW  Elec       q    Type
REMARK                         _______ _______ _______ _____ _____    ______ ____
ROOT
ATOM      1  C   UNL     1      -1.092  -2.756  -2.423  0.00  0.00    +0.234 C 
ATOM      2  O   UNL     1      -0.274  -2.489  -3.278  0.00  0.00    -0.274 OA
ATOM      3  N   UNL     1      -2.269  -3.315  -2.767  0.00  0.00    -0.289 N 
ATOM      4  C   UNL     1      -3.270  -3.637  -1.740  0.00  0.00    +0.114 C 
ATOM      5  C   UNL     1      -4.510  -2.762  -1.982  0.00  0.00    +0.061 C 
ATOM      6  C   UNL     1      -4.801  -2.740  -3.447  0.00  0.00    -0.004 A 
ATOM      7  C   UNL     1      -3.978  -3.100  -4.470  0.00  0.00    -0.014 A 
ATOM      8  C   UNL     1      -4.492  -2.978  -5.760  0.00  0.00    +0.013 A 
ATOM      9  C   UNL     1      -5.753  -2.526  -5.946  0.00  0.00    +0.046 A 
ATOM     10  S   UNL     1      -6.293  -2.242  -4.266  0.00  0.00    -0.101 S 
ATOM     11  C   UNL     1      -2.572  -3.607  -4.175  0.00  0.00    +0.144 C 
ENDROOT
BRANCH   1  12
ATOM     12  C   UNL     1      -0.793  -2.461  -0.976  0.00  0.00    +0.204 C 
BRANCH  12  13
ATOM     13  N   UNL     1       0.539  -1.860  -0.865  0.00  0.00    -0.289 N 
ATOM     14  C   UNL     1       1.600  -2.626  -0.547  0.00  0.00    +0.247 C 
ATOM     15  O   UNL     1       2.691  -2.115  -0.380  0.00  0.00    -0.270 OA
BRANCH  14  16
ATOM     16  C   UNL     1       1.439  -4.086  -0.401  0.00  0.00    +0.037 A 
ATOM     17  C   UNL     1       0.766  -4.819  -1.382  0.00  0.00    +0.016 A 
ATOM     18  C   UNL     1       0.618  -6.180  -1.242  0.00  0.00    +0.046 A 
ATOM     19  C   UNL     1       1.137  -6.827  -0.126  0.00  0.00    +0.120 A 
ATOM     20  C   UNL     1       1.808  -6.102   0.852  0.00  0.00    +0.046 A 
ATOM     21  C   UNL     1       1.964  -4.740   0.717  0.00  0.00    +0.016 A 
BRANCH  19  22
ATOM     22  O   UNL     1       0.989  -8.169   0.008  0.00  0.00    -0.495 OA
ATOM     23  C   UNL     1       1.546  -8.769   1.179  0.00  0.00    +0.277 C 
ENDBRANCH  19  22
ENDBRANCH  14  16
BRANCH  13  24
ATOM     24  C   UNL     1       0.715  -0.424  -1.101  0.00  0.00    +0.108 C 
BRANCH  24  26
ATOM     25  C   UNL     1       0.608   1.843  -0.056  0.00  0.00    +0.005 C 
ATOM     26  C   UNL     1       0.423   0.344   0.190  0.00  0.00    +0.016 C 
ENDBRANCH  24  26
ENDBRANCH  13  24
ENDBRANCH  12  13
ENDBRANCH   1  12
BRANCH  11  27
ATOM     27  C   UNL     1      -2.508  -5.116  -4.417  0.00  0.00    +0.256 C 
BRANCH  27  28
ATOM     28  O   UNL     1      -3.541  -5.762  -3.671  0.00  0.00    -0.490 OA
BRANCH  28  29
ATOM     29  C   UNL     1      -3.624  -7.114  -3.775  0.00  0.00    +0.121 A 
ATOM     30  C   UNL     1      -2.727  -7.806  -4.575  0.00  0.00    +0.046 A 
ATOM     31  C   UNL     1      -2.813  -9.181  -4.680  0.00  0.00    +0.007 A 
ATOM     32  C   UNL     1      -3.793  -9.867  -3.988  0.00  0.00    -0.045 A 
ATOM     33  C   UNL     1      -4.690  -9.181  -3.190  0.00  0.00    +0.007 A 
ATOM     34  C   UNL     1      -4.604  -7.806  -3.078  0.00  0.00    +0.046 A 
BRANCH  32  35
ATOM     35  C   UNL     1      -3.886 -11.367  -4.104  0.00  0.00    +0.013 C 
ATOM     36  C   UNL     1      -3.709 -11.998  -2.721  0.00  0.00    +0.012 C 
ATOM     37  C   UNL     1      -5.255 -11.752  -4.668  0.00  0.00    +0.012 C 
ENDBRANCH  32  35
ENDBRANCH  28  29
ENDBRANCH  27  28
ENDBRANCH  11  27
TORSDOF 10
