REMARK  Name = ZINC34994222
REMARK  3 active torsions:
REMARK  status: ('A' for Active; 'I' for Inactive)
REMARK    1  A    between atoms: C_4  and  C_21
REMARK    2  A    between atoms: C_6  and  C_9
REMARK    3  A    between atoms: C_16  and  C_18
REMARK                            x       y       z     vdW  Elec       q    Type
REMARK                         _______ _______ _______ _____ _____    ______ ____
ROOT
ATOM      1  C   UNL     1       0.027  -0.112  -2.530  0.00  0.00    +0.220 C 
ATOM      2  O   UNL     1       0.569   0.692  -3.259  0.00  0.00    -0.275 OA
ATOM      3  N   UNL     1      -1.246  -0.485  -2.766  0.00  0.00    -0.290 N 
ATOM      4  C   UNL     1      -1.961  -1.350  -1.818  0.00  0.00    +0.108 C 
ATOM      5  C   UNL     1      -2.516  -2.560  -2.575  0.00  0.00    +0.019 C 
ATOM      6  C   UNL     1      -3.369  -2.074  -3.749  0.00  0.00    +0.004 C 
ATOM      7  C   UNL     1      -2.501  -1.259  -4.710  0.00  0.00    +0.032 C 
ATOM      8  C   UNL     1      -1.948  -0.030  -3.974  0.00  0.00    +0.162 C 
ENDROOT
BRANCH   1  13
ATOM      9  C   UNL     1       0.387   1.407  -0.065  0.00  0.00    +0.001 C 
ATOM     10  C   UNL     1       1.871   1.758  -0.186  0.00  0.00    +0.001 C 
ATOM     11  C   UNL     1       2.428   1.179  -1.488  0.00  0.00    +0.015 C 
ATOM     12  C   UNL     1       2.263  -0.342  -1.482  0.00  0.00    +0.114 C 
ATOM     13  C   UNL     1       0.778  -0.694  -1.360  0.00  0.00    +0.089 C 
ATOM     14  C   UNL     1       0.222  -0.115  -0.058  0.00  0.00    +0.013 C 
BRANCH  12  15
ATOM     15  C   UNL     1       2.811  -0.912  -2.764  0.00  0.00    +0.360 C 
ATOM     16  O   UNL     1       3.983  -0.744  -3.054  0.00  0.00    -0.246 OA
ATOM     17  O   UNL     1       2.082  -1.541  -3.512  0.00  0.00    -0.246 OA
ENDBRANCH  12  15
ENDBRANCH   1  13
BRANCH   8  18
ATOM     18  C   UNL     1      -0.986   0.707  -4.870  0.00  0.00    +0.231 C 
ATOM     19  O   UNL     1      -0.021   0.132  -5.328  0.00  0.00    -0.274 OA
ATOM     20  N   UNL     1      -1.197   2.006  -5.162  0.00  0.00    -0.328 N 
ATOM     21  H   UNL     1      -1.969   2.466  -4.796  0.00  0.00    +0.145 HD
ATOM     22  H   UNL     1      -0.578   2.480  -5.739  0.00  0.00    +0.145 HD
ENDBRANCH   8  18
TORSDOF 3
