REMARK  Name = ZINC37441647
REMARK  5 active torsions:
REMARK  status: ('A' for Active; 'I' for Inactive)
REMARK    1  A    between atoms: C_1  and  C_2
REMARK    2  A    between atoms: C_2  and  C_3
REMARK    3  A    between atoms: C_3  and  N_4
REMARK    4  A    between atoms: C_12  and  C_13
REMARK    5  A    between atoms: C_16  and  N_19
REMARK                            x       y       z     vdW  Elec       q    Type
REMARK                         _______ _______ _______ _____ _____    ______ ____
ROOT
ATOM      1  N   UNL     1       0.905  -1.998   1.419  0.00  0.00    -0.324 N 
ATOM      2  C   UNL     1      -0.047  -2.825   1.987  0.00  0.00    +0.069 A 
ATOM      3  C   UNL     1      -1.083  -2.621   2.887  0.00  0.00    +0.029 A 
ATOM      4  C   UNL     1      -1.880  -3.680   3.268  0.00  0.00    +0.017 A 
ATOM      5  C   UNL     1      -1.652  -4.951   2.757  0.00  0.00    +0.020 A 
ATOM      6  C   UNL     1      -0.629  -5.173   1.863  0.00  0.00    +0.045 A 
ATOM      7  C   UNL     1       0.188  -4.109   1.466  0.00  0.00    +0.091 A 
ATOM      8  N   UNL     1       1.246  -4.013   0.625  0.00  0.00    -0.227 NA
ATOM      9  C   UNL     1       1.669  -2.772   0.588  0.00  0.00    +0.142 A 
ATOM     10 BR   UNL     1      -2.756  -6.389   3.295  0.00  0.00    -0.050 Br
ENDROOT
BRANCH   9  11
ATOM     11  C   UNL     1       2.802  -2.284  -0.225  0.00  0.00    +0.018 A 
ATOM     12  C   UNL     1       3.780  -3.177  -0.669  0.00  0.00    +0.013 A 
ATOM     13  C   UNL     1       4.835  -2.719  -1.427  0.00  0.00    +0.023 A 
ATOM     14  C   UNL     1       4.927  -1.369  -1.750  0.00  0.00    +0.025 A 
ATOM     15  C   UNL     1       3.955  -0.477  -1.308  0.00  0.00    +0.023 A 
ATOM     16  C   UNL     1       2.894  -0.930  -0.555  0.00  0.00    +0.013 A 
BRANCH  14  17
ATOM     17  N   UNL     1       5.995  -0.908  -2.517  0.00  0.00    -0.358 N 
ATOM     18  H   UNL     1       6.674  -1.529  -2.826  0.00  0.00    +0.142 HD
ATOM     19  H   UNL     1       6.060   0.033  -2.743  0.00  0.00    +0.142 HD
ENDBRANCH  14  17
ENDBRANCH   9  11
BRANCH   1  20
ATOM     20  C   UNL     1       1.062  -0.561   1.658  0.00  0.00    +0.123 C 
BRANCH  20  22
ATOM     21  C   UNL     1       0.280   1.715   0.989  0.00  0.00    +0.005 C 
ATOM     22  C   UNL     1       0.116   0.215   0.740  0.00  0.00    +0.018 C 
ENDBRANCH  20  22
ENDBRANCH   1  20
TORSDOF 4
