REMARK  Name = ZINC09396347
REMARK  9 active torsions:
REMARK  status: ('A' for Active; 'I' for Inactive)
REMARK    1  A    between atoms: C_1  and  C_2
REMARK    2  A    between atoms: C_2  and  C_4
REMARK    3  A    between atoms: C_2  and  N_63
REMARK    4  A    between atoms: C_7  and  S_16
REMARK    5  A    between atoms: N_8  and  C_9
REMARK    6  A    between atoms: S_16  and  C_17
REMARK    7  A    between atoms: C_17  and  C_18
REMARK    8  A    between atoms: C_18  and  C_19
REMARK    9  A    between atoms: C_19  and  N_20
REMARK                            x       y       z     vdW  Elec       q    Type
REMARK                         _______ _______ _______ _____ _____    ______ ____
ROOT
ATOM      1  C   UNL     1     -10.142   2.481  -3.007  0.00  0.00    +0.125 A 
ATOM      2  N   UNL     1      -9.842   2.533  -1.740  0.00  0.00    -0.135 NA
ATOM      3  N   UNL     1      -8.591   2.788  -1.592  0.00  0.00    -0.122 NA
ATOM      4  C   UNL     1      -8.018   2.915  -2.766  0.00  0.00    +0.196 A 
ATOM      5  N   UNL     1      -8.991   2.727  -3.708  0.00  0.00    -0.275 N 
ENDROOT
BRANCH   5   6
ATOM      6  C   UNL     1      -8.842   2.775  -5.103  0.00  0.00    +0.050 A 
ATOM      7  C   UNL     1      -9.484   3.762  -5.837  0.00  0.00    +0.029 A 
ATOM      8  C   UNL     1      -9.331   3.811  -7.209  0.00  0.00    +0.040 A 
ATOM      9  C   UNL     1      -8.547   2.869  -7.853  0.00  0.00    +0.124 A 
ATOM     10  C   UNL     1      -7.910   1.880  -7.123  0.00  0.00    +0.040 A 
ATOM     11  C   UNL     1      -8.056   1.832  -5.750  0.00  0.00    +0.029 A 
ATOM     12  F   UNL     1      -8.403   2.915  -9.196  0.00  0.00    -0.205 F 
ENDBRANCH   5   6
BRANCH   1  14
ATOM     13  C   UNL     1     -12.385   3.446  -3.436  0.00  0.00    -0.005 C 
ATOM     14  C   UNL     1     -11.503   2.206  -3.593  0.00  0.00    -0.002 C 
BRANCH  14  20
ATOM     15  C   UNL     1     -11.251  -0.109  -2.932  0.00  0.00    -0.078 C 
ATOM     16  C   UNL     1     -11.855  -1.219  -2.069  0.00  0.00    -0.019 C 
ATOM     17  C   UNL     1     -13.250  -1.567  -2.596  0.00  0.00    -0.004 C 
ATOM     18  C   UNL     1     -14.120  -0.306  -2.584  0.00  0.00    -0.019 C 
ATOM     19  C   UNL     1     -13.450   0.777  -3.433  0.00  0.00    -0.078 C 
ATOM     20  N   UNL     1     -12.123   1.083  -2.859  0.00  0.00    +0.386 N 
ATOM     21  H   UNL     1     -12.239   1.351  -1.875  0.00  0.00    -0.081 HD
ENDBRANCH  14  20
ENDBRANCH   1  14
BRANCH   4  22
ATOM     22  S   UNL     1      -6.318   3.266  -3.070  0.00  0.00    -0.086 S 
BRANCH  22  23
ATOM     23  C   UNL     1      -5.711   3.378  -1.369  0.00  0.00    +0.079 C 
BRANCH  23  24
ATOM     24  C   UNL     1      -4.212   3.686  -1.381  0.00  0.00    +0.033 C 
BRANCH  24  25
ATOM     25  C   UNL     1      -3.699   3.780   0.057  0.00  0.00    +0.128 C 
BRANCH  25  26
ATOM     26  N   UNL     1      -2.264   4.076   0.045  0.00  0.00    -0.292 N 
ATOM     27  C   UNL     1      -1.238   3.134   0.030  0.00  0.00    +0.070 A 
ATOM     28  C   UNL     1      -1.220   1.747   0.017  0.00  0.00    +0.028 A 
ATOM     29  C   UNL     1      -0.013   1.076   0.008  0.00  0.00    +0.002 A 
ATOM     30  C   UNL     1       1.179   1.781   0.000  0.00  0.00    +0.002 A 
ATOM     31  C   UNL     1       1.170   3.162   0.007  0.00  0.00    +0.028 A 
ATOM     32  C   UNL     1      -0.037   3.845   0.022  0.00  0.00    +0.067 A 
ATOM     33  N   UNL     1      -0.370   5.197   0.033  0.00  0.00    -0.306 N 
ATOM     34  H   UNL     1       0.258   5.937   0.031  0.00  0.00    +0.170 HD
ATOM     35  C   UNL     1      -1.712   5.304   0.046  0.00  0.00    +0.328 A 
ATOM     36  O   UNL     1      -2.332   6.351   0.057  0.00  0.00    -0.247 OA
ENDBRANCH  25  26
ENDBRANCH  24  25
ENDBRANCH  23  24
ENDBRANCH  22  23
ENDBRANCH   4  22
TORSDOF 8
