REMARK  Name = ZINC34749736
REMARK  5 active torsions:
REMARK  status: ('A' for Active; 'I' for Inactive)
REMARK    1  A    between atoms: C_4  and  C_7
REMARK    2  A    between atoms: C_7  and  N_8
REMARK    3  A    between atoms: C_12  and  C_32
REMARK    4  A    between atoms: N_21  and  C_24
REMARK    5  A    between atoms: C_24  and  C_25
REMARK                            x       y       z     vdW  Elec       q    Type
REMARK                         _______ _______ _______ _____ _____    ______ ____
ROOT
ATOM      1  N   UNL     1       4.051  -0.778   1.412  0.00  0.00    -0.276 N 
ATOM      2  C   UNL     1       4.751   0.228   1.967  0.00  0.00    +0.264 A 
ATOM      3  O   UNL     1       4.830   1.308   1.407  0.00  0.00    -0.267 OA
ATOM      4  C   UNL     1       5.401   0.015   3.222  0.00  0.00    +0.080 A 
ATOM      5  C   UNL     1       6.207   0.941   4.011  0.00  0.00    +0.004 A 
ATOM      6  C   UNL     1       6.728   0.513   5.185  0.00  0.00    +0.056 A 
ATOM      7  S   UNL     1       6.162  -1.173   5.299  0.00  0.00    -0.076 S 
ATOM      8  C   UNL     1       5.247  -1.265   3.782  0.00  0.00    +0.118 A 
ATOM      9  N   UNL     1       4.541  -2.216   3.180  0.00  0.00    -0.208 NA
ATOM     10  C   UNL     1       3.947  -1.991   2.027  0.00  0.00    +0.202 A 
ATOM     11  N   UNL     1       3.220  -2.992   1.433  0.00  0.00    -0.304 N 
ATOM     12  C   UNL     1       2.211  -3.746   2.192  0.00  0.00    +0.089 C 
ATOM     13  C   UNL     1       2.467  -5.243   1.986  0.00  0.00    -0.059 C 
ATOM     14  N   UNL     1       2.491  -5.541   0.549  0.00  0.00    +0.384 N 
ATOM     15  C   UNL     1       3.625  -4.855  -0.085  0.00  0.00    -0.059 C 
ATOM     16  C   UNL     1       3.422  -3.336   0.017  0.00  0.00    +0.089 C 
ATOM     17  H   UNL     1       1.631  -5.226   0.127  0.00  0.00    -0.081 HD
ENDROOT
BRANCH   5  18
ATOM     18  C   UNL     1       6.450   2.324   3.537  0.00  0.00    -0.017 A 
ATOM     19  C   UNL     1       6.897   2.549   2.236  0.00  0.00    +0.008 A 
ATOM     20  C   UNL     1       7.121   3.838   1.799  0.00  0.00    +0.001 A 
ATOM     21  C   UNL     1       6.903   4.907   2.650  0.00  0.00    +0.000 A 
ATOM     22  C   UNL     1       6.460   4.690   3.942  0.00  0.00    +0.001 A 
ATOM     23  C   UNL     1       6.227   3.405   4.388  0.00  0.00    +0.008 A 
ENDBRANCH   5  18
BRANCH   1  24
ATOM     24  C   UNL     1       3.383  -0.566   0.125  0.00  0.00    +0.163 C 
BRANCH  24  28
ATOM     25  C   UNL     1      -0.667   0.611   0.799  0.00  0.00    +0.000 A 
ATOM     26  C   UNL     1       0.339   1.558   0.816  0.00  0.00    +0.000 A 
ATOM     27  C   UNL     1       1.650   1.178   0.598  0.00  0.00    +0.005 A 
ATOM     28  C   UNL     1       1.954  -0.150   0.364  0.00  0.00    -0.028 A 
ATOM     29  C   UNL     1       0.948  -1.098   0.348  0.00  0.00    +0.005 A 
ATOM     30  C   UNL     1      -0.363  -0.717   0.565  0.00  0.00    +0.000 A 
ENDBRANCH  24  28
ENDBRANCH   1  24
BRANCH  14  31
ATOM     31  C   UNL     1       2.627  -6.991   0.353  0.00  0.00    -0.043 C 
BRANCH  31  32
ATOM     32  C   UNL     1       2.529  -7.311  -1.116  0.00  0.00    -0.064 A 
ATOM     33  C   UNL     1       1.298  -7.577  -1.684  0.00  0.00    +0.003 A 
ATOM     34  C   UNL     1       1.207  -7.871  -3.032  0.00  0.00    +0.020 A 
ATOM     35  C   UNL     1       2.350  -7.898  -3.812  0.00  0.00    +0.041 A 
ATOM     36  C   UNL     1       3.582  -7.631  -3.242  0.00  0.00    +0.020 A 
ATOM     37  C   UNL     1       3.670  -7.332  -1.896  0.00  0.00    +0.003 A 
ATOM     38 CL   UNL     1       2.237  -8.268  -5.504  0.00  0.00    -0.084 Cl
ENDBRANCH  31  32
ENDBRANCH  14  31
TORSDOF 5
