REMARK  Name = ZINC38207315
REMARK  2 active torsions:
REMARK  status: ('A' for Active; 'I' for Inactive)
REMARK    1  A    between atoms: C_7  and  N_10
REMARK    2  A    between atoms: C_11  and  C_13
REMARK                            x       y       z     vdW  Elec       q    Type
REMARK                         _______ _______ _______ _____ _____    ______ ____
ROOT
ATOM      1  N   UNL     1       0.055  -1.884  -1.568  0.00  0.00    -0.304 N 
ATOM      2  C   UNL     1      -0.008  -2.360  -2.828  0.00  0.00    +0.220 C 
ATOM      3  O   UNL     1       0.355  -1.669  -3.756  0.00  0.00    -0.275 OA
ATOM      4  H   UNL     1      -0.235  -2.437  -0.826  0.00  0.00    +0.149 HD
ENDROOT
BRANCH   2   5
ATOM      5  C   UNL     1      -0.528  -3.751  -3.082  0.00  0.00    +0.048 C 
ATOM      6  C   UNL     1       0.349  -4.766  -2.346  0.00  0.00    +0.019 C 
ATOM      7  C   UNL     1      -0.180  -6.179  -2.604  0.00  0.00    -0.009 C 
ATOM      8  C   UNL     1      -0.145  -6.469  -4.106  0.00  0.00    +0.007 C 
ATOM      9  C   UNL     1      -1.022  -5.454  -4.842  0.00  0.00    -0.009 C 
ATOM     10  C   UNL     1      -0.494  -4.042  -4.584  0.00  0.00    +0.019 C 
ATOM     11  C   UNL     1      -2.462  -5.561  -4.335  0.00  0.00    +0.007 C 
ATOM     12  C   UNL     1      -2.496  -5.271  -2.833  0.00  0.00    -0.009 C 
ATOM     13  C   UNL     1      -1.619  -6.286  -2.097  0.00  0.00    +0.007 C 
ATOM     14  C   UNL     1      -1.968  -3.858  -2.575  0.00  0.00    +0.019 C 
ENDBRANCH   2   5
BRANCH   1  21
ATOM     15  C   UNL     1      -0.018   1.514   0.010  0.00  0.00    +0.004 C 
ATOM     16  C   UNL     1       1.362   2.145   0.001  0.00  0.00    +0.019 C 
ATOM     17  C   UNL     1       2.077   1.871  -1.324  0.00  0.00    +0.104 C 
ATOM     18  N   UNL     1       2.768   0.575  -1.227  0.00  0.00    -0.314 N 
ATOM     19  C   UNL     1       2.071  -0.562  -1.227  0.00  0.00    +0.233 C 
ATOM     20  O   UNL     1       2.651  -1.625  -1.152  0.00  0.00    -0.274 OA
ATOM     21  C   UNL     1       0.560  -0.531  -1.321  0.00  0.00    +0.159 C 
ATOM     22  C   UNL     1       0.002  -0.004   0.002  0.00  0.00    +0.032 C 
ATOM     23  H   UNL     1       3.735   0.548  -1.162  0.00  0.00    +0.149 HD
ENDBRANCH   1  21
TORSDOF 2
