REMARK  Name = ZINC16460755
REMARK  15 active torsions:
REMARK  status: ('A' for Active; 'I' for Inactive)
REMARK    1  A    between atoms: C_1  and  C_2
REMARK    2  A    between atoms: C_2  and  C_3
REMARK    3  A    between atoms: C_3  and  N_4
REMARK    4  A    between atoms: N_4  and  C_5
REMARK    5  A    between atoms: C_5  and  C_6
REMARK    6  A    between atoms: C_6  and  C_7
REMARK    7  A    between atoms: C_8  and  C_10
REMARK    8  A    between atoms: C_13  and  C_15
REMARK    9  A    between atoms: C_15  and  S_16
REMARK   10  A    between atoms: S_16  and  C_17
REMARK   11  A    between atoms: C_20  and  C_29
REMARK   12  A    between atoms: N_21  and  C_22
REMARK   13  A    between atoms: C_25  and  C_28
REMARK   14  A    between atoms: C_33  and  O_35
REMARK   15  A    between atoms: O_35  and  C_36
REMARK                            x       y       z     vdW  Elec       q    Type
REMARK                         _______ _______ _______ _____ _____    ______ ____
ROOT
ATOM      1  C   UNL     1      -4.390  -0.654   0.084  0.00  0.00    +0.197 A 
ATOM      2  N   UNL     1      -3.802  -1.825   0.198  0.00  0.00    -0.122 NA
ATOM      3  N   UNL     1      -2.535  -1.702   0.026  0.00  0.00    -0.128 NA
ATOM      4  C   UNL     1      -2.232  -0.447  -0.208  0.00  0.00    +0.169 A 
ATOM      5  N   UNL     1      -3.411   0.266  -0.173  0.00  0.00    -0.270 N 
ENDROOT
BRANCH   5   6
ATOM      6  C   UNL     1      -3.573   1.645  -0.363  0.00  0.00    +0.051 A 
ATOM      7  C   UNL     1      -3.124   2.538   0.601  0.00  0.00    +0.026 A 
ATOM      8  C   UNL     1      -3.281   3.897   0.409  0.00  0.00    +0.005 A 
ATOM      9  C   UNL     1      -3.894   4.368  -0.738  0.00  0.00    -0.050 A 
ATOM     10  C   UNL     1      -4.347   3.481  -1.697  0.00  0.00    +0.005 A 
ATOM     11  C   UNL     1      -4.189   2.122  -1.513  0.00  0.00    +0.026 A 
ATOM     12  C   UNL     1      -4.068   5.851  -0.942  0.00  0.00    +0.044 C 
ENDBRANCH   5   6
BRANCH   4  13
ATOM     13  C   UNL     1      -0.881   0.100  -0.456  0.00  0.00    +0.023 A 
ATOM     14  C   UNL     1       0.249  -0.637  -0.100  0.00  0.00    +0.012 A 
ATOM     15  C   UNL     1       1.508  -0.121  -0.328  0.00  0.00    +0.004 A 
ATOM     16  C   UNL     1       1.655   1.124  -0.913  0.00  0.00    +0.045 A 
ATOM     17  C   UNL     1       0.536   1.862  -1.275  0.00  0.00    +0.121 A 
ATOM     18  C   UNL     1      -0.732   1.353  -1.051  0.00  0.00    +0.057 A 
BRANCH  17  19
ATOM     19  O   UNL     1       0.686   3.084  -1.850  0.00  0.00    -0.495 OA
ATOM     20  C   UNL     1       2.023   3.547  -2.051  0.00  0.00    +0.277 C 
ENDBRANCH  17  19
ENDBRANCH   4  13
BRANCH   1  21
ATOM     21  S   UNL     1      -6.115  -0.331   0.239  0.00  0.00    -0.079 S 
BRANCH  21  22
ATOM     22  C   UNL     1      -6.719  -2.003   0.575  0.00  0.00    +0.140 C 
BRANCH  22  26
ATOM     23  C   UNL     1     -10.432  -2.052   0.191  0.00  0.00    +0.133 A 
ATOM     24  C   UNL     1     -10.721  -1.842   1.515  0.00  0.00    +0.080 A 
ATOM     25  S   UNL     1      -9.131  -1.738   2.203  0.00  0.00    -0.079 S 
ATOM     26  C   UNL     1      -8.216  -1.971   0.749  0.00  0.00    +0.089 A 
ATOM     27  N   UNL     1      -9.147  -2.106  -0.160  0.00  0.00    -0.239 NA
BRANCH  23  29
ATOM     28  N   UNL     1     -11.197  -2.281  -2.119  0.00  0.00    -0.296 N 
ATOM     29  C   UNL     1     -11.503  -2.207  -0.808  0.00  0.00    +0.265 C 
ATOM     30  O   UNL     1     -12.664  -2.268  -0.451  0.00  0.00    -0.268 OA
BRANCH  28  31
ATOM     31  C   UNL     1     -12.265  -2.323  -3.120  0.00  0.00    +0.108 C 
BRANCH  31  33
ATOM     32  C   UNL     1     -13.737  -0.941  -4.592  0.00  0.00    +0.005 C 
ATOM     33  C   UNL     1     -12.621  -0.897  -3.546  0.00  0.00    +0.016 C 
ENDBRANCH  31  33
ENDBRANCH  28  31
BRANCH  28  34
ATOM     34  C   UNL     1      -9.794  -2.320  -2.542  0.00  0.00    +0.108 C 
BRANCH  34  35
ATOM     35  C   UNL     1      -9.265  -3.750  -2.422  0.00  0.00    +0.016 C 
ATOM     36  C   UNL     1      -7.801  -3.790  -2.864  0.00  0.00    +0.005 C 
ENDBRANCH  34  35
ENDBRANCH  28  34
ENDBRANCH  23  29
ENDBRANCH  22  26
ENDBRANCH  21  22
ENDBRANCH   1  21
TORSDOF 11
