REMARK  Name = ZINC27323118
REMARK  7 active torsions:
REMARK  status: ('A' for Active; 'I' for Inactive)
REMARK    1  A    between atoms: C_1  and  C_2
REMARK    2  A    between atoms: C_2  and  C_37
REMARK    3  A    between atoms: C_7  and  C_19
REMARK    4  A    between atoms: C_8  and  N_11
REMARK    5  A    between atoms: C_14  and  N_18
REMARK    6  A    between atoms: C_19  and  S_20
REMARK    7  A    between atoms: S_20  and  N_23
REMARK                            x       y       z     vdW  Elec       q    Type
REMARK                         _______ _______ _______ _____ _____    ______ ____
ROOT
ATOM      1  C   UNL     1      -3.304   2.273   1.633  0.00  0.00    +0.012 C 
ATOM      2  C   UNL     1      -2.248   1.721   0.673  0.00  0.00    -0.023 C 
ATOM      3  C   UNL     1      -1.972   2.698  -0.523  0.00  0.00    -0.003 C 
ATOM      4  C   UNL     1      -0.719   2.024  -1.162  0.00  0.00    +0.005 C 
ATOM      5  C   UNL     1       0.054   1.424   0.035  0.00  0.00    +0.011 C 
ATOM      6  C   UNL     1      -0.801   1.792   1.285  0.00  0.00    +0.016 C 
ATOM      7  C   UNL     1      -0.628   3.334   1.437  0.00  0.00    +0.085 C 
ATOM      8  C   UNL     1      -1.404   3.934   0.239  0.00  0.00    +0.027 C 
ATOM      9  C   UNL     1      -2.600   0.311   0.194  0.00  0.00    +0.012 C 
ENDROOT
BRANCH   7  10
ATOM     10  N   UNL     1       0.789   3.698   1.363  0.00  0.00    -0.299 N 
ATOM     11  C   UNL     1       1.854   2.795   0.912  0.00  0.00    +0.107 C 
ATOM     12  C   UNL     1       3.171   3.432   1.407  0.00  0.00    +0.012 C 
ATOM     13  C   UNL     1       2.781   4.924   1.511  0.00  0.00    +0.014 C 
ATOM     14  C   UNL     1       1.280   4.905   1.695  0.00  0.00    +0.201 C 
ATOM     15  O   UNL     1       0.616   5.841   2.088  0.00  0.00    -0.277 OA
BRANCH  13  16
ATOM     16  N   UNL     1       3.133   5.635   0.274  0.00  0.00    +0.386 N 
ATOM     17  H   UNL     1       2.848   6.693   0.365  0.00  0.00    -0.089 HD
ATOM     18  H   UNL     1       2.596   5.183  -0.574  0.00  0.00    -0.089 HD
ATOM     19  H   UNL     1       4.217   5.560   0.103  0.00  0.00    -0.089 HD
ENDBRANCH  13  16
ENDBRANCH   7  10
BRANCH   6  20
ATOM     20  C   UNL     1      -0.552   0.950   2.538  0.00  0.00    +0.194 C 
BRANCH  20  21
ATOM     21  S   UNL     1       1.226   0.913   2.897  0.00  0.00    +0.032 S 
ATOM     22  O   UNL     1       1.915   0.189   1.887  0.00  0.00    -0.158 OA
ATOM     23  O   UNL     1       1.671   2.202   3.296  0.00  0.00    -0.158 OA
BRANCH  21  24
ATOM     24  N   UNL     1       1.366  -0.021   4.257  0.00  0.00    -0.181 NA
ATOM     25  C   UNL     1       1.311   0.588   5.593  0.00  0.00    +0.110 C 
ATOM     26  C   UNL     1       0.224  -0.127   6.411  0.00  0.00    +0.028 C 
ATOM     27  C   UNL     1       0.494  -1.629   6.404  0.00  0.00    -0.001 C 
ATOM     28  C   UNL     1       1.857  -1.921   7.057  0.00  0.00    +0.016 C 
ATOM     29  C   UNL     1       1.599  -3.264   7.775  0.00  0.00    +0.036 C 
ATOM     30  C   UNL     1       0.110  -3.288   8.047  0.00  0.00    -0.044 A 
ATOM     31  C   UNL     1      -0.526  -2.348   7.256  0.00  0.00    -0.038 A 
ATOM     32  C   UNL     1      -1.900  -2.197   7.337  0.00  0.00    +0.004 A 
ATOM     33  C   UNL     1      -2.636  -2.979   8.205  0.00  0.00    +0.000 A 
ATOM     34  C   UNL     1      -2.001  -3.917   8.996  0.00  0.00    +0.000 A 
ATOM     35  C   UNL     1      -0.630  -4.070   8.917  0.00  0.00    +0.004 A 
ATOM     36  C   UNL     1       0.471  -2.174   4.979  0.00  0.00    +0.028 C 
ATOM     37  C   UNL     1       1.554  -1.475   4.150  0.00  0.00    +0.110 C 
ENDBRANCH  21  24
ENDBRANCH  20  21
ENDBRANCH   6  20
TORSDOF 5
