REMARK  Name = ZINC35462605
REMARK  11 active torsions:
REMARK  status: ('A' for Active; 'I' for Inactive)
REMARK    1  A    between atoms: C_1  and  C_2
REMARK    2  A    between atoms: C_2  and  O_3
REMARK    3  A    between atoms: O_3  and  C_4
REMARK    4  A    between atoms: C_7  and  C_10
REMARK    5  A    between atoms: C_12  and  C_15
REMARK    6  A    between atoms: C_16  and  C_36
REMARK    7  A    between atoms: C_19  and  S_24
REMARK    8  A    between atoms: S_24  and  N_27
REMARK    9  A    between atoms: N_27  and  C_28
REMARK   10  A    between atoms: C_31  and  O_34
REMARK   11  A    between atoms: O_34  and  C_35
REMARK                            x       y       z     vdW  Elec       q    Type
REMARK                         _______ _______ _______ _____ _____    ______ ____
ROOT
ATOM      1  C   UNL     1       6.110  -7.944   4.053  0.00  0.00    +0.196 A 
ATOM      2  C   UNL     1       5.179  -8.908   3.836  0.00  0.00    +0.008 A 
ATOM      3  C   UNL     1       5.430  -9.947   4.834  0.00  0.00    +0.026 A 
ATOM      4  C   UNL     1       4.832 -11.173   5.134  0.00  0.00    +0.040 A 
ATOM      5  C   UNL     1       5.319 -11.931   6.162  0.00  0.00    +0.109 A 
ATOM      6  C   UNL     1       6.404 -11.490   6.907  0.00  0.00    +0.032 A 
ATOM      7  C   UNL     1       7.008 -10.283   6.627  0.00  0.00    +0.049 A 
ATOM      8  C   UNL     1       6.529  -9.495   5.587  0.00  0.00    +0.136 A 
ATOM      9  O   UNL     1       6.904  -8.302   5.083  0.00  0.00    -0.450 OA
ATOM     10  C   UNL     1       4.104  -8.906   2.780  0.00  0.00    +0.048 C 
ENDROOT
BRANCH   1  13
ATOM     11  C   UNL     1       6.962  -4.770   2.586  0.00  0.00    +0.202 A 
ATOM     12  N   UNL     1       7.138  -5.760   3.473  0.00  0.00    -0.184 NA
ATOM     13  C   UNL     1       6.239  -6.701   3.279  0.00  0.00    +0.294 A 
ATOM     14  O   UNL     1       5.457  -6.328   2.249  0.00  0.00    -0.329 OA
ATOM     15  N   UNL     1       5.941  -5.066   1.816  0.00  0.00    -0.056 NA
BRANCH  11  19
ATOM     16  C   UNL     1       9.315  -1.236   2.323  0.00  0.00    +0.121 A 
ATOM     17  C   UNL     1       8.258  -1.432   1.444  0.00  0.00    +0.046 A 
ATOM     18  C   UNL     1       7.494  -2.577   1.526  0.00  0.00    +0.015 A 
ATOM     19  C   UNL     1       7.783  -3.538   2.494  0.00  0.00    +0.023 A 
ATOM     20  C   UNL     1       8.844  -3.339   3.375  0.00  0.00    +0.015 A 
ATOM     21  C   UNL     1       9.608  -2.195   3.284  0.00  0.00    +0.046 A 
BRANCH  16  22
ATOM     22  O   UNL     1      10.066  -0.108   2.239  0.00  0.00    -0.492 OA
BRANCH  22  24
ATOM     23  C   UNL     1      10.661   2.032   1.287  0.00  0.00    +0.048 C 
ATOM     24  C   UNL     1       9.709   0.836   1.227  0.00  0.00    +0.225 C 
ENDBRANCH  22  24
ENDBRANCH  16  22
ENDBRANCH  11  19
ENDBRANCH   1  13
BRANCH   5  25
ATOM     25  S   UNL     1       4.566 -13.478   6.543  0.00  0.00    +0.072 S 
ATOM     26  O   UNL     1       4.758 -13.691   7.935  0.00  0.00    -0.150 OA
ATOM     27  O   UNL     1       3.277 -13.460   5.945  0.00  0.00    -0.150 OA
BRANCH  25  28
ATOM     28  N   UNL     1       5.435 -14.651   5.761  0.00  0.00    -0.216 N 
ATOM     29  H   UNL     1       5.898 -15.333   6.272  0.00  0.00    +0.174 HD
BRANCH  28  30
ATOM     30  C   UNL     1       5.500 -14.658   4.363  0.00  0.00    +0.048 A 
ATOM     31  C   UNL     1       4.407 -15.081   3.618  0.00  0.00    +0.028 A 
ATOM     32  C   UNL     1       4.473 -15.087   2.239  0.00  0.00    +0.047 A 
ATOM     33  C   UNL     1       5.630 -14.671   1.597  0.00  0.00    +0.120 A 
ATOM     34  C   UNL     1       6.723 -14.250   2.340  0.00  0.00    +0.047 A 
ATOM     35  C   UNL     1       6.657 -14.237   3.720  0.00  0.00    +0.028 A 
BRANCH  33  36
ATOM     36  O   UNL     1       5.694 -14.678   0.239  0.00  0.00    -0.495 OA
ATOM     37  C   UNL     1       6.916 -14.237  -0.356  0.00  0.00    +0.277 C 
ENDBRANCH  33  36
ENDBRANCH  28  30
ENDBRANCH  25  28
ENDBRANCH   5  25
TORSDOF 8
