REMARK  Name = ZINC19848860
REMARK  7 active torsions:
REMARK  status: ('A' for Active; 'I' for Inactive)
REMARK    1  A    between atoms: C_1  and  C_2
REMARK    2  A    between atoms: C_2  and  C_3
REMARK    3  A    between atoms: C_3  and  C_4
REMARK    4  A    between atoms: C_4  and  C_34
REMARK    5  A    between atoms: C_9  and  C_12
REMARK    6  A    between atoms: C_17  and  O_18
REMARK    7  A    between atoms: N_21  and  C_24
REMARK                            x       y       z     vdW  Elec       q    Type
REMARK                         _______ _______ _______ _____ _____    ______ ____
ROOT
ATOM      1  C   UNL     1      -3.351   0.317   0.657  0.00  0.00    +0.048 C 
ATOM      2  C   UNL     1      -2.425   0.197   1.873  0.00  0.00    +0.086 C 
ATOM      3  C   UNL     1      -1.681  -1.113   1.390  0.00  0.00    +0.077 C 
ATOM      4  C   UNL     1      -1.292  -0.776   0.011  0.00  0.00    -0.023 C 
ATOM      5  N   UNL     1      -2.416   0.079  -0.495  0.00  0.00    +0.396 N 
ATOM      6  C   UNL     1      -1.071  -1.563   2.622  0.00  0.00    +0.229 C 
ATOM      7  O   UNL     1       0.005  -2.101   2.763  0.00  0.00    -0.275 OA
ATOM      8  N   UNL     1      -1.986  -1.245   3.595  0.00  0.00    -0.209 N 
ATOM      9  C   UNL     1      -2.956  -0.393   3.150  0.00  0.00    +0.229 C 
ATOM     10  O   UNL     1      -4.024  -0.160   3.675  0.00  0.00    -0.275 OA
ATOM     11  H   UNL     1      -2.956  -0.433  -1.306  0.00  0.00    -0.083 HD
ATOM     12  H   UNL     1      -2.033   1.043  -0.862  0.00  0.00    -0.083 HD
ENDROOT
BRANCH   8  13
ATOM     13  C   UNL     1      -1.929  -1.739   4.903  0.00  0.00    +0.052 A 
ATOM     14  C   UNL     1      -2.574  -2.912   5.231  0.00  0.00    +0.024 A 
ATOM     15  C   UNL     1      -2.520  -3.414   6.528  0.00  0.00    +0.002 A 
ATOM     16  C   UNL     1      -1.839  -2.759   7.508  0.00  0.00    +0.008 A 
ATOM     17  C   UNL     1      -1.172  -1.558   7.216  0.00  0.00    -0.016 A 
ATOM     18  C   UNL     1      -1.216  -1.039   5.898  0.00  0.00    +0.004 A 
ATOM     19  C   UNL     1      -0.549   0.162   5.608  0.00  0.00    +0.010 A 
ATOM     20  C   UNL     1       0.130   0.811   6.593  0.00  0.00    +0.001 A 
ATOM     21  C   UNL     1       0.173   0.302   7.889  0.00  0.00    +0.001 A 
ATOM     22  C   UNL     1      -0.461  -0.859   8.207  0.00  0.00    +0.008 A 
ENDBRANCH   8  13
BRANCH   4  23
ATOM     23  C   UNL     1       0.002  -0.004   0.002  0.00  0.00    -0.019 A 
ATOM     24  C   UNL     1      -0.017   1.377   0.010  0.00  0.00    +0.005 A 
ATOM     25  C   UNL     1       1.170   2.086   0.002  0.00  0.00    +0.000 A 
ATOM     26  C   UNL     1       2.379   1.415  -0.013  0.00  0.00    +0.004 A 
ATOM     27  C   UNL     1       2.403   0.034  -0.021  0.00  0.00    +0.045 A 
ATOM     28  C   UNL     1       1.213  -0.680  -0.013  0.00  0.00    +0.118 A 
BRANCH  28  29
ATOM     29  O   UNL     1       1.234  -2.039  -0.020  0.00  0.00    -0.507 OA
ATOM     30  H   UNL     1       2.195  -2.574  -0.032  0.00  0.00    +0.292 HD
ENDBRANCH  28  29
ENDBRANCH   4  23
BRANCH   1  31
ATOM     31  C   UNL     1      -4.429  -0.736   0.701  0.00  0.00    +0.346 C 
ATOM     32  O   UNL     1      -4.766  -1.211   1.759  0.00  0.00    -0.248 OA
ATOM     33  O   UNL     1      -5.014  -1.144  -0.436  0.00  0.00    -0.248 OA
ENDBRANCH   1  31
BRANCH   1  34
ATOM     34  C   UNL     1      -3.965   1.716   0.578  0.00  0.00    -0.001 C 
BRANCH  34  36
ATOM     35  C   UNL     1      -5.496   3.202  -0.723  0.00  0.00    +0.004 C 
ATOM     36  C   UNL     1      -4.883   1.802  -0.643  0.00  0.00    -0.004 C 
ENDBRANCH  34  36
ENDBRANCH   1  34
TORSDOF 6
