REMARK  Name = ZINC13028246
REMARK  11 active torsions:
REMARK  status: ('A' for Active; 'I' for Inactive)
REMARK    1  A    between atoms: C_1  and  O_2
REMARK    2  A    between atoms: O_2  and  C_3
REMARK    3  A    between atoms: C_7  and  C_9
REMARK    4  A    between atoms: C_9  and  C_10
REMARK    5  A    between atoms: C_10  and  C_12
REMARK    6  A    between atoms: C_10  and  C_18
REMARK    7  A    between atoms: C_23  and  N_38
REMARK    8  A    between atoms: N_28  and  C_29
REMARK    9  A    between atoms: C_29  and  C_30
REMARK   10  A    between atoms: C_34  and  O_36
REMARK   11  A    between atoms: O_36  and  C_37
REMARK                            x       y       z     vdW  Elec       q    Type
REMARK                         _______ _______ _______ _____ _____    ______ ____
ROOT
ATOM      1  C   UNL     1       1.563  -4.580  -1.103  0.00  0.00    +0.121 A 
ATOM      2  N   UNL     1       2.016  -5.193  -0.052  0.00  0.00    -0.233 NA
ATOM      3  C   UNL     1       1.976  -6.545   0.055  0.00  0.00    +0.078 A 
ATOM      4  C   UNL     1       2.458  -7.205   1.188  0.00  0.00    +0.031 A 
ATOM      5  C   UNL     1       2.401  -8.579   1.252  0.00  0.00    +0.035 A 
ATOM      6  C   UNL     1       1.872  -9.319   0.202  0.00  0.00    +0.127 A 
ATOM      7  C   UNL     1       1.391  -8.691  -0.925  0.00  0.00    +0.048 A 
ATOM      8  C   UNL     1       1.438  -7.301  -1.010  0.00  0.00    +0.067 A 
ATOM      9  C   UNL     1       0.940  -6.576  -2.188  0.00  0.00    +0.262 A 
ATOM     10  O   UNL     1       0.464  -7.167  -3.140  0.00  0.00    -0.267 OA
ATOM     11  N   UNL     1       1.030  -5.225  -2.173  0.00  0.00    -0.291 N 
ENDROOT
BRANCH   6  12
ATOM     12  N   UNL     1       1.823 -10.795   0.297  0.00  0.00    +0.056 N 
ATOM     13  O   UNL     1       2.246 -11.356   1.292  0.00  0.00    -0.126 OA
ATOM     14  O   UNL     1       1.359 -11.450  -0.620  0.00  0.00    -0.126 OA
ENDBRANCH   6  12
BRANCH   1  15
ATOM     15  C   UNL     1       1.639  -3.075  -1.140  0.00  0.00    +0.089 C 
BRANCH  15  16
ATOM     16  C   UNL     1       2.913  -2.653  -1.825  0.00  0.00    -0.037 A 
ATOM     17  C   UNL     1       4.128  -3.146  -1.389  0.00  0.00    +0.004 A 
ATOM     18  C   UNL     1       5.297  -2.762  -2.020  0.00  0.00    +0.000 A 
ATOM     19  C   UNL     1       5.250  -1.878  -3.081  0.00  0.00    +0.000 A 
ATOM     20  C   UNL     1       4.035  -1.381  -3.514  0.00  0.00    +0.000 A 
ATOM     21  C   UNL     1       2.867  -1.768  -2.886  0.00  0.00    +0.004 A 
ENDBRANCH  15  16
BRANCH  15  22
ATOM     22  C   UNL     1       1.622  -2.528   0.289  0.00  0.00    +0.051 C 
BRANCH  22  27
ATOM     23  C   UNL     1       2.702   1.092   0.195  0.00  0.00    +0.120 A 
ATOM     24  C   UNL     1       1.477   1.743   0.177  0.00  0.00    +0.045 A 
ATOM     25  C   UNL     1       0.306   1.010   0.196  0.00  0.00    +0.004 A 
ATOM     26  C   UNL     1       0.354  -0.371   0.233  0.00  0.00    +0.004 A 
ATOM     27  C   UNL     1       1.573  -1.022   0.250  0.00  0.00    -0.043 A 
ATOM     28  C   UNL     1       2.748  -0.294   0.231  0.00  0.00    +0.049 A 
BRANCH  23  30
ATOM     29  C   UNL     1       3.732   3.234   0.139  0.00  0.00    +0.277 C 
ATOM     30  O   UNL     1       3.855   1.810   0.176  0.00  0.00    -0.495 OA
ENDBRANCH  23  30
ENDBRANCH  22  27
ENDBRANCH  15  22
ENDBRANCH   1  15
BRANCH  11  31
ATOM     31  C   UNL     1       0.549  -4.452  -3.320  0.00  0.00    +0.161 C 
BRANCH  31  32
ATOM     32  C   UNL     1      -0.936  -4.231  -3.189  0.00  0.00    -0.024 A 
ATOM     33  C   UNL     1      -1.821  -5.201  -3.623  0.00  0.00    +0.005 A 
ATOM     34  C   UNL     1      -3.183  -5.003  -3.498  0.00  0.00    +0.004 A 
ATOM     35  C   UNL     1      -3.665  -3.830  -2.951  0.00  0.00    +0.045 A 
ATOM     36  C   UNL     1      -2.780  -2.852  -2.520  0.00  0.00    +0.120 A 
ATOM     37  C   UNL     1      -1.413  -3.056  -2.641  0.00  0.00    +0.051 A 
BRANCH  36  38
ATOM     38  O   UNL     1      -3.251  -1.697  -1.982  0.00  0.00    -0.495 OA
ATOM     39  C   UNL     1      -4.670  -1.556  -1.889  0.00  0.00    +0.277 C 
ENDBRANCH  36  38
ENDBRANCH  31  32
ENDBRANCH  11  31
TORSDOF 9
