REMARK  Name = ZINC36645202
REMARK  9 active torsions:
REMARK  status: ('A' for Active; 'I' for Inactive)
REMARK    1  A    between atoms: C_1  and  N_2
REMARK    2  A    between atoms: N_2  and  C_3
REMARK    3  A    between atoms: N_2  and  C_4
REMARK    4  A    between atoms: C_4  and  C_5
REMARK    5  A    between atoms: C_5  and  C_6
REMARK    6  A    between atoms: C_6  and  N_7
REMARK    7  A    between atoms: C_18  and  C_20
REMARK    8  A    between atoms: C_23  and  N_29
REMARK    9  A    between atoms: C_24  and  N_26
REMARK                            x       y       z     vdW  Elec       q    Type
REMARK                         _______ _______ _______ _____ _____    ______ ____
ROOT
ATOM      1  N   UNL     1      -4.397  -0.223  -2.385  0.00  0.00    -0.246 N 
ATOM      2  C   UNL     1      -4.479  -1.031  -3.506  0.00  0.00    +0.168 A 
ATOM      3  N   UNL     1      -4.139  -2.292  -3.639  0.00  0.00    -0.224 NA
ATOM      4  C   UNL     1      -4.276  -2.963  -4.803  0.00  0.00    +0.080 A 
ATOM      5  C   UNL     1      -3.950  -4.311  -5.077  0.00  0.00    +0.030 A 
ATOM      6  C   UNL     1      -4.152  -4.841  -6.325  0.00  0.00    +0.022 A 
ATOM      7  C   UNL     1      -4.681  -4.080  -7.359  0.00  0.00    +0.042 A 
ATOM      8  C   UNL     1      -5.010  -2.756  -7.126  0.00  0.00    +0.037 A 
ATOM      9  C   UNL     1      -4.811  -2.218  -5.879  0.00  0.00    +0.042 A 
ATOM     10  S   UNL     1      -5.081  -0.626  -5.139  0.00  0.00    -0.052 S 
ATOM     11 CL   UNL     1      -4.924  -4.781  -8.928  0.00  0.00    -0.084 Cl
ATOM     12  C   UNL     1      -4.807   1.060  -2.448  0.00  0.00    +0.252 C 
ATOM     13  O   UNL     1      -5.314   1.487  -3.468  0.00  0.00    -0.270 OA
ENDROOT
BRANCH  12  14
ATOM     14  C   UNL     1      -4.641   1.945  -1.280  0.00  0.00    +0.040 A 
ATOM     15  C   UNL     1      -3.521   1.812  -0.454  0.00  0.00    +0.015 A 
ATOM     16  C   UNL     1      -3.369   2.639   0.635  0.00  0.00    +0.026 A 
ATOM     17  C   UNL     1      -4.330   3.608   0.914  0.00  0.00    +0.060 A 
ATOM     18  C   UNL     1      -5.446   3.742   0.094  0.00  0.00    +0.148 A 
ATOM     19  C   UNL     1      -5.601   2.922  -1.000  0.00  0.00    +0.047 A 
BRANCH  17  20
ATOM     20  N   UNL     1      -4.173   4.442   2.015  0.00  0.00    -0.328 N 
ATOM     21  C   UNL     1      -4.712   4.059   3.328  0.00  0.00    +0.105 C 
ATOM     22  C   UNL     1      -3.586   4.134   4.364  0.00  0.00    +0.019 C 
ATOM     23  C   UNL     1      -2.954   5.527   4.326  0.00  0.00    +0.003 C 
ATOM     24  C   UNL     1      -2.354   5.780   2.941  0.00  0.00    +0.019 C 
ATOM     25  C   UNL     1      -3.461   5.721   1.890  0.00  0.00    +0.105 C 
ENDBRANCH  17  20
BRANCH  18  26
ATOM     26  N   UNL     1      -6.465   4.773   0.395  0.00  0.00    +0.058 N 
ATOM     27  O   UNL     1      -7.435   4.890  -0.317  0.00  0.00    -0.126 OA
ATOM     28  O   UNL     1      -6.327   5.497   1.353  0.00  0.00    -0.126 OA
ENDBRANCH  18  26
ENDBRANCH  12  14
BRANCH   1  29
ATOM     29  C   UNL     1      -3.865  -0.761  -1.131  0.00  0.00    +0.114 C 
BRANCH  29  30
ATOM     30  C   UNL     1      -2.347  -0.916  -1.246  0.00  0.00    +0.001 C 
BRANCH  30  31
ATOM     31  C   UNL     1      -1.773  -1.329   0.111  0.00  0.00    -0.078 C 
BRANCH  31  33
ATOM     32  C   UNL     1       0.289  -0.173  -0.297  0.00  0.00    -0.097 C 
ATOM     33  N   UNL     1      -0.315  -1.478   0.000  0.00  0.00    +0.376 N 
ATOM     34  C   UNL     1       0.222  -1.989   1.268  0.00  0.00    -0.097 C 
ATOM     35  H   UNL     1      -0.099  -2.126  -0.742  0.00  0.00    -0.083 HD
ENDBRANCH  31  33
ENDBRANCH  30  31
ENDBRANCH  29  30
ENDBRANCH   1  29
TORSDOF 7
