REMARK  Name = ZINC06667924
REMARK  10 active torsions:
REMARK  status: ('A' for Active; 'I' for Inactive)
REMARK    1  A    between atoms: C_1  and  C_2
REMARK    2  A    between atoms: C_4  and  O_24
REMARK    3  A    between atoms: C_5  and  C_21
REMARK    4  A    between atoms: C_7  and  S_8
REMARK    5  A    between atoms: S_8  and  N_11
REMARK    6  A    between atoms: C_13  and  C_20
REMARK    7  A    between atoms: C_16  and  C_19
REMARK    8  A    between atoms: C_21  and  C_22
REMARK    9  A    between atoms: C_21  and  C_23
REMARK   10  A    between atoms: O_24  and  C_25
REMARK                            x       y       z     vdW  Elec       q    Type
REMARK                         _______ _______ _______ _____ _____    ______ ____
ROOT
ATOM      1  C   UNL     1       5.410   3.072   0.243  0.00  0.00    +0.046 C 
ATOM      2  C   UNL     1       4.001   2.549   0.139  0.00  0.00    -0.021 A 
ATOM      3  C   UNL     1       3.767   1.187   0.150  0.00  0.00    +0.051 A 
ATOM      4  C   UNL     1       2.469   0.706   0.061  0.00  0.00    +0.124 A 
ATOM      5  C   UNL     1       1.409   1.595  -0.051  0.00  0.00    -0.001 A 
ATOM      6  C   UNL     1       1.648   2.955  -0.062  0.00  0.00    +0.036 A 
ATOM      7  C   UNL     1       2.942   3.432   0.033  0.00  0.00    +0.109 A 
ENDROOT
BRANCH   7   8
ATOM      8  S   UNL     1       3.243   5.168   0.020  0.00  0.00    +0.061 S 
ATOM      9  O   UNL     1       4.264   5.396  -0.943  0.00  0.00    -0.153 OA
ATOM     10  O   UNL     1       1.972   5.800  -0.053  0.00  0.00    -0.153 OA
BRANCH   8  11
ATOM     11  N   UNL     1       3.885   5.565   1.494  0.00  0.00    -0.176 NA
ATOM     12  C   UNL     1       5.339   5.686   1.669  0.00  0.00    +0.112 C 
ATOM     13  C   UNL     1       5.645   7.062   2.280  0.00  0.00    +0.002 C 
ATOM     14  C   UNL     1       4.840   7.231   3.571  0.00  0.00    +0.009 C 
ATOM     15  C   UNL     1       3.345   7.167   3.253  0.00  0.00    +0.002 C 
ATOM     16  C   UNL     1       3.012   5.797   2.652  0.00  0.00    +0.112 C 
ATOM     17  C   UNL     1       2.988   8.265   2.250  0.00  0.00    +0.009 C 
ATOM     18  C   UNL     1       7.139   7.159   2.593  0.00  0.00    +0.009 C 
ENDBRANCH   8  11
ENDBRANCH   7   8
BRANCH   5  19
ATOM     19  C   UNL     1      -0.002   1.075  -0.156  0.00  0.00    +0.016 C 
ATOM     20  C   UNL     1      -0.624   1.549  -1.471  0.00  0.00    +0.012 C 
ATOM     21  C   UNL     1      -0.828   1.604   1.019  0.00  0.00    +0.012 C 
ENDBRANCH   5  19
BRANCH   4  22
ATOM     22  O   UNL     1       2.237  -0.632   0.077  0.00  0.00    -0.495 OA
ATOM     23  C   UNL     1       3.376  -1.487   0.195  0.00  0.00    +0.277 C 
ENDBRANCH   4  22
TORSDOF 4
