REMARK  Name = ZINC32191910
REMARK  3 active torsions:
REMARK  status: ('A' for Active; 'I' for Inactive)
REMARK    1  A    between atoms: C_1  and  C_2
REMARK    2  A    between atoms: C_4  and  C_10
REMARK    3  A    between atoms: N_5  and  C_9
REMARK                            x       y       z     vdW  Elec       q    Type
REMARK                         _______ _______ _______ _____ _____    ______ ____
ROOT
ATOM      1  C   UNL     1       1.174   3.531   0.479  0.00  0.00    +0.044 C 
ATOM      2  C   UNL     1       1.187   2.046   0.226  0.00  0.00    -0.046 A 
ATOM      3  C   UNL     1      -0.015   1.352   0.015  0.00  0.00    +0.024 A 
ATOM      4  C   UNL     1       0.007   0.018  -0.212  0.00  0.00    +0.017 A 
ATOM      5  N   UNL     1       1.183  -0.661  -0.238  0.00  0.00    -0.342 N 
ATOM      6  C   UNL     1       2.352  -0.023  -0.038  0.00  0.00    +0.087 A 
ATOM      7  S   UNL     1       3.822  -0.899  -0.075  0.00  0.00    -0.033 S 
ATOM      8  C   UNL     1       2.366   1.361   0.201  0.00  0.00    +0.037 A 
ATOM      9  C   UNL     1       1.180  -2.105  -0.486  0.00  0.00    +0.149 C 
ATOM     10  C   UNL     1      -1.286  -0.721  -0.438  0.00  0.00    +0.063 C 
ENDROOT
TORSDOF 0
