REMARK  Name = ZINC40986235
REMARK  10 active torsions:
REMARK  status: ('A' for Active; 'I' for Inactive)
REMARK    1  A    between atoms: C_1  and  C_2
REMARK    2  A    between atoms: C_2  and  C_3
REMARK    3  A    between atoms: C_3  and  C_4
REMARK    4  A    between atoms: C_4  and  S_5
REMARK    5  A    between atoms: S_5  and  C_8
REMARK    6  A    between atoms: C_11  and  C_15
REMARK    7  A    between atoms: N_17  and  C_18
REMARK    8  A    between atoms: C_18  and  C_19
REMARK    9  A    between atoms: C_19  and  C_21
REMARK   10  A    between atoms: C_19  and  N_28
REMARK                            x       y       z     vdW  Elec       q    Type
REMARK                         _______ _______ _______ _____ _____    ______ ____
ROOT
ATOM      1  C   UNL     1      -2.675  -8.552  -0.064  0.00  0.00    +0.248 C 
ATOM      2  O   UNL     1      -2.773  -9.154   0.988  0.00  0.00    -0.270 OA
ATOM      3  N   UNL     1      -2.538  -9.232  -1.220  0.00  0.00    -0.312 N 
ATOM      4  H   UNL     1      -2.461  -8.751  -2.058  0.00  0.00    +0.149 HD
ENDROOT
BRANCH   1   8
ATOM      5  C   UNL     1      -2.764  -4.396  -0.095  0.00  0.00    +0.272 A 
ATOM      6  N   UNL     1      -2.629  -5.041  -1.237  0.00  0.00    -0.219 NA
ATOM      7  C   UNL     1      -2.596  -6.361  -1.273  0.00  0.00    +0.130 A 
ATOM      8  C   UNL     1      -2.707  -7.075  -0.075  0.00  0.00    +0.092 A 
ATOM      9  C   UNL     1      -2.849  -6.348   1.115  0.00  0.00    +0.146 A 
ATOM     10  N   UNL     1      -2.867  -5.026   1.058  0.00  0.00    -0.199 NA
ATOM     11 CL   UNL     1      -2.992  -7.168   2.639  0.00  0.00    -0.061 Cl
BRANCH   5  12
ATOM     12  S   UNL     1      -2.801  -2.634  -0.110  0.00  0.00    +0.032 S 
ATOM     13  O   UNL     1      -3.533  -2.277   1.055  0.00  0.00    -0.166 OA
ATOM     14  O   UNL     1      -3.284  -2.292  -1.402  0.00  0.00    -0.166 OA
BRANCH  12  15
ATOM     15  C   UNL     1      -1.068  -2.130   0.063  0.00  0.00    +0.175 C 
BRANCH  15  16
ATOM     16  C   UNL     1      -0.978  -0.602   0.062  0.00  0.00    +0.023 C 
BRANCH  16  18
ATOM     17  C   UNL     1       0.574   1.350   0.207  0.00  0.00    +0.004 C 
ATOM     18  C   UNL     1       0.484  -0.177   0.208  0.00  0.00    -0.002 C 
ENDBRANCH  16  18
ENDBRANCH  15  16
ENDBRANCH  12  15
ENDBRANCH   5  12
ENDBRANCH   1   8
BRANCH   3  19
ATOM     19  C   UNL     1      -2.507 -10.696  -1.209  0.00  0.00    +0.094 C 
BRANCH  19  20
ATOM     20  C   UNL     1      -2.453 -11.216  -2.647  0.00  0.00    -0.020 C 
BRANCH  20  21
ATOM     21  C   UNL     1      -1.147 -10.807  -3.279  0.00  0.00    -0.059 A 
ATOM     22  C   UNL     1       0.003 -11.527  -3.017  0.00  0.00    +0.003 A 
ATOM     23  C   UNL     1       1.200 -11.152  -3.597  0.00  0.00    +0.020 A 
ATOM     24  C   UNL     1       1.247 -10.056  -4.440  0.00  0.00    +0.041 A 
ATOM     25  C   UNL     1       0.096  -9.335  -4.702  0.00  0.00    +0.020 A 
ATOM     26  C   UNL     1      -1.102  -9.715  -4.126  0.00  0.00    +0.003 A 
ATOM     27 CL   UNL     1       2.751  -9.584  -5.168  0.00  0.00    -0.084 Cl
ENDBRANCH  20  21
BRANCH  20  28
ATOM     28  N   UNL     1      -2.556 -12.681  -2.642  0.00  0.00    +0.385 N 
ATOM     29  C   UNL     1      -3.869 -13.100  -2.088  0.00  0.00    -0.078 C 
ATOM     30  C   UNL     1      -4.054 -14.530  -2.656  0.00  0.00    -0.020 C 
ATOM     31  C   UNL     1      -3.462 -14.415  -4.080  0.00  0.00    -0.020 C 
ATOM     32  C   UNL     1      -2.519 -13.199  -4.027  0.00  0.00    -0.078 C 
ATOM     33  H   UNL     1      -1.806 -13.082  -2.100  0.00  0.00    -0.081 HD
ENDBRANCH  20  28
ENDBRANCH  19  20
ENDBRANCH   3  19
TORSDOF 9
