REMARK  Name = ZINC09246928
REMARK  6 active torsions:
REMARK  status: ('A' for Active; 'I' for Inactive)
REMARK    1  A    between atoms: C_1  and  C_2
REMARK    2  A    between atoms: C_6  and  N_8
REMARK    3  A    between atoms: C_13  and  S_15
REMARK    4  A    between atoms: S_15  and  C_16
REMARK    5  A    between atoms: N_25  and  C_26
REMARK    6  A    between atoms: C_30  and  C_32
REMARK                            x       y       z     vdW  Elec       q    Type
REMARK                         _______ _______ _______ _____ _____    ______ ____
ROOT
ATOM      1  N   UNL     1       0.331   5.885  -1.492  0.00  0.00    -0.283 N 
ATOM      2  C   UNL     1       1.469   6.500  -1.006  0.00  0.00    +0.225 A 
ATOM      3  N   UNL     1       1.408   7.750  -0.557  0.00  0.00    -0.181 NA
ATOM      4  C   UNL     1       2.502   8.341  -0.084  0.00  0.00    +0.225 A 
ATOM      5  N   UNL     1       3.658   7.685  -0.071  0.00  0.00    -0.188 NA
ATOM      6  C   UNL     1       3.720   6.437  -0.525  0.00  0.00    +0.203 A 
ATOM      7  N   UNL     1       2.625   5.845  -0.992  0.00  0.00    -0.188 NA
ATOM      8  N   UNL     1       2.437   9.637   0.388  0.00  0.00    -0.283 N 
ATOM      9  H   UNL     1      -0.476   6.403  -1.637  0.00  0.00    +0.155 HD
ATOM     10  H   UNL     1       3.212  10.038   0.812  0.00  0.00    +0.155 HD
ENDROOT
BRANCH   1  16
ATOM     11  C   UNL     1      -1.041   2.145  -4.372  0.00  0.00    +0.044 C 
ATOM     12  C   UNL     1      -0.314   2.675  -3.163  0.00  0.00    -0.049 A 
ATOM     13  C   UNL     1       0.367   1.805  -2.330  0.00  0.00    +0.003 A 
ATOM     14  C   UNL     1       1.041   2.288  -1.223  0.00  0.00    +0.002 A 
ATOM     15  C   UNL     1       1.031   3.640  -0.942  0.00  0.00    +0.023 A 
ATOM     16  C   UNL     1       0.344   4.515  -1.773  0.00  0.00    +0.034 A 
ATOM     17  C   UNL     1      -0.332   4.027  -2.884  0.00  0.00    +0.026 A 
ENDBRANCH   1  16
BRANCH   8  18
ATOM     18  C   UNL     1       1.255  10.372   0.255  0.00  0.00    +0.034 A 
ATOM     19  C   UNL     1       0.036   9.716   0.148  0.00  0.00    +0.023 A 
ATOM     20  C   UNL     1      -1.130  10.445   0.021  0.00  0.00    +0.002 A 
ATOM     21  C   UNL     1      -1.084  11.826  -0.011  0.00  0.00    +0.003 A 
ATOM     22  C   UNL     1       0.129  12.483   0.090  0.00  0.00    -0.049 A 
ATOM     23  C   UNL     1       1.298  11.760   0.222  0.00  0.00    +0.026 A 
ATOM     24  C   UNL     1       0.175  13.989   0.054  0.00  0.00    +0.044 C 
ENDBRANCH   8  18
BRANCH   6  25
ATOM     25  S   UNL     1       5.252   5.568  -0.506  0.00  0.00    +0.009 S 
BRANCH  25  26
ATOM     26  C   UNL     1       6.258   6.739   0.343  0.00  0.00    +0.266 A 
ATOM     27  N   UNL     1       5.824   7.849   0.882  0.00  0.00    -0.203 NA
ATOM     28  C   UNL     1       6.875   8.498   1.451  0.00  0.00    +0.110 A 
ATOM     29  C   UNL     1       7.002   9.699   2.152  0.00  0.00    +0.031 A 
ATOM     30  C   UNL     1       8.239  10.097   2.608  0.00  0.00    +0.002 A 
ATOM     31  C   UNL     1       9.359   9.313   2.373  0.00  0.00    +0.004 A 
ATOM     32  C   UNL     1       9.248   8.124   1.682  0.00  0.00    +0.048 A 
ATOM     33  C   UNL     1       8.011   7.708   1.217  0.00  0.00    +0.156 A 
ATOM     34  O   UNL     1       7.586   6.625   0.526  0.00  0.00    -0.430 OA
ENDBRANCH  25  26
ENDBRANCH   6  25
TORSDOF 4
