REMARK  Name = ZINC36506468
REMARK  12 active torsions:
REMARK  status: ('A' for Active; 'I' for Inactive)
REMARK    1  A    between atoms: C_1  and  C_2
REMARK    2  A    between atoms: C_2  and  C_3
REMARK    3  A    between atoms: C_3  and  C_4
REMARK    4  A    between atoms: C_4  and  N_5
REMARK    5  A    between atoms: C_6  and  C_8
REMARK    6  A    between atoms: C_8  and  C_10
REMARK    7  A    between atoms: C_8  and  N_20
REMARK    8  A    between atoms: C_13  and  C_16
REMARK    9  A    between atoms: N_20  and  C_21
REMARK   10  A    between atoms: C_21  and  C_22
REMARK   11  A    between atoms: C_27  and  C_29
REMARK   12  A    between atoms: C_32  and  N_35
REMARK                            x       y       z     vdW  Elec       q    Type
REMARK                         _______ _______ _______ _____ _____    ______ ____
ROOT
ATOM      1  C   UNL     1       4.210  -5.074   3.064  0.00  0.00    +0.193 C 
ENDROOT
BRANCH   1   2
ATOM      2  C   UNL     1       5.561  -5.723   3.222  0.00  0.00    -0.018 A 
ATOM      3  C   UNL     1       5.741  -7.043   2.855  0.00  0.00    +0.006 A 
ATOM      4  C   UNL     1       6.980  -7.638   3.000  0.00  0.00    +0.013 A 
ATOM      5  C   UNL     1       8.040  -6.913   3.511  0.00  0.00    +0.055 A 
ATOM      6  C   UNL     1       7.861  -5.592   3.877  0.00  0.00    +0.013 A 
ATOM      7  C   UNL     1       6.622  -4.995   3.728  0.00  0.00    +0.006 A 
BRANCH   5   8
ATOM      8  C   UNL     1       9.391  -7.562   3.670  0.00  0.00    +0.417 C 
ATOM      9  F   UNL     1      10.135  -7.381   2.499  0.00  0.00    -0.166 F 
ATOM     10  F   UNL     1      10.065  -6.977   4.747  0.00  0.00    -0.166 F 
ATOM     11  F   UNL     1       9.225  -8.930   3.911  0.00  0.00    -0.166 F 
ENDBRANCH   5   8
ENDBRANCH   1   2
BRANCH   1  13
ATOM     12  N   UNL     1       3.984  -3.561   1.120  0.00  0.00    -0.313 N 
ATOM     13  C   UNL     1       3.943  -4.818   1.603  0.00  0.00    +0.238 C 
ATOM     14  O   UNL     1       3.692  -5.744   0.861  0.00  0.00    -0.273 OA
ATOM     15  H   UNL     1       4.186  -2.820   1.713  0.00  0.00    +0.149 HD
BRANCH  12  16
ATOM     16  C   UNL     1       3.725  -3.312  -0.300  0.00  0.00    +0.104 C 
BRANCH  16  17
ATOM     17  C   UNL     1       3.833  -1.812  -0.583  0.00  0.00    +0.018 C 
BRANCH  17  19
ATOM     18  C   UNL     1       3.670  -0.053  -2.350  0.00  0.00    +0.004 C 
ATOM     19  C   UNL     1       3.562  -1.553  -2.067  0.00  0.00    -0.002 C 
ENDBRANCH  17  19
ENDBRANCH  16  17
ENDBRANCH  12  16
ENDBRANCH   1  13
BRANCH   1  20
ATOM     20  N   UNL     1       3.176  -5.962   3.601  0.00  0.00    -0.275 N 
ATOM     21  C   UNL     1       2.803  -5.858   4.892  0.00  0.00    +0.248 C 
ATOM     22  O   UNL     1       1.954  -6.603   5.341  0.00  0.00    -0.270 OA
BRANCH  21  23
ATOM     23  C   UNL     1       3.426  -4.837   5.762  0.00  0.00    +0.037 A 
ATOM     24  C   UNL     1       3.569  -3.524   5.311  0.00  0.00    +0.015 A 
ATOM     25  C   UNL     1       4.150  -2.577   6.128  0.00  0.00    +0.033 A 
ATOM     26  C   UNL     1       4.592  -2.926   7.391  0.00  0.00    +0.126 A 
ATOM     27  C   UNL     1       4.454  -4.226   7.844  0.00  0.00    +0.033 A 
ATOM     28  C   UNL     1       3.869  -5.182   7.040  0.00  0.00    +0.015 A 
BRANCH  26  29
ATOM     29  N   UNL     1       5.216  -1.905   8.262  0.00  0.00    +0.056 N 
ATOM     30  O   UNL     1       5.338  -0.768   7.869  0.00  0.00    -0.126 OA
ATOM     31  O   UNL     1       5.603  -2.207   9.367  0.00  0.00    -0.126 OA
ENDBRANCH  26  29
ENDBRANCH  21  23
BRANCH  20  32
ATOM     32  C   UNL     1       2.548  -6.963   2.735  0.00  0.00    +0.183 C 
BRANCH  32  33
ATOM     33  C   UNL     1       1.178  -6.486   2.328  0.00  0.00    +0.122 A 
ATOM     34  C   UNL     1       0.911  -5.605   1.347  0.00  0.00    +0.046 A 
ATOM     35  C   UNL     1      -0.493  -5.447   1.308  0.00  0.00    +0.041 A 
ATOM     36  C   UNL     1      -1.001  -6.242   2.268  0.00  0.00    +0.195 A 
ATOM     37  O   UNL     1       0.016  -6.873   2.878  0.00  0.00    -0.466 OA
ENDBRANCH  32  33
ENDBRANCH  20  32
ENDBRANCH   1  20
TORSDOF 11
