REMARK  Name = ZINC35452089
REMARK  8 active torsions:
REMARK  status: ('A' for Active; 'I' for Inactive)
REMARK    1  A    between atoms: C_1  and  C_2
REMARK    2  A    between atoms: C_4  and  C_8
REMARK    3  A    between atoms: N_5  and  C_7
REMARK    4  A    between atoms: C_8  and  N_9
REMARK    5  A    between atoms: N_9  and  C_10
REMARK    6  A    between atoms: C_10  and  C_11
REMARK    7  A    between atoms: C_11  and  C_12
REMARK    8  A    between atoms: C_22  and  C_24
REMARK                            x       y       z     vdW  Elec       q    Type
REMARK                         _______ _______ _______ _____ _____    ______ ____
ROOT
ATOM      1  N   UNL     1       1.426  -3.761  -1.807  0.00  0.00    -0.291 N 
ATOM      2  C   UNL     1       2.111  -3.365  -2.898  0.00  0.00    +0.249 C 
ATOM      3  O   UNL     1       1.617  -2.566  -3.671  0.00  0.00    -0.270 OA
ENDROOT
BRANCH   2   4
ATOM      4  C   UNL     1       3.456  -3.899  -3.154  0.00  0.00    +0.062 A 
ATOM      5  C   UNL     1       4.520  -3.874  -2.301  0.00  0.00    +0.096 A 
ATOM      6  N   UNL     1       5.591  -4.461  -2.888  0.00  0.00    -0.360 N 
ATOM      7  H   UNL     1       6.462  -4.562  -2.474  0.00  0.00    +0.165 HD
ATOM      8  C   UNL     1       5.267  -4.896  -4.157  0.00  0.00    +0.047 A 
ATOM      9  C   UNL     1       3.919  -4.572  -4.381  0.00  0.00    +0.012 A 
ATOM     10  C   UNL     1       3.314  -4.901  -5.591  0.00  0.00    +0.011 A 
ATOM     11  C   UNL     1       4.044  -5.549  -6.565  0.00  0.00    +0.001 A 
ATOM     12  C   UNL     1       5.374  -5.873  -6.343  0.00  0.00    +0.002 A 
ATOM     13  C   UNL     1       5.988  -5.545  -5.153  0.00  0.00    +0.026 A 
ENDBRANCH   2   4
BRANCH   1  14
ATOM     14  C   UNL     1       0.050  -3.301  -1.600  0.00  0.00    +0.163 C 
BRANCH  14  18
ATOM     15  C   UNL     1       0.047   1.551  -0.055  0.00  0.00    +0.067 C 
ATOM     16  C   UNL     1       0.057   0.044  -0.038  0.00  0.00    +0.060 A 
ATOM     17  C   UNL     1       0.042  -0.788  -1.162  0.00  0.00    +0.049 A 
ATOM     18  C   UNL     1       0.058  -2.071  -0.730  0.00  0.00    +0.056 A 
ATOM     19  N   UNL     1       0.081  -2.050   0.619  0.00  0.00    -0.270 N 
ATOM     20  N   UNL     1       0.085  -0.711   1.030  0.00  0.00    -0.176 NA
ATOM     21  C   UNL     1       0.104  -3.221   1.499  0.00  0.00    +0.172 C 
ENDBRANCH  14  18
ENDBRANCH   1  14
BRANCH   1  22
ATOM     22  C   UNL     1       2.056  -4.651  -0.829  0.00  0.00    +0.113 C 
BRANCH  22  23
ATOM     23  C   UNL     1       1.783  -6.107  -1.214  0.00  0.00    +0.056 C 
BRANCH  23  24
ATOM     24  C   UNL     1       2.431  -7.022  -0.207  0.00  0.00    -0.021 A 
ATOM     25  C   UNL     1       3.643  -7.590  -0.309  0.00  0.00    +0.087 A 
ATOM     26  N   UNL     1       3.893  -8.357   0.796  0.00  0.00    -0.360 N 
ATOM     27  H   UNL     1       4.705  -8.865   0.950  0.00  0.00    +0.165 HD
ATOM     28  C   UNL     1       2.821  -8.300   1.658  0.00  0.00    +0.047 A 
ATOM     29  C   UNL     1       1.861  -7.457   1.070  0.00  0.00    +0.003 A 
ATOM     30  C   UNL     1       0.656  -7.206   1.730  0.00  0.00    +0.010 A 
ATOM     31  C   UNL     1       0.418  -7.779   2.947  0.00  0.00    +0.001 A 
ATOM     32  C   UNL     1       1.364  -8.609   3.533  0.00  0.00    +0.002 A 
ATOM     33  C   UNL     1       2.555  -8.877   2.895  0.00  0.00    +0.026 A 
ENDBRANCH  23  24
ENDBRANCH  22  23
ENDBRANCH   1  22
TORSDOF 6
