REMARK  Name = ZINC37944063
REMARK  3 active torsions:
REMARK  status: ('A' for Active; 'I' for Inactive)
REMARK    1  A    between atoms: C_9  and  C_10
REMARK    2  A    between atoms: C_9  and  N_13
REMARK    3  A    between atoms: N_13  and  C_14
REMARK                            x       y       z     vdW  Elec       q    Type
REMARK                         _______ _______ _______ _____ _____    ______ ____
ROOT
ATOM      1  C   UNL     1       0.163   1.749  -0.018  0.00  0.00    +0.000 A 
ATOM      2  C   UNL     1       1.413   2.308  -0.206  0.00  0.00    +0.000 A 
ATOM      3  C   UNL     1       2.530   1.498  -0.259  0.00  0.00    +0.006 A 
ATOM      4  C   UNL     1       2.402   0.126  -0.122  0.00  0.00    -0.012 A 
ATOM      5  C   UNL     1       1.153  -0.434   0.066  0.00  0.00    -0.042 A 
ATOM      6  C   UNL     1       0.034   0.381   0.119  0.00  0.00    +0.004 A 
ATOM      7  C   UNL     1       1.278  -1.938   0.186  0.00  0.00    +0.038 C 
ATOM      8  C   UNL     1       2.672  -2.273  -0.385  0.00  0.00    +0.045 C 
ATOM      9  C   UNL     1       3.453  -0.964  -0.143  0.00  0.00    +0.135 C 
ENDROOT
BRANCH   9  10
ATOM     10  C   UNL     1       4.173  -1.021   1.180  0.00  0.00    +0.238 C 
ATOM     11  O   UNL     1       3.801  -1.791   2.040  0.00  0.00    -0.273 OA
ATOM     12  N   UNL     1       5.230  -0.216   1.407  0.00  0.00    -0.327 N 
ATOM     13  H   UNL     1       5.483   0.449   0.748  0.00  0.00    +0.145 HD
ATOM     14  H   UNL     1       5.737  -0.302   2.229  0.00  0.00    +0.145 HD
ENDBRANCH   9  10
BRANCH   9  15
ATOM     15  N   UNL     1       4.405  -0.732  -1.232  0.00  0.00    -0.326 N 
ATOM     16  H   UNL     1       4.345   0.077  -1.764  0.00  0.00    +0.147 HD
BRANCH  15  17
ATOM     17  C   UNL     1       5.400  -1.675  -1.503  0.00  0.00    +0.042 A 
ATOM     18  C   UNL     1       5.562  -2.775  -0.671  0.00  0.00    +0.024 A 
ATOM     19  C   UNL     1       6.546  -3.705  -0.942  0.00  0.00    +0.002 A 
ATOM     20  C   UNL     1       7.369  -3.543  -2.041  0.00  0.00    +0.001 A 
ATOM     21  C   UNL     1       7.211  -2.450  -2.872  0.00  0.00    +0.017 A 
ATOM     22  C   UNL     1       6.225  -1.517  -2.610  0.00  0.00    +0.039 A 
ATOM     23 BR   UNL     1       6.005  -0.025  -3.751  0.00  0.00    -0.048 Br
ENDBRANCH  15  17
ENDBRANCH   9  15
TORSDOF 3
