REMARK  Name = ZINC00111938
REMARK  6 active torsions:
REMARK  status: ('A' for Active; 'I' for Inactive)
REMARK    1  A    between atoms: C_1  and  O_2
REMARK    2  A    between atoms: O_2  and  C_3
REMARK    3  A    between atoms: C_6  and  C_9
REMARK    4  A    between atoms: N_18  and  C_19
REMARK    5  A    between atoms: C_22  and  O_25
REMARK    6  A    between atoms: O_25  and  C_26
REMARK                            x       y       z     vdW  Elec       q    Type
REMARK                         _______ _______ _______ _____ _____    ______ ____
ROOT
ATOM      1  C   UNL     1       3.793   1.545  -0.032  0.00  0.00    +0.126 C 
ATOM      2  C   UNL     1       4.194   0.081  -0.038  0.00  0.00    +0.070 C 
ATOM      3  C   UNL     1       4.952  -0.391  -1.289  0.00  0.00    +0.018 C 
ATOM      4  C   UNL     1       6.406  -0.596  -0.792  0.00  0.00    +0.001 C 
ATOM      5  C   UNL     1       6.205  -1.173   0.632  0.00  0.00    +0.001 C 
ATOM      6  C   UNL     1       4.982  -0.407   1.182  0.00  0.00    +0.018 C 
ATOM      7  C   UNL     1       2.727  -0.198  -0.025  0.00  0.00    +0.229 C 
ATOM      8  O   UNL     1       2.073  -1.219  -0.024  0.00  0.00    -0.275 OA
ATOM      9  N   UNL     1       2.403   1.103  -0.015  0.00  0.00    -0.262 N 
ENDROOT
BRANCH   1  13
ATOM     10  C   UNL     1       4.877   3.624  -3.605  0.00  0.00    +0.120 A 
ATOM     11  C   UNL     1       5.632   3.783  -2.452  0.00  0.00    +0.046 A 
ATOM     12  C   UNL     1       5.280   3.110  -1.299  0.00  0.00    +0.009 A 
ATOM     13  C   UNL     1       4.176   2.278  -1.292  0.00  0.00    -0.025 A 
ATOM     14  C   UNL     1       3.425   2.113  -2.442  0.00  0.00    +0.009 A 
ATOM     15  C   UNL     1       3.769   2.789  -3.596  0.00  0.00    +0.046 A 
BRANCH  10  17
ATOM     16  C   UNL     1       4.399   4.074  -5.890  0.00  0.00    +0.277 C 
ATOM     17  O   UNL     1       5.221   4.285  -4.741  0.00  0.00    -0.495 OA
ENDBRANCH  10  17
ENDBRANCH   1  13
BRANCH   9  18
ATOM     18  C   UNL     1       1.180   1.786   0.000  0.00  0.00    +0.037 A 
ATOM     19  C   UNL     1      -0.013   1.076   0.008  0.00  0.00    +0.027 A 
ATOM     20  C   UNL     1      -1.218   1.750   0.017  0.00  0.00    +0.047 A 
ATOM     21  C   UNL     1      -1.237   3.137   0.030  0.00  0.00    +0.120 A 
ATOM     22  C   UNL     1      -0.045   3.848   0.022  0.00  0.00    +0.047 A 
ATOM     23  C   UNL     1       1.161   3.175   0.007  0.00  0.00    +0.027 A 
BRANCH  21  24
ATOM     24  O   UNL     1      -2.423   3.800   0.045  0.00  0.00    -0.495 OA
ATOM     25  C   UNL     1      -3.611   3.005   0.053  0.00  0.00    +0.277 C 
ENDBRANCH  21  24
ENDBRANCH   9  18
TORSDOF 4
