REMARK  Name = ZINC37558714
REMARK  4 active torsions:
REMARK  status: ('A' for Active; 'I' for Inactive)
REMARK    1  A    between atoms: C_5  and  N_8
REMARK    2  A    between atoms: N_8  and  S_9
REMARK    3  A    between atoms: S_9  and  C_12
REMARK    4  A    between atoms: C_17  and  N_18
REMARK                            x       y       z     vdW  Elec       q    Type
REMARK                         _______ _______ _______ _____ _____    ______ ____
ROOT
ATOM      1  S   UNL     1      -0.176  -2.930   0.112  0.00  0.00    +0.096 S 
ATOM      2  O   UNL     1      -0.744  -2.581   1.367  0.00  0.00    -0.148 OA
ATOM      3  O   UNL     1      -0.873  -2.756  -1.114  0.00  0.00    -0.148 OA
ENDROOT
BRANCH   1   4
ATOM      4  C   UNL     1       0.251  -4.637   0.211  0.00  0.00    +0.166 A 
ATOM      5  C   UNL     1       0.041  -5.476   1.308  0.00  0.00    +0.133 A 
ATOM      6  N   UNL     1       0.487  -6.669   1.006  0.00  0.00    -0.304 N 
ATOM      7  H   UNL     1       1.393  -7.377  -0.777  0.00  0.00    +0.188 HD
ATOM      8  N   UNL     1       0.998  -6.632  -0.297  0.00  0.00    -0.286 N 
ATOM      9  C   UNL     1       0.839  -5.375  -0.771  0.00  0.00    +0.137 A 
ATOM     10  H   UNL     1       0.467  -7.446   1.586  0.00  0.00    +0.186 HD
BRANCH   9  11
ATOM     11  N   UNL     1       1.212  -4.918  -2.032  0.00  0.00    -0.342 N 
ATOM     12  H   UNL     1       1.057  -3.992  -2.278  0.00  0.00    +0.144 HD
ATOM     13  H   UNL     1       1.627  -5.525  -2.665  0.00  0.00    +0.144 HD
ENDBRANCH   9  11
ENDBRANCH   1   4
BRANCH   1  14
ATOM     14  N   UNL     1       1.238  -2.079  -0.022  0.00  0.00    -0.095 NA
BRANCH  14  19
ATOM     15  C   UNL     1       1.479   1.332  -1.374  0.00  0.00    +0.032 A 
ATOM     16  C   UNL     1       1.151   2.080  -0.257  0.00  0.00    +0.020 A 
ATOM     17  C   UNL     1       0.852   1.450   0.938  0.00  0.00    +0.032 A 
ATOM     18  C   UNL     1       0.880   0.071   1.019  0.00  0.00    +0.044 A 
ATOM     19  C   UNL     1       1.209  -0.683  -0.101  0.00  0.00    +0.102 A 
ATOM     20  C   UNL     1       1.508  -0.047  -1.299  0.00  0.00    +0.044 A 
ATOM     21 BR   UNL     1       1.956  -1.069  -2.826  0.00  0.00    -0.048 Br
ATOM     22 BR   UNL     1       0.472  -0.789   2.653  0.00  0.00    -0.048 Br
ATOM     23 BR   UNL     1       1.113   3.968  -0.364  0.00  0.00    -0.050 Br
ENDBRANCH  14  19
ENDBRANCH   1  14
TORSDOF 4
