REMARK  Name = ZINC44069419
REMARK  4 active torsions:
REMARK  status: ('A' for Active; 'I' for Inactive)
REMARK    1  A    between atoms: C_1  and  C_2
REMARK    2  A    between atoms: C_13  and  C_14
REMARK    3  A    between atoms: C_13  and  O_15
REMARK    4  A    between atoms: C_20  and  C_29
REMARK                            x       y       z     vdW  Elec       q    Type
REMARK                         _______ _______ _______ _____ _____    ______ ____
ROOT
ATOM      1  C   UNL     1      -0.019   1.526   0.010  0.00  0.00    +0.014 C 
ATOM      2  C   UNL     1       0.002  -0.004   0.002  0.00  0.00    -0.000 C 
ATOM      3  C   UNL     1       0.628  -0.481  -1.289  0.00  0.00    +0.010 C 
ATOM      4  C   UNL     1       0.814  -1.998  -1.284  0.00  0.00    +0.005 C 
ATOM      5  C   UNL     1       1.720  -2.371  -0.105  0.00  0.00    -0.001 C 
ATOM      6  C   UNL     1       1.023  -1.973   1.194  0.00  0.00    -0.004 C 
ATOM      7  C   UNL     1       0.749  -0.500   1.253  0.00  0.00    +0.001 C 
ATOM      8  C   UNL     1      -0.323  -0.286   2.363  0.00  0.00    +0.007 C 
ATOM      9  C   UNL     1      -1.647  -0.699   1.683  0.00  0.00    +0.035 C 
ATOM     10  C   UNL     1      -1.433  -0.522   0.166  0.00  0.00    +0.069 C 
ATOM     11  C   UNL     1      -2.429   0.496  -0.392  0.00  0.00    +0.042 C 
ATOM     12  C   UNL     1       1.874  -2.382   2.398  0.00  0.00    +0.004 C 
ATOM     13  C   UNL     1       2.127  -3.892   2.371  0.00  0.00    +0.005 C 
ATOM     14  C   UNL     1       2.839  -4.249   1.068  0.00  0.00    +0.001 C 
ATOM     15  C   UNL     1       1.945  -3.893  -0.123  0.00  0.00    -0.022 C 
ATOM     16  C   UNL     1       0.577  -4.570   0.051  0.00  0.00    +0.045 C 
ATOM     17  C   UNL     1       0.790  -6.027   0.372  0.00  0.00    -0.006 A 
ATOM     18  C   UNL     1      -0.097  -7.037   0.296  0.00  0.00    +0.108 A 
ATOM     19  N   UNL     1       0.536  -8.168   0.682  0.00  0.00    -0.284 N 
ATOM     20  H   UNL     1       0.143  -9.053   0.727  0.00  0.00    +0.188 HD
ATOM     21  N   UNL     1       1.860  -7.835   1.005  0.00  0.00    -0.179 NA
ATOM     22  C   UNL     1       2.012  -6.556   0.819  0.00  0.00    +0.066 A 
ATOM     23  C   UNL     1       3.205  -5.731   1.034  0.00  0.00    +0.061 C 
ATOM     24  C   UNL     1       2.602  -4.316  -1.439  0.00  0.00    +0.012 C 
ENDROOT
BRANCH  10  25
ATOM     25  O   UNL     1      -1.583  -1.776  -0.502  0.00  0.00    -0.388 OA
ATOM     26  H   UNL     1      -2.470  -2.155  -0.433  0.00  0.00    +0.210 HD
ENDBRANCH  10  25
TORSDOF 1
