REMARK  Name = ZINC63515534
REMARK  12 active torsions:
REMARK  status: ('A' for Active; 'I' for Inactive)
REMARK    1  A    between atoms: C_1  and  C_2
REMARK    2  A    between atoms: C_4  and  O_32
REMARK    3  A    between atoms: C_5  and  S_10
REMARK    4  A    between atoms: C_6  and  C_9
REMARK    5  A    between atoms: S_10  and  N_13
REMARK    6  A    between atoms: N_13  and  C_14
REMARK    7  A    between atoms: C_14  and  C_15
REMARK    8  A    between atoms: C_15  and  C_16
REMARK    9  A    between atoms: C_19  and  O_27
REMARK   10  A    between atoms: C_24  and  C_26
REMARK   11  A    between atoms: O_27  and  C_28
REMARK   12  A    between atoms: O_32  and  C_33
REMARK                            x       y       z     vdW  Elec       q    Type
REMARK                         _______ _______ _______ _____ _____    ______ ____
ROOT
ATOM      1  C   UNL     1       1.289  -4.097   1.017  0.00  0.00    +0.110 C 
ENDROOT
BRANCH   1   2
ATOM      2  N   UNL     1       0.989  -4.407  -0.384  0.00  0.00    -0.190 NA
ATOM      3  H   UNL     1       1.435  -5.148  -0.823  0.00  0.00    +0.148 HD
BRANCH   2   4
ATOM      4  S   UNL     1      -0.113  -3.493  -1.216  0.00  0.00    +0.062 S 
ATOM      5  O   UNL     1      -1.275  -3.416  -0.403  0.00  0.00    -0.153 OA
ATOM      6  O   UNL     1      -0.143  -4.003  -2.542  0.00  0.00    -0.153 OA
BRANCH   4  11
ATOM      7  C   UNL     1       2.122   2.105  -1.574  0.00  0.00    +0.045 C 
ATOM      8  C   UNL     1       1.562   0.709  -1.483  0.00  0.00    -0.028 A 
ATOM      9  C   UNL     1       0.639   0.397  -0.504  0.00  0.00    +0.052 A 
ATOM     10  C   UNL     1       0.124  -0.888  -0.420  0.00  0.00    +0.147 A 
ATOM     11  C   UNL     1       0.539  -1.859  -1.321  0.00  0.00    +0.151 A 
ATOM     12  C   UNL     1       1.462  -1.544  -2.298  0.00  0.00    -0.002 A 
ATOM     13  C   UNL     1       1.970  -0.260  -2.383  0.00  0.00    +0.049 A 
ATOM     14 CL   UNL     1       3.126   0.136  -3.617  0.00  0.00    -0.083 Cl
ATOM     15  C   UNL     1       1.913  -2.599  -3.276  0.00  0.00    +0.047 C 
BRANCH  10  16
ATOM     16  O   UNL     1      -0.784  -1.196   0.543  0.00  0.00    -0.493 OA
ATOM     17  C   UNL     1      -1.165  -0.147   1.435  0.00  0.00    +0.277 C 
ENDBRANCH  10  16
ENDBRANCH   4  11
ENDBRANCH   2   4
ENDBRANCH   1   2
BRANCH   1  18
ATOM     18  C   UNL     1       2.601  -4.773   1.419  0.00  0.00    +0.050 C 
BRANCH  18  19
ATOM     19  C   UNL     1       2.916  -4.444   2.856  0.00  0.00    -0.037 C 
ATOM     20  C   UNL     1       2.183  -3.675   3.693  0.00  0.00    +0.003 A 
ATOM     21  C   UNL     1       0.923  -2.942   3.525  0.00  0.00    +0.056 A 
ATOM     22  C   UNL     1       0.416  -2.240   4.567  0.00  0.00    +0.131 A 
ATOM     23  C   UNL     1       1.056  -2.185   5.817  0.00  0.00    +0.048 A 
ATOM     24  C   UNL     1       2.218  -2.825   6.068  0.00  0.00    +0.029 A 
ATOM     25  C   UNL     1       2.856  -3.616   5.011  0.00  0.00    +0.043 A 
ATOM     26  N   UNL     1       3.961  -4.319   4.989  0.00  0.00    -0.378 N 
ATOM     27  C   UNL     1       4.111  -4.912   3.655  0.00  0.00    +0.103 C 
ATOM     28  C   UNL     1       4.117  -6.439   3.750  0.00  0.00    +0.035 C 
ATOM     29  H   UNL     1       4.574  -4.433   5.731  0.00  0.00    +0.160 HD
BRANCH  22  30
ATOM     30  O   UNL     1      -0.752  -1.566   4.397  0.00  0.00    -0.406 OA
BRANCH  30  31
ATOM     31  C   UNL     1      -1.250  -0.838   5.522  0.00  0.00    +0.575 C 
ATOM     32  F   UNL     1      -0.312   0.125   5.907  0.00  0.00    -0.133 F 
ATOM     33  F   UNL     1      -2.450  -0.208   5.175  0.00  0.00    -0.133 F 
ATOM     34  F   UNL     1      -1.476  -1.720   6.584  0.00  0.00    -0.133 F 
ENDBRANCH  30  31
ENDBRANCH  22  30
ENDBRANCH  18  19
ENDBRANCH   1  18
TORSDOF 8
