REMARK  Name = ZINC13024174
REMARK  13 active torsions:
REMARK  status: ('A' for Active; 'I' for Inactive)
REMARK    1  A    between atoms: C_1  and  C_2
REMARK    2  A    between atoms: C_2  and  C_3
REMARK    3  A    between atoms: C_3  and  C_4
REMARK    4  A    between atoms: C_3  and  C_5
REMARK    5  A    between atoms: C_3  and  N_6
REMARK    6  A    between atoms: C_7  and  C_9
REMARK    7  A    between atoms: C_9  and  C_11
REMARK    8  A    between atoms: C_9  and  N_18
REMARK    9  A    between atoms: N_18  and  C_19
REMARK   10  A    between atoms: C_19  and  C_20
REMARK   11  A    between atoms: C_20  and  C_21
REMARK   12  A    between atoms: C_27  and  C_29
REMARK   13  A    between atoms: C_29  and  N_30
REMARK                            x       y       z     vdW  Elec       q    Type
REMARK                         _______ _______ _______ _____ _____    ______ ____
ROOT
ATOM      1  N   UNL     1      -5.356   3.481  -1.638  0.00  0.00    -0.284 N 
ATOM      2  C   UNL     1      -4.020   3.323  -1.547  0.00  0.00    +0.238 C 
ATOM      3  O   UNL     1      -3.362   3.142  -2.550  0.00  0.00    -0.274 OA
ENDROOT
BRANCH   1   4
ATOM      4  C   UNL     1      -5.999   3.538  -2.952  0.00  0.00    +0.195 C 
BRANCH   4   5
ATOM      5  C   UNL     1      -5.555   4.784  -3.675  0.00  0.00    +0.017 A 
ATOM      6  C   UNL     1      -4.375   5.408  -3.317  0.00  0.00    +0.009 A 
ATOM      7  C   UNL     1      -3.967   6.550  -3.981  0.00  0.00    +0.001 A 
ATOM      8  C   UNL     1      -4.739   7.069  -5.003  0.00  0.00    +0.003 A 
ATOM      9  C   UNL     1      -5.920   6.447  -5.363  0.00  0.00    +0.039 A 
ATOM     10  C   UNL     1      -6.326   5.300  -4.703  0.00  0.00    +0.129 A 
ATOM     11  F   UNL     1      -7.477   4.688  -5.057  0.00  0.00    -0.205 F 
ENDBRANCH   4   5
BRANCH   4  13
ATOM     12  N   UNL     1      -6.025   2.199  -5.032  0.00  0.00    -0.308 N 
ATOM     13  C   UNL     1      -5.609   2.325  -3.756  0.00  0.00    +0.239 C 
ATOM     14  O   UNL     1      -4.920   1.461  -3.255  0.00  0.00    -0.273 OA
ATOM     15  H   UNL     1      -6.575   2.889  -5.433  0.00  0.00    +0.149 HD
BRANCH  12  16
ATOM     16  C   UNL     1      -5.645   1.019  -5.813  0.00  0.00    +0.029 C 
ATOM     17  C   UNL     1      -4.120   0.942  -5.912  0.00  0.00    +0.031 C 
ATOM     18  C   UNL     1      -6.176  -0.240  -5.125  0.00  0.00    +0.031 C 
BRANCH  16  20
ATOM     19  C   UNL     1      -5.847  -0.109  -8.033  0.00  0.00    +0.006 C 
ATOM     20  C   UNL     1      -6.243   1.123  -7.217  0.00  0.00    +0.022 C 
ENDBRANCH  16  20
ENDBRANCH  12  16
ENDBRANCH   4  13
ENDBRANCH   1   4
BRANCH   1  21
ATOM     21  C   UNL     1      -6.163   3.596  -0.421  0.00  0.00    +0.113 C 
BRANCH  21  22
ATOM     22  C   UNL     1      -6.375   5.074  -0.086  0.00  0.00    +0.054 C 
BRANCH  22  23
ATOM     23  C   UNL     1      -7.305   5.194   1.093  0.00  0.00    -0.046 A 
ATOM     24  C   UNL     1      -8.669   5.288   0.891  0.00  0.00    +0.004 A 
ATOM     25  C   UNL     1      -9.523   5.393   1.973  0.00  0.00    +0.000 A 
ATOM     26  C   UNL     1      -9.011   5.415   3.257  0.00  0.00    +0.000 A 
ATOM     27  C   UNL     1      -7.647   5.326   3.459  0.00  0.00    +0.000 A 
ATOM     28  C   UNL     1      -6.794   5.215   2.377  0.00  0.00    +0.004 A 
ENDBRANCH  22  23
ENDBRANCH  21  22
ENDBRANCH   1  21
BRANCH   2  29
ATOM     29  C   UNL     1      -3.345   3.372  -0.201  0.00  0.00    +0.241 C 
BRANCH  29  30
ATOM     30  N   UNL     1      -1.903   3.175  -0.371  0.00  0.00    -0.235 N 
ATOM     31  C   UNL     1      -1.229   1.977  -0.358  0.00  0.00    +0.090 A 
ATOM     32  C   UNL     1      -1.619   0.650  -0.203  0.00  0.00    +0.029 A 
ATOM     33  C   UNL     1      -0.679  -0.342  -0.237  0.00  0.00    +0.002 A 
ATOM     34  C   UNL     1       0.662  -0.039  -0.435  0.00  0.00    +0.002 A 
ATOM     35  C   UNL     1       1.069   1.253  -0.594  0.00  0.00    +0.032 A 
ATOM     36  C   UNL     1       0.126   2.290  -0.559  0.00  0.00    +0.113 A 
ATOM     37  N   UNL     1       0.223   3.629  -0.682  0.00  0.00    -0.129 NA
ATOM     38  N   UNL     1      -0.938   4.172  -0.578  0.00  0.00    -0.064 NA
ENDBRANCH  29  30
ENDBRANCH   2  29
TORSDOF 10
