REMARK  Name = ZINC67238609
REMARK  7 active torsions:
REMARK  status: ('A' for Active; 'I' for Inactive)
REMARK    1  A    between atoms: C_1  and  C_2
REMARK    2  A    between atoms: C_10  and  C_27
REMARK    3  A    between atoms: C_11  and  C_12
REMARK    4  A    between atoms: C_12  and  C_13
REMARK    5  A    between atoms: N_15  and  C_16
REMARK    6  A    between atoms: C_19  and  C_22
REMARK    7  A    between atoms: C_22  and  N_23
REMARK                            x       y       z     vdW  Elec       q    Type
REMARK                         _______ _______ _______ _____ _____    ______ ____
ROOT
ATOM      1  C   UNL     1      -1.395   0.235   2.944  0.00  0.00    +0.222 C 
ATOM      2  O   UNL     1      -2.318  -0.149   2.257  0.00  0.00    -0.275 OA
ATOM      3  N   UNL     1      -1.639   0.867   4.109  0.00  0.00    -0.285 N 
ATOM      4  H   UNL     1      -0.903   1.115   4.690  0.00  0.00    +0.155 HD
ENDROOT
BRANCH   3   5
ATOM      5  C   UNL     1      -2.955   1.166   4.480  0.00  0.00    +0.033 A 
ATOM      6  C   UNL     1      -3.234   2.339   5.170  0.00  0.00    +0.023 A 
ATOM      7  C   UNL     1      -4.534   2.631   5.535  0.00  0.00    +0.007 A 
ATOM      8  C   UNL     1      -5.557   1.757   5.214  0.00  0.00    -0.030 A 
ATOM      9  C   UNL     1      -5.282   0.589   4.528  0.00  0.00    +0.007 A 
ATOM     10  C   UNL     1      -3.985   0.294   4.154  0.00  0.00    +0.023 A 
BRANCH   8  11
ATOM     11  C   UNL     1      -6.973   2.079   5.614  0.00  0.00    +0.141 C 
BRANCH  11  12
ATOM     12  N   UNL     1      -7.621   2.844   4.545  0.00  0.00    -0.295 N 
ATOM     13  C   UNL     1      -8.900   3.244   4.683  0.00  0.00    +0.297 C 
ATOM     14  O   UNL     1      -9.517   2.971   5.694  0.00  0.00    -0.253 OA
ATOM     15  N   UNL     1      -9.496   3.948   3.699  0.00  0.00    -0.313 N 
ATOM     16  H   UNL     1      -7.129   3.061   3.738  0.00  0.00    +0.151 HD
ATOM     17  H   UNL     1      -9.004   4.165   2.892  0.00  0.00    +0.146 HD
ATOM     18  H   UNL     1     -10.417   4.236   3.798  0.00  0.00    +0.146 HD
ENDBRANCH  11  12
ENDBRANCH   8  11
ENDBRANCH   3   5
BRANCH   1  19
ATOM     19  C   UNL     1       0.025   0.006   2.495  0.00  0.00    +0.133 C 
BRANCH  19  30
ATOM     20  C   UNL     1      -0.001   1.504   0.018  0.00  0.00    +0.045 C 
ATOM     21  C   UNL     1       0.011  -0.003   0.005  0.00  0.00    -0.036 A 
ATOM     22  C   UNL     1       0.015  -0.717  -1.208  0.00  0.00    +0.002 A 
ATOM     23  C   UNL     1       0.009  -0.054  -2.446  0.00  0.00    +0.010 A 
ATOM     24  C   UNL     1       0.013  -0.780  -3.598  0.00  0.00    +0.001 A 
ATOM     25  C   UNL     1       0.024  -2.173  -3.565  0.00  0.00    +0.002 A 
ATOM     26  C   UNL     1       0.030  -2.848  -2.383  0.00  0.00    +0.026 A 
ATOM     27  C   UNL     1       0.026  -2.133  -1.172  0.00  0.00    +0.047 A 
ATOM     28  N   UNL     1       0.033  -2.769   0.004  0.00  0.00    -0.358 N 
ATOM     29  C   UNL     1       0.029  -2.107   1.136  0.00  0.00    +0.017 A 
ATOM     30  C   UNL     1       0.023  -0.715   1.171  0.00  0.00    -0.016 A 
ATOM     31  C   UNL     1       0.037  -2.874   2.433  0.00  0.00    +0.063 C 
ATOM     32  H   UNL     1       0.041  -3.739   0.020  0.00  0.00    +0.166 HD
ENDBRANCH  19  30
ENDBRANCH   1  19
TORSDOF 5
