REMARK  Name = ZINC21250641
REMARK  7 active torsions:
REMARK  status: ('A' for Active; 'I' for Inactive)
REMARK    1  A    between atoms: C_1  and  C_2
REMARK    2  A    between atoms: C_2  and  C_3
REMARK    3  A    between atoms: C_2  and  C_4
REMARK    4  A    between atoms: C_4  and  O_5
REMARK    5  A    between atoms: O_5  and  C_6
REMARK    6  A    between atoms: C_9  and  C_12
REMARK    7  A    between atoms: C_17  and  C_27
REMARK                            x       y       z     vdW  Elec       q    Type
REMARK                         _______ _______ _______ _____ _____    ______ ____
ROOT
ATOM      1  C   UNL     1       3.801  -1.580  -2.799  0.00  0.00    +0.032 C 
ATOM      2  C   UNL     1       3.288  -1.742  -1.369  0.00  0.00    +0.059 C 
ATOM      3  C   UNL     1       2.485  -0.517  -0.964  0.00  0.00    +0.017 C 
ATOM      4  C   UNL     1       2.800   0.695  -1.451  0.00  0.00    +0.037 C 
ATOM      5  C   UNL     1       2.088   1.989  -1.135  0.00  0.00    +0.139 C 
ATOM      6  N   UNL     1       1.154   1.905  -0.032  0.00  0.00    -0.331 N 
ATOM      7  C   UNL     1       0.020   1.101  -0.114  0.00  0.00    +0.049 A 
ATOM      8  C   UNL     1      -1.253   1.650  -0.135  0.00  0.00    +0.025 A 
ATOM      9  C   UNL     1      -2.350   0.820  -0.283  0.00  0.00    +0.002 A 
ATOM     10  C   UNL     1      -2.183  -0.547  -0.411  0.00  0.00    +0.002 A 
ATOM     11  C   UNL     1      -0.914  -1.101  -0.373  0.00  0.00    +0.025 A 
ATOM     12  C   UNL     1       0.181  -0.273  -0.205  0.00  0.00    +0.052 A 
ATOM     13  N   UNL     1       1.477  -0.766  -0.089  0.00  0.00    -0.316 N 
ATOM     14  C   UNL     1       3.875   0.841  -2.359  0.00  0.00    +0.163 C 
ATOM     15  O   UNL     1       4.154   1.953  -2.764  0.00  0.00    -0.292 OA
ATOM     16  C   UNL     1       4.683  -0.327  -2.839  0.00  0.00    +0.088 C 
ATOM     17  H   UNL     1       1.336   2.480   0.887  0.00  0.00    +0.147 HD
ATOM     18  H   UNL     1       1.657  -1.401   0.791  0.00  0.00    +0.152 HD
ENDROOT
BRANCH   5  19
ATOM     19  C   UNL     1       1.334   2.432  -2.362  0.00  0.00    +0.012 A 
ATOM     20  C   UNL     1       1.082   1.533  -3.381  0.00  0.00    +0.008 A 
ATOM     21  C   UNL     1       0.390   1.939  -4.507  0.00  0.00    +0.001 A 
ATOM     22  C   UNL     1      -0.051   3.245  -4.615  0.00  0.00    +0.003 A 
ATOM     23  C   UNL     1       0.200   4.146  -3.598  0.00  0.00    +0.039 A 
ATOM     24  C   UNL     1       0.890   3.739  -2.467  0.00  0.00    +0.129 A 
ATOM     25  F   UNL     1       1.131   4.617  -1.470  0.00  0.00    -0.205 F 
ENDBRANCH   5  19
BRANCH   1  29
ATOM     26  C   UNL     1       6.100  -5.007  -3.910  0.00  0.00    +0.121 A 
ATOM     27  C   UNL     1       4.964  -4.669  -4.631  0.00  0.00    +0.046 A 
ATOM     28  C   UNL     1       4.222  -3.561  -4.270  0.00  0.00    +0.007 A 
ATOM     29  C   UNL     1       4.612  -2.789  -3.191  0.00  0.00    -0.043 A 
ATOM     30  C   UNL     1       5.747  -3.120  -2.474  0.00  0.00    +0.007 A 
ATOM     31  C   UNL     1       6.488  -4.231  -2.828  0.00  0.00    +0.046 A 
BRANCH  26  32
ATOM     32  O   UNL     1       6.830  -6.097  -4.263  0.00  0.00    -0.492 OA
BRANCH  32  33
ATOM     33  C   UNL     1       7.988  -6.385  -3.476  0.00  0.00    +0.232 C 
BRANCH  33  35
ATOM     34  C   UNL     1       9.204  -7.359  -5.429  0.00  0.00    +0.010 C 
ATOM     35  C   UNL     1       8.676  -7.638  -4.021  0.00  0.00    +0.020 C 
ATOM     36  C   UNL     1       9.842  -8.018  -3.105  0.00  0.00    +0.010 C 
ENDBRANCH  33  35
ENDBRANCH  32  33
ENDBRANCH  26  32
ENDBRANCH   1  29
TORSDOF 5
