REMARK  Name = ZINC35542220
REMARK  6 active torsions:
REMARK  status: ('A' for Active; 'I' for Inactive)
REMARK    1  A    between atoms: C_4  and  C_7
REMARK    2  A    between atoms: C_7  and  N_8
REMARK    3  A    between atoms: C_9  and  N_29
REMARK    4  A    between atoms: C_10  and  N_19
REMARK    5  A    between atoms: C_11  and  C_13
REMARK    6  A    between atoms: N_22  and  C_23
REMARK                            x       y       z     vdW  Elec       q    Type
REMARK                         _______ _______ _______ _____ _____    ______ ____
ROOT
ATOM      1  N   UNL     1       3.391  -0.896   1.538  0.00  0.00    -0.244 N 
ATOM      2  C   UNL     1       3.996   0.203   2.065  0.00  0.00    +0.137 A 
ATOM      3  C   UNL     1       4.697  -0.197   3.163  0.00  0.00    +0.102 A 
ATOM      4  C   UNL     1       4.510  -1.587   3.308  0.00  0.00    +0.116 A 
ATOM      5  N   UNL     1       3.724  -1.999   2.335  0.00  0.00    -0.167 NA
ENDROOT
BRANCH   4   6
ATOM      6  C   UNL     1       5.094  -2.437   4.374  0.00  0.00    +0.004 A 
ATOM      7  C   UNL     1       6.352  -2.139   4.896  0.00  0.00    +0.010 A 
ATOM      8  C   UNL     1       6.890  -2.933   5.888  0.00  0.00    +0.001 A 
ATOM      9  C   UNL     1       6.184  -4.023   6.364  0.00  0.00    +0.000 A 
ATOM     10  C   UNL     1       4.936  -4.324   5.850  0.00  0.00    +0.001 A 
ATOM     11  C   UNL     1       4.385  -3.533   4.862  0.00  0.00    +0.010 A 
ENDBRANCH   4   6
BRANCH   3  12
ATOM     12  N   UNL     1       5.470   0.631   4.004  0.00  0.00    -0.265 N 
ATOM     13  C   UNL     1       5.482   0.418   5.335  0.00  0.00    +0.304 C 
ATOM     14  O   UNL     1       4.762  -0.434   5.820  0.00  0.00    -0.252 OA
ATOM     15  N   UNL     1       6.290   1.149   6.128  0.00  0.00    -0.296 N 
ATOM     16  H   UNL     1       5.994   1.354   3.624  0.00  0.00    +0.157 HD
ATOM     17  H   UNL     1       6.811   1.876   5.751  0.00  0.00    +0.151 HD
BRANCH  15  18
ATOM     18  C   UNL     1       6.382   0.846   7.558  0.00  0.00    +0.074 C 
ATOM     19  C   UNL     1       7.617  -0.019   7.817  0.00  0.00    +0.022 C 
ATOM     20  C   UNL     1       7.713  -0.336   9.311  0.00  0.00    +0.002 C 
ATOM     21  C   UNL     1       7.829   0.969  10.102  0.00  0.00    +0.000 C 
ATOM     22  C   UNL     1       6.594   1.834   9.843  0.00  0.00    +0.002 C 
ATOM     23  C   UNL     1       6.498   2.150   8.349  0.00  0.00    +0.022 C 
ENDBRANCH  15  18
ENDBRANCH   3  12
BRANCH   2  24
ATOM     24  N   UNL     1       3.914   1.505   1.569  0.00  0.00    -0.342 N 
ATOM     25  H   UNL     1       3.479   1.674   0.719  0.00  0.00    +0.144 HD
ATOM     26  H   UNL     1       4.293   2.241   2.074  0.00  0.00    +0.144 HD
ENDBRANCH   2  24
BRANCH   1  27
ATOM     27  C   UNL     1       2.536  -0.921   0.349  0.00  0.00    +0.180 C 
BRANCH  27  31
ATOM     28  C   UNL     1      -1.524  -0.253   1.498  0.00  0.00    +0.000 A 
ATOM     29  C   UNL     1      -0.711   0.818   1.177  0.00  0.00    +0.000 A 
ATOM     30  C   UNL     1       0.603   0.602   0.805  0.00  0.00    +0.005 A 
ATOM     31  C   UNL     1       1.104  -0.685   0.755  0.00  0.00    -0.026 A 
ATOM     32  C   UNL     1       0.292  -1.756   1.077  0.00  0.00    +0.005 A 
ATOM     33  C   UNL     1      -1.023  -1.540   1.447  0.00  0.00    +0.000 A 
ENDBRANCH  27  31
ENDBRANCH   1  27
TORSDOF 6
