REMARK  Name = ZINC35477190
REMARK  8 active torsions:
REMARK  status: ('A' for Active; 'I' for Inactive)
REMARK    1  A    between atoms: C_1  and  C_2
REMARK    2  A    between atoms: C_2  and  C_4
REMARK    3  A    between atoms: C_2  and  N_12
REMARK    4  A    between atoms: C_4  and  C_5
REMARK    5  A    between atoms: C_5  and  C_6
REMARK    6  A    between atoms: N_12  and  C_13
REMARK    7  A    between atoms: C_15  and  C_28
REMARK    8  A    between atoms: C_20  and  C_22
REMARK                            x       y       z     vdW  Elec       q    Type
REMARK                         _______ _______ _______ _____ _____    ______ ____
ROOT
ATOM      1  C   UNL     1       2.061  -0.590  -1.215  0.00  0.00    +0.126 A 
ATOM      2  C   UNL     1       2.795  -0.269  -0.105  0.00  0.00    +0.072 A 
ATOM      3  C   UNL     1       4.192  -0.395  -0.151  0.00  0.00    +0.078 A 
ATOM      4  N   UNL     1       4.787  -0.820  -1.256  0.00  0.00    -0.210 NA
ATOM      5  C   UNL     1       4.075  -1.135  -2.343  0.00  0.00    +0.256 A 
ATOM      6  N   UNL     1       2.712  -1.029  -2.334  0.00  0.00    -0.182 N 
ATOM      7  N   UNL     1       2.271  -1.433  -3.601  0.00  0.00    -0.142 NA
ATOM      8  C   UNL     1       3.343  -1.759  -4.296  0.00  0.00    +0.185 A 
ATOM      9  N   UNL     1       4.431  -1.574  -3.546  0.00  0.00    -0.189 NA
ENDROOT
BRANCH   8  10
ATOM     10  C   UNL     1       3.340  -2.245  -5.698  0.00  0.00    +0.039 A 
ATOM     11  C   UNL     1       4.539  -2.568  -6.340  0.00  0.00    +0.014 A 
ATOM     12  C   UNL     1       4.484  -3.017  -7.648  0.00  0.00    +0.020 A 
ATOM     13  C   UNL     1       3.255  -3.130  -8.273  0.00  0.00    +0.111 A 
ATOM     14  N   UNL     1       2.140  -2.817  -7.642  0.00  0.00    -0.263 NA
ATOM     15  C   UNL     1       2.143  -2.391  -6.395  0.00  0.00    +0.122 A 
ENDBRANCH   8  10
BRANCH   3  16
ATOM     16  C   UNL     1       5.004  -0.052   1.041  0.00  0.00    +0.001 A 
ATOM     17  C   UNL     1       4.382   0.390   2.208  0.00  0.00    +0.010 A 
ATOM     18  C   UNL     1       5.144   0.708   3.314  0.00  0.00    +0.001 A 
ATOM     19  C   UNL     1       6.521   0.589   3.266  0.00  0.00    +0.000 A 
ATOM     20  C   UNL     1       7.144   0.150   2.111  0.00  0.00    +0.001 A 
ATOM     21  C   UNL     1       6.392  -0.177   1.001  0.00  0.00    +0.010 A 
ENDBRANCH   3  16
BRANCH   1  22
ATOM     22  N   UNL     1       0.688  -0.476  -1.203  0.00  0.00    -0.326 N 
ATOM     23  H   UNL     1       0.175  -0.710  -1.993  0.00  0.00    +0.148 HD
BRANCH  22  25
ATOM     24  C   UNL     1      -0.019   1.526   0.010  0.00  0.00    +0.028 C 
ATOM     25  C   UNL     1       0.002  -0.004   0.002  0.00  0.00    +0.069 C 
BRANCH  25  26
ATOM     26  C   UNL     1      -1.433  -0.534   0.013  0.00  0.00    +0.026 C 
BRANCH  26  27
ATOM     27  C   UNL     1      -1.413  -2.059   0.130  0.00  0.00    +0.037 C 
BRANCH  27  28
ATOM     28  C   UNL     1      -2.827  -2.581   0.141  0.00  0.00    -0.047 A 
ATOM     29  C   UNL     1      -3.502  -2.723   1.339  0.00  0.00    +0.003 A 
ATOM     30  C   UNL     1      -4.799  -3.201   1.349  0.00  0.00    +0.000 A 
ATOM     31  C   UNL     1      -5.421  -3.537   0.161  0.00  0.00    +0.000 A 
ATOM     32  C   UNL     1      -4.746  -3.394  -1.037  0.00  0.00    +0.000 A 
ATOM     33  C   UNL     1      -3.451  -2.911  -1.048  0.00  0.00    +0.003 A 
ENDBRANCH  27  28
ENDBRANCH  26  27
ENDBRANCH  25  26
ENDBRANCH  22  25
ENDBRANCH   1  22
TORSDOF 7
