REMARK  Name = ZINC43508522
REMARK  3 active torsions:
REMARK  status: ('A' for Active; 'I' for Inactive)
REMARK    1  A    between atoms: C_6  and  C_7
REMARK    2  A    between atoms: N_9  and  C_10
REMARK    3  A    between atoms: C_10  and  C_15
REMARK                            x       y       z     vdW  Elec       q    Type
REMARK                         _______ _______ _______ _____ _____    ______ ____
ROOT
ATOM      1  C   UNL     1      -1.169  -0.887   0.009  0.00  0.00    +0.261 C 
ATOM      2  O   UNL     1      -2.289  -0.411   0.023  0.00  0.00    -0.269 OA
ATOM      3  N   UNL     1      -1.005  -2.224   0.000  0.00  0.00    -0.294 N 
ATOM      4  H   UNL     1      -0.112  -2.603  -0.011  0.00  0.00    +0.150 HD
ENDROOT
BRANCH   1  10
ATOM      5  C   UNL     1      -0.017   1.375   0.010  0.00  0.00    +0.047 A 
ATOM      6  C   UNL     1       1.315   1.804  -0.001  0.00  0.00    +0.036 A 
ATOM      7  C   UNL     1       2.106   0.704  -0.014  0.00  0.00    +0.098 A 
ATOM      8  N   UNL     1       1.320  -0.401  -0.013  0.00  0.00    -0.356 N 
ATOM      9  H   UNL     1       1.634  -1.319  -0.020  0.00  0.00    +0.165 HD
ATOM     10  C   UNL     1       0.002  -0.004   0.002  0.00  0.00    +0.103 A 
ATOM     11 BR   UNL     1       1.905   3.600   0.003  0.00  0.00    -0.049 Br
ENDBRANCH   1  10
BRANCH   3  12
ATOM     12  C   UNL     1      -2.175  -3.106   0.007  0.00  0.00    +0.146 C 
ATOM     13  C   UNL     1      -1.700  -4.551  -0.142  0.00  0.00    +0.049 C 
ATOM     14  C   UNL     1      -1.441  -5.180   1.256  0.00  0.00    +0.072 C 
ATOM     15  S   UNL     1      -2.867  -4.464   2.185  0.00  0.00    -0.158 S 
ATOM     16  C   UNL     1      -2.976  -2.853   1.300  0.00  0.00    +0.106 C 
BRANCH  12  17
ATOM     17  C   UNL     1      -3.044  -2.763  -1.175  0.00  0.00    +0.380 C 
ATOM     18  O   UNL     1      -2.704  -1.881  -1.945  0.00  0.00    -0.244 OA
ATOM     19  O   UNL     1      -4.086  -3.367  -1.361  0.00  0.00    -0.244 OA
ENDBRANCH  12  17
ENDBRANCH   3  12
TORSDOF 3
