REMARK  Name = ZINC12881521
REMARK  7 active torsions:
REMARK  status: ('A' for Active; 'I' for Inactive)
REMARK    1  A    between atoms: C_1  and  C_2
REMARK    2  A    between atoms: C_13  and  C_15
REMARK    3  A    between atoms: C_15  and  C_16
REMARK    4  A    between atoms: C_19  and  O_22
REMARK    5  A    between atoms: N_25  and  C_28
REMARK    6  A    between atoms: C_28  and  C_29
REMARK    7  A    between atoms: C_29  and  C_30
REMARK                            x       y       z     vdW  Elec       q    Type
REMARK                         _______ _______ _______ _____ _____    ______ ____
ROOT
ATOM      1  C   UNL     1       2.078   8.787  -3.149  0.00  0.00    +0.044 C 
ATOM      2  C   UNL     1       2.396   7.474  -3.818  0.00  0.00    -0.050 A 
ATOM      3  C   UNL     1       2.096   7.286  -5.155  0.00  0.00    +0.005 A 
ATOM      4  C   UNL     1       2.387   6.088  -5.772  0.00  0.00    +0.024 A 
ATOM      5  C   UNL     1       2.986   5.056  -5.053  0.00  0.00    +0.036 A 
ATOM      6  C   UNL     1       3.280   5.255  -3.707  0.00  0.00    -0.027 A 
ATOM      7  C   UNL     1       2.990   6.454  -3.096  0.00  0.00    +0.008 A 
ATOM      8  C   UNL     1       3.904   3.974  -3.230  0.00  0.00    +0.050 C 
ATOM      9  C   UNL     1       5.317   4.205  -2.682  0.00  0.00    +0.088 C 
ATOM     10  C   UNL     1       5.445   3.206  -1.497  0.00  0.00    +0.073 C 
ATOM     11  C   UNL     1       4.096   2.456  -1.465  0.00  0.00    -0.053 C 
ATOM     12  C   UNL     1       6.529   2.258  -1.956  0.00  0.00    +0.224 C 
ATOM     13  O   UNL     1       6.949   1.314  -1.322  0.00  0.00    -0.275 OA
ATOM     14  N   UNL     1       6.953   2.622  -3.172  0.00  0.00    -0.241 N 
ATOM     15  C   UNL     1       6.340   3.700  -3.674  0.00  0.00    +0.225 C 
ATOM     16  O   UNL     1       6.569   4.196  -4.756  0.00  0.00    -0.275 OA
ATOM     17  C   UNL     1       3.921   3.074  -4.435  0.00  0.00    +0.211 C 
ATOM     18  O   UNL     1       4.347   1.940  -4.486  0.00  0.00    -0.277 OA
ATOM     19  N   UNL     1       3.372   3.773  -5.447  0.00  0.00    -0.286 N 
ATOM     20  H   UNL     1       3.258   3.426  -6.346  0.00  0.00    +0.155 HD
ATOM     21  N   UNL     1       3.168   3.370  -2.134  0.00  0.00    +0.394 N 
ATOM     22  H   UNL     1       2.357   2.852  -2.493  0.00  0.00    -0.083 HD
ATOM     23  H   UNL     1       2.849   4.094  -1.479  0.00  0.00    -0.083 HD
ENDROOT
BRANCH  11  24
ATOM     24  C   UNL     1       3.671   2.186  -0.020  0.00  0.00    +0.020 C 
BRANCH  24  25
ATOM     25  C   UNL     1       2.377   1.414  -0.013  0.00  0.00    -0.049 A 
ATOM     26  C   UNL     1       1.171   2.089   0.002  0.00  0.00    +0.007 A 
ATOM     27  C   UNL     1      -0.017   1.383   0.010  0.00  0.00    +0.045 A 
ATOM     28  C   UNL     1       0.002  -0.004   0.002  0.00  0.00    +0.117 A 
ATOM     29  C   UNL     1       1.214  -0.679  -0.013  0.00  0.00    +0.045 A 
ATOM     30  C   UNL     1       2.399   0.031  -0.021  0.00  0.00    +0.007 A 
BRANCH  28  31
ATOM     31  O   UNL     1      -1.165  -0.701   0.010  0.00  0.00    -0.507 OA
ATOM     32  H   UNL     1      -1.511  -0.897  -0.871  0.00  0.00    +0.292 HD
ENDBRANCH  28  31
ENDBRANCH  24  25
ENDBRANCH  11  24
BRANCH  14  33
ATOM     33  C   UNL     1       8.002   1.899  -3.895  0.00  0.00    +0.121 C 
BRANCH  33  34
ATOM     34  C   UNL     1       9.366   2.495  -3.545  0.00  0.00    +0.054 C 
BRANCH  34  35
ATOM     35  C   UNL     1      10.445   1.751  -4.289  0.00  0.00    -0.046 A 
ATOM     36  C   UNL     1      11.045   0.646  -3.714  0.00  0.00    +0.004 A 
ATOM     37  C   UNL     1      12.032  -0.039  -4.398  0.00  0.00    +0.000 A 
ATOM     38  C   UNL     1      12.426   0.387  -5.653  0.00  0.00    +0.000 A 
ATOM     39  C   UNL     1      11.829   1.495  -6.226  0.00  0.00    +0.000 A 
ATOM     40  C   UNL     1      10.839   2.177  -5.544  0.00  0.00    +0.004 A 
ENDBRANCH  34  35
ENDBRANCH  33  34
ENDBRANCH  14  33
TORSDOF 6
