REMARK  Name = ZINC05183751
REMARK  2 active torsions:
REMARK  status: ('A' for Active; 'I' for Inactive)
REMARK    1  A    between atoms: C_3  and  C_6
REMARK    2  A    between atoms: C_6  and  N_7
REMARK                            x       y       z     vdW  Elec       q    Type
REMARK                         _______ _______ _______ _____ _____    ______ ____
ROOT
ATOM      1  N   UNL     1      -1.298   2.074   0.172  0.00  0.00    -0.277 N 
ATOM      2  C   UNL     1      -0.080   1.692  -0.204  0.00  0.00    +0.227 C 
ATOM      3  O   UNL     1       0.117   0.595  -0.682  0.00  0.00    -0.275 OA
ATOM      4  C   UNL     1       1.056   2.688  -0.019  0.00  0.00    +0.167 C 
ATOM      5  S   UNL     1       0.255   3.904   1.117  0.00  0.00    -0.124 S 
ATOM      6  C   UNL     1      -1.474   3.402   0.755  0.00  0.00    +0.105 C 
ATOM      7  C   UNL     1      -2.123   4.384  -0.214  0.00  0.00    +0.061 C 
ATOM      8  C   UNL     1      -3.655   4.151  -0.254  0.00  0.00    +0.169 C 
ATOM      9  S   UNL     1      -4.001   3.429   1.403  0.00  0.00    -0.028 S 
ATOM     10  O   UNL     1      -4.495   2.107   1.236  0.00  0.00    -0.174 OA
ATOM     11  O   UNL     1      -4.749   4.365   2.168  0.00  0.00    -0.174 OA
ATOM     12  C   UNL     1      -2.283   3.348   2.068  0.00  0.00    +0.202 C 
ENDROOT
BRANCH   1  13
ATOM     13  C   UNL     1      -2.443   1.175   0.009  0.00  0.00    +0.183 C 
BRANCH  13  16
ATOM     14  C   UNL     1      -2.850  -0.733   3.136  0.00  0.00    +0.041 A 
ATOM     15  C   UNL     1      -3.029   0.441   2.370  0.00  0.00    +0.046 A 
ATOM     16  C   UNL     1      -2.488   0.204   1.161  0.00  0.00    +0.122 A 
ATOM     17  O   UNL     1      -1.999  -1.047   1.154  0.00  0.00    -0.466 OA
ATOM     18  C   UNL     1      -2.211  -1.618   2.351  0.00  0.00    +0.195 A 
ENDBRANCH  13  16
ENDBRANCH   1  13
TORSDOF 2
