REMARK  Name = ZINC20970025
REMARK  9 active torsions:
REMARK  status: ('A' for Active; 'I' for Inactive)
REMARK    1  A    between atoms: C_1  and  C_2
REMARK    2  A    between atoms: C_2  and  C_3
REMARK    3  A    between atoms: C_6  and  N_9
REMARK    4  A    between atoms: C_10  and  C_12
REMARK    5  A    between atoms: C_13  and  C_35
REMARK    6  A    between atoms: C_24  and  C_26
REMARK    7  A    between atoms: C_29  and  C_32
REMARK    8  A    between atoms: C_32  and  C_33
REMARK    9  A    between atoms: C_32  and  C_34
REMARK                            x       y       z     vdW  Elec       q    Type
REMARK                         _______ _______ _______ _____ _____    ______ ____
ROOT
ATOM      1  C   UNL     1       2.909  -2.658   6.757  0.00  0.00    +0.058 C 
ATOM      2  C   UNL     1       2.272  -2.982   7.890  0.00  0.00    +0.018 C 
ATOM      3  N   UNL     1       2.935  -3.457   8.995  0.00  0.00    -0.288 N 
ATOM      4  C   UNL     1       4.317  -3.340   9.014  0.00  0.00    +0.202 A 
ATOM      5  N   UNL     1       5.132  -3.496  10.022  0.00  0.00    -0.214 NA
ATOM      6  C   UNL     1       6.398  -3.285   9.610  0.00  0.00    +0.091 A 
ATOM      7  C   UNL     1       7.620  -3.326  10.291  0.00  0.00    +0.030 A 
ATOM      8  C   UNL     1       8.758  -3.053   9.554  0.00  0.00    +0.002 A 
ATOM      9  C   UNL     1       8.704  -2.751   8.204  0.00  0.00    +0.002 A 
ATOM     10  C   UNL     1       7.506  -2.704   7.510  0.00  0.00    +0.028 A 
ATOM     11  C   UNL     1       6.347  -2.976   8.228  0.00  0.00    +0.071 A 
ATOM     12  N   UNL     1       5.028  -3.020   7.878  0.00  0.00    -0.300 N 
ATOM     13  C   UNL     1       4.395  -2.799   6.576  0.00  0.00    +0.157 C 
ATOM     14  C   UNL     1       0.775  -2.818   7.956  0.00  0.00    +0.061 C 
ATOM     15  H   UNL     1       2.454  -3.859   9.735  0.00  0.00    +0.155 HD
ENDROOT
BRANCH  13  16
ATOM     16  C   UNL     1       4.682  -3.966   5.668  0.00  0.00    -0.020 A 
ATOM     17  C   UNL     1       4.262  -5.235   6.020  0.00  0.00    +0.006 A 
ATOM     18  C   UNL     1       4.525  -6.307   5.187  0.00  0.00    +0.004 A 
ATOM     19  C   UNL     1       5.208  -6.109   4.001  0.00  0.00    -0.045 A 
ATOM     20  C   UNL     1       5.628  -4.840   3.649  0.00  0.00    +0.004 A 
ATOM     21  C   UNL     1       5.361  -3.768   4.480  0.00  0.00    +0.006 A 
BRANCH  19  22
ATOM     22  C   UNL     1       5.496  -7.277   3.094  0.00  0.00    +0.013 C 
ATOM     23  C   UNL     1       4.842  -7.037   1.731  0.00  0.00    +0.012 C 
ATOM     24  C   UNL     1       7.008  -7.423   2.915  0.00  0.00    +0.012 C 
ENDBRANCH  19  22
ENDBRANCH  13  16
BRANCH   1  26
ATOM     25  N   UNL     1       1.332  -2.994   4.989  0.00  0.00    -0.282 N 
ATOM     26  C   UNL     1       2.144  -2.164   5.673  0.00  0.00    +0.248 C 
ATOM     27  O   UNL     1       2.219  -0.990   5.360  0.00  0.00    -0.270 OA
ATOM     28  H   UNL     1       1.227  -3.915   5.274  0.00  0.00    +0.155 HD
BRANCH  25  32
ATOM     29  C   UNL     1      -0.731  -1.602   1.648  0.00  0.00    -0.048 A 
ATOM     30  C   UNL     1      -0.260  -2.902   1.676  0.00  0.00    +0.005 A 
ATOM     31  C   UNL     1       0.424  -3.367   2.782  0.00  0.00    +0.023 A 
ATOM     32  C   UNL     1       0.639  -2.527   3.867  0.00  0.00    +0.034 A 
ATOM     33  C   UNL     1       0.165  -1.222   3.836  0.00  0.00    +0.023 A 
ATOM     34  C   UNL     1      -0.513  -0.762   2.724  0.00  0.00    +0.005 A 
BRANCH  29  36
ATOM     35  C   UNL     1      -0.486  -0.497  -0.558  0.00  0.00    +0.009 C 
ATOM     36  C   UNL     1      -1.477  -1.099   0.440  0.00  0.00    +0.032 C 
ENDBRANCH  29  36
ENDBRANCH  25  32
ENDBRANCH   1  26
TORSDOF 5
