REMARK  Name = ZINC51752246
REMARK  3 active torsions:
REMARK  status: ('A' for Active; 'I' for Inactive)
REMARK    1  A    between atoms: C_1  and  C_2
REMARK    2  A    between atoms: C_7  and  C_10
REMARK    3  A    between atoms: C_11  and  C_13
REMARK                            x       y       z     vdW  Elec       q    Type
REMARK                         _______ _______ _______ _____ _____    ______ ____
ROOT
ATOM      1  C   UNL     1       1.175   1.906  -0.517  0.00  0.00    +0.007 C 
ATOM      2  C   UNL     1       0.848   0.426  -0.311  0.00  0.00    -0.011 C 
ATOM      3  C   UNL     1       1.299  -0.371  -1.537  0.00  0.00    +0.022 C 
ATOM      4  C   UNL     1       0.940  -1.848  -1.342  0.00  0.00    +0.108 C 
ATOM      5  N   UNL     1       1.518  -2.312  -0.074  0.00  0.00    -0.295 N 
ATOM      6  C   UNL     1       1.221  -1.562   1.154  0.00  0.00    +0.074 C 
ATOM      7  C   UNL     1       1.578  -0.090   0.931  0.00  0.00    +0.025 C 
ATOM      8  C   UNL     1      -0.268  -1.688   1.485  0.00  0.00    +0.028 C 
ATOM      9  C   UNL     1       2.305  -3.405  -0.038  0.00  0.00    +0.248 C 
ATOM     10  O   UNL     1       2.486  -4.058  -1.048  0.00  0.00    -0.270 OA
ENDROOT
BRANCH   9  11
ATOM     11  C   UNL     1       2.949  -3.809   1.227  0.00  0.00    +0.056 A 
ATOM     12  C   UNL     1       2.191  -3.943   2.400  0.00  0.00    +0.038 A 
ATOM     13  C   UNL     1       2.829  -4.321   3.551  0.00  0.00    +0.081 A 
ATOM     14  C   UNL     1       4.203  -4.560   3.524  0.00  0.00    +0.135 A 
ATOM     15  N   UNL     1       4.896  -4.426   2.401  0.00  0.00    -0.238 NA
ATOM     16  C   UNL     1       4.319  -4.070   1.272  0.00  0.00    +0.126 A 
ATOM     17  N   UNL     1       4.853  -4.942   4.686  0.00  0.00    -0.342 N 
ATOM     18 CL   UNL     1       1.938  -4.500   5.030  0.00  0.00    -0.080 Cl
ATOM     19  H   UNL     1       4.353  -5.041   5.511  0.00  0.00    +0.144 HD
ATOM     20  H   UNL     1       5.809  -5.109   4.674  0.00  0.00    +0.144 HD
ENDBRANCH   9  11
TORSDOF 1
