REMARK  Name = ZINC33491945
REMARK  10 active torsions:
REMARK  status: ('A' for Active; 'I' for Inactive)
REMARK    1  A    between atoms: C_1  and  C_2
REMARK    2  A    between atoms: C_7  and  C_8
REMARK    3  A    between atoms: C_8  and  S_9
REMARK    4  A    between atoms: S_9  and  C_10
REMARK    5  A    between atoms: C_13  and  C_24
REMARK    6  A    between atoms: N_14  and  C_15
REMARK    7  A    between atoms: C_18  and  N_21
REMARK    8  A    between atoms: C_24  and  C_26
REMARK    9  A    between atoms: C_24  and  N_27
REMARK   10  A    between atoms: C_28  and  C_30
REMARK                            x       y       z     vdW  Elec       q    Type
REMARK                         _______ _______ _______ _____ _____    ______ ____
ROOT
ATOM      1  C   UNL     1       1.242  -0.434  -0.012  0.00  0.00    +0.196 A 
ATOM      2  N   UNL     1       0.002  -0.004   0.002  0.00  0.00    -0.122 NA
ATOM      3  N   UNL     1      -0.015   1.281   0.009  0.00  0.00    -0.131 NA
ATOM      4  C   UNL     1       1.202   1.746   0.000  0.00  0.00    +0.159 A 
ATOM      5  N   UNL     1       2.049   0.670  -0.014  0.00  0.00    -0.273 N 
ENDROOT
BRANCH   5   6
ATOM      6  C   UNL     1       3.451   0.696  -0.028  0.00  0.00    +0.050 A 
ATOM      7  C   UNL     1       4.148   1.216   1.054  0.00  0.00    +0.028 A 
ATOM      8  C   UNL     1       5.529   1.235   1.040  0.00  0.00    +0.035 A 
ATOM      9  C   UNL     1       6.217   0.747  -0.056  0.00  0.00    +0.126 A 
ATOM     10  C   UNL     1       5.526   0.233  -1.137  0.00  0.00    +0.035 A 
ATOM     11  C   UNL     1       4.145   0.206  -1.126  0.00  0.00    +0.028 A 
BRANCH   9  12
ATOM     12  N   UNL     1       7.697   0.773  -0.070  0.00  0.00    +0.056 N 
ATOM     13  O   UNL     1       8.305   0.344  -1.035  0.00  0.00    -0.126 OA
ATOM     14  O   UNL     1       8.308   1.225   0.882  0.00  0.00    -0.126 OA
ENDBRANCH   9  12
ENDBRANCH   5   6
BRANCH   4  15
ATOM     15  C   UNL     1       1.603   3.199   0.004  0.00  0.00    +0.139 C 
ATOM     16  C   UNL     1       1.392   3.783   1.402  0.00  0.00    +0.036 C 
BRANCH  15  17
ATOM     17  N   UNL     1       0.781   3.935  -0.961  0.00  0.00    -0.302 N 
ATOM     18  C   UNL     1       1.245   5.076  -1.509  0.00  0.00    +0.245 C 
ATOM     19  O   UNL     1       2.344   5.495  -1.202  0.00  0.00    -0.270 OA
ATOM     20  H   UNL     1      -0.213   3.555  -1.239  0.00  0.00    +0.150 HD
BRANCH  18  21
ATOM     21  C   UNL     1       0.416   5.818  -2.483  0.00  0.00    +0.039 A 
ATOM     22  C   UNL     1       0.893   7.000  -3.051  0.00  0.00    +0.013 A 
ATOM     23  C   UNL     1       0.116   7.689  -3.959  0.00  0.00    +0.004 A 
ATOM     24  C   UNL     1      -1.135   7.211  -4.308  0.00  0.00    +0.038 A 
ATOM     25  C   UNL     1      -1.615   6.039  -3.748  0.00  0.00    +0.124 A 
ATOM     26  C   UNL     1      -0.844   5.337  -2.841  0.00  0.00    +0.051 A 
ATOM     27  F   UNL     1      -2.838   5.578  -4.092  0.00  0.00    -0.205 F 
ENDBRANCH  18  21
ENDBRANCH  15  17
ENDBRANCH   4  15
BRANCH   1  28
ATOM     28  S   UNL     1       1.768  -2.116  -0.026  0.00  0.00    -0.081 S 
BRANCH  28  29
ATOM     29  C   UNL     1       0.161  -2.948  -0.015  0.00  0.00    +0.112 C 
BRANCH  29  36
ATOM     30  C   UNL     1       0.384  -4.392   2.478  0.00  0.00    +0.044 C 
ATOM     31  C   UNL     1       0.474  -5.132   1.168  0.00  0.00    -0.046 A 
ATOM     32  C   UNL     1       0.663  -6.501   1.159  0.00  0.00    +0.003 A 
ATOM     33  C   UNL     1       0.746  -7.179  -0.043  0.00  0.00    +0.000 A 
ATOM     34  C   UNL     1       0.639  -6.488  -1.235  0.00  0.00    +0.000 A 
ATOM     35  C   UNL     1       0.445  -5.120  -1.226  0.00  0.00    +0.005 A 
ATOM     36  C   UNL     1       0.367  -4.441  -0.024  0.00  0.00    -0.034 A 
ENDBRANCH  29  36
ENDBRANCH  28  29
ENDBRANCH   1  28
TORSDOF 8
