REMARK  Name = ZINC16951243
REMARK  3 active torsions:
REMARK  status: ('A' for Active; 'I' for Inactive)
REMARK    1  A    between atoms: C_4  and  C_7
REMARK    2  A    between atoms: C_7  and  C_8
REMARK    3  A    between atoms: N_14  and  C_15
REMARK                            x       y       z     vdW  Elec       q    Type
REMARK                         _______ _______ _______ _____ _____    ______ ____
ROOT
ATOM      1  C   UNL     1      -2.955   0.704   1.510  0.00  0.00    +0.181 C 
ATOM      2  N   UNL     1      -3.307   1.969   2.165  0.00  0.00    -0.339 N 
ATOM      3  C   UNL     1      -4.535   2.414   2.125  0.00  0.00    +0.190 C 
ATOM      4  N   UNL     1      -5.523   1.724   1.530  0.00  0.00    -0.187 NA
ATOM      5  C   UNL     1      -5.356   0.461   1.185  0.00  0.00    +0.189 C 
ATOM      6  N   UNL     1      -4.155  -0.145   1.470  0.00  0.00    -0.252 N 
ATOM      7  N   UNL     1      -6.355  -0.229   0.556  0.00  0.00    -0.331 N 
ATOM      8  N   UNL     1      -4.826   3.629   2.711  0.00  0.00    -0.329 N 
ATOM      9  H   UNL     1      -6.204  -1.281   0.274  0.00  0.00    +0.145 HD
ATOM     10  H   UNL     1      -7.311   0.268   0.334  0.00  0.00    +0.145 HD
ATOM     11  H   UNL     1      -5.854   4.020   2.687  0.00  0.00    +0.145 HD
ATOM     12  H   UNL     1      -4.029   4.207   3.203  0.00  0.00    +0.145 HD
ATOM     13  H   UNL     1      -2.531   2.543   2.692  0.00  0.00    +0.164 HD
ENDROOT
BRANCH   6  14
ATOM     14  C   UNL     1      -4.078  -1.521   1.714  0.00  0.00    +0.038 A 
ATOM     15  C   UNL     1      -4.662  -2.060   2.852  0.00  0.00    +0.025 A 
ATOM     16  C   UNL     1      -4.590  -3.419   3.087  0.00  0.00    +0.022 A 
ATOM     17  C   UNL     1      -3.925  -4.242   2.195  0.00  0.00    +0.041 A 
ATOM     18  C   UNL     1      -3.336  -3.707   1.063  0.00  0.00    +0.022 A 
ATOM     19  C   UNL     1      -3.411  -2.349   0.820  0.00  0.00    +0.025 A 
ATOM     20 CL   UNL     1      -3.828  -5.949   2.498  0.00  0.00    -0.084 Cl
ENDBRANCH   6  14
BRANCH   1  21
ATOM     21  C   UNL     1      -2.469   0.979   0.085  0.00  0.00    +0.080 C 
BRANCH  21  25
ATOM     22  C   UNL     1       1.206   3.151   0.221  0.00  0.00    +0.000 A 
ATOM     23  C   UNL     1       1.220   1.769   0.207  0.00  0.00    +0.000 A 
ATOM     24  C   UNL     1       0.031   1.066   0.167  0.00  0.00    +0.004 A 
ATOM     25  C   UNL     1      -1.173   1.745   0.136  0.00  0.00    -0.044 A 
ATOM     26  C   UNL     1      -1.187   3.127   0.155  0.00  0.00    +0.004 A 
ATOM     27  C   UNL     1       0.003   3.830   0.196  0.00  0.00    +0.000 A 
ENDBRANCH  21  25
ENDBRANCH   1  21
TORSDOF 3
