REMARK  Name = ZINC08869012
REMARK  10 active torsions:
REMARK  status: ('A' for Active; 'I' for Inactive)
REMARK    1  A    between atoms: C_1  and  N_61
REMARK    2  A    between atoms: C_2  and  N_61
REMARK    3  A    between atoms: C_3  and  C_4
REMARK    4  A    between atoms: C_3  and  N_61
REMARK    5  A    between atoms: C_4  and  N_5
REMARK    6  A    between atoms: C_16  and  C_18
REMARK    7  A    between atoms: N_23  and  S_24
REMARK    8  A    between atoms: S_24  and  C_27
REMARK    9  A    between atoms: C_30  and  O_33
REMARK   10  A    between atoms: O_33  and  C_34
REMARK                            x       y       z     vdW  Elec       q    Type
REMARK                         _______ _______ _______ _____ _____    ______ ____
ROOT
ATOM      1  N   UNL     1       2.946  -3.961  -0.403  0.00  0.00    -0.251 N 
ATOM      2  C   UNL     1       4.270  -4.348  -0.531  0.00  0.00    +0.168 A 
ATOM      3  N   UNL     1       4.779  -5.557  -0.521  0.00  0.00    -0.224 NA
ATOM      4  C   UNL     1       6.103  -5.790  -0.658  0.00  0.00    +0.080 A 
ATOM      5  C   UNL     1       6.775  -7.034  -0.665  0.00  0.00    +0.032 A 
ATOM      6  C   UNL     1       8.135  -7.095  -0.816  0.00  0.00    +0.040 A 
ATOM      7  C   UNL     1       8.901  -5.945  -0.968  0.00  0.00    +0.125 A 
ATOM      8  C   UNL     1       8.275  -4.710  -0.965  0.00  0.00    +0.055 A 
ATOM      9  C   UNL     1       6.913  -4.641  -0.815  0.00  0.00    +0.043 A 
ATOM     10  S   UNL     1       5.720  -3.326  -0.753  0.00  0.00    -0.052 S 
ATOM     11  F   UNL     1      10.241  -6.032  -1.115  0.00  0.00    -0.205 F 
ATOM     12  C   UNL     1       1.984  -4.892  -0.241  0.00  0.00    +0.240 C 
ATOM     13  O   UNL     1       0.820  -4.558  -0.188  0.00  0.00    -0.273 OA
ENDROOT
BRANCH  12  14
ATOM     14  C   UNL     1       2.357  -6.347  -0.126  0.00  0.00    +0.166 C 
ATOM     15  C   UNL     1       2.942  -6.630   1.274  0.00  0.00    +0.031 C 
ATOM     16  C   UNL     1       1.722  -7.188   2.054  0.00  0.00    +0.019 C 
ATOM     17  C   UNL     1       0.986  -7.987   0.950  0.00  0.00    +0.110 C 
ATOM     18  N   UNL     1       1.157  -7.184  -0.274  0.00  0.00    -0.165 NA
BRANCH  18  19
ATOM     19  S   UNL     1       0.162  -7.218  -1.598  0.00  0.00    +0.062 S 
ATOM     20  O   UNL     1      -1.103  -7.679  -1.143  0.00  0.00    -0.153 OA
ATOM     21  O   UNL     1       0.326  -5.972  -2.261  0.00  0.00    -0.153 OA
BRANCH  19  22
ATOM     22  C   UNL     1       0.787  -8.454  -2.687  0.00  0.00    +0.106 A 
ATOM     23  C   UNL     1       1.714  -8.116  -3.655  0.00  0.00    +0.032 A 
ATOM     24  C   UNL     1       2.209  -9.084  -4.507  0.00  0.00    +0.047 A 
ATOM     25  C   UNL     1       1.767 -10.394  -4.398  0.00  0.00    +0.120 A 
ATOM     26  C   UNL     1       0.832 -10.730  -3.429  0.00  0.00    +0.047 A 
ATOM     27  C   UNL     1       0.344  -9.759  -2.576  0.00  0.00    +0.032 A 
BRANCH  25  28
ATOM     28  O   UNL     1       2.249 -11.347  -5.238  0.00  0.00    -0.495 OA
ATOM     29  C   UNL     1       3.209 -10.930  -6.210  0.00  0.00    +0.277 C 
ENDBRANCH  25  28
ENDBRANCH  19  22
ENDBRANCH  18  19
ENDBRANCH  12  14
BRANCH   1  30
ATOM     30  C   UNL     1       2.590  -2.540  -0.442  0.00  0.00    +0.097 C 
BRANCH  30  31
ATOM     31  C   UNL     1       2.173  -2.158  -1.864  0.00  0.00    -0.060 C 
BRANCH  31  34
ATOM     32  C   UNL     1       1.771  -0.270  -3.325  0.00  0.00    -0.097 C 
ATOM     33  C   UNL     1       0.785  -0.322  -1.114  0.00  0.00    -0.097 C 
ATOM     34  N   UNL     1       1.964  -0.696  -1.923  0.00  0.00    +0.377 N 
ATOM     35  H   UNL     1       2.793  -0.225  -1.542  0.00  0.00    -0.083 HD
ENDBRANCH  31  34
ENDBRANCH  30  31
ENDBRANCH   1  30
TORSDOF 7
