REMARK  Name = ZINC47539514
REMARK  10 active torsions:
REMARK  status: ('A' for Active; 'I' for Inactive)
REMARK    1  A    between atoms: C_1  and  C_2
REMARK    2  A    between atoms: C_2  and  C_3
REMARK    3  A    between atoms: C_2  and  C_4
REMARK    4  A    between atoms: C_2  and  O_5
REMARK    5  A    between atoms: O_5  and  C_6
REMARK    6  A    between atoms: N_8  and  C_9
REMARK    7  A    between atoms: N_12  and  C_15
REMARK    8  A    between atoms: C_15  and  C_16
REMARK    9  A    between atoms: N_18  and  C_19
REMARK   10  A    between atoms: C_20  and  C_24
REMARK                            x       y       z     vdW  Elec       q    Type
REMARK                         _______ _______ _______ _____ _____    ______ ____
ROOT
ATOM      1  C   UNL     1       4.035  -0.071  -2.601  0.00  0.00    +0.073 C 
ATOM      2  C   UNL     1       4.956  -1.041  -1.855  0.00  0.00    +0.004 C 
ATOM      3  C   UNL     1       6.413  -0.650  -2.109  0.00  0.00    -0.076 C 
ATOM      4  N   UNL     1       6.696  -0.714  -3.548  0.00  0.00    +0.386 N 
ATOM      5  C   UNL     1       5.868   0.265  -4.263  0.00  0.00    -0.076 C 
ATOM      6  C   UNL     1       4.389  -0.091  -4.091  0.00  0.00    +0.004 C 
ATOM      7  H   UNL     1       6.490  -1.641  -3.889  0.00  0.00    -0.081 HD
ENDROOT
BRANCH   1  10
ATOM      8  C   UNL     1       1.952  -0.085  -1.337  0.00  0.00    +0.401 C 
ATOM      9  O   UNL     1       2.488   0.619  -0.503  0.00  0.00    -0.226 OA
ATOM     10  N   UNL     1       2.641  -0.485  -2.424  0.00  0.00    -0.278 N 
ATOM     11  H   UNL     1       2.213  -1.047  -3.089  0.00  0.00    +0.152 HD
BRANCH   8  12
ATOM     12  O   UNL     1       0.671  -0.465  -1.174  0.00  0.00    -0.445 OA
BRANCH  12  14
ATOM     13  C   UNL     1      -0.019   1.526   0.010  0.00  0.00    +0.055 C 
ATOM     14  C   UNL     1       0.002  -0.004   0.002  0.00  0.00    +0.107 C 
ATOM     15  C   UNL     1       0.742  -0.511   1.242  0.00  0.00    +0.055 C 
ATOM     16  C   UNL     1      -1.433  -0.534   0.013  0.00  0.00    +0.055 C 
ENDBRANCH  12  14
ENDBRANCH   8  12
ENDBRANCH   1  10
BRANCH   4  17
ATOM     17  C   UNL     1       8.116  -0.414  -3.780  0.00  0.00    +0.019 C 
BRANCH  17  18
ATOM     18  C   UNL     1       8.436  -0.599  -5.241  0.00  0.00    +0.201 C 
ATOM     19  O   UNL     1       7.567  -0.946  -6.013  0.00  0.00    -0.278 OA
ATOM     20  N   UNL     1       9.687  -0.378  -5.689  0.00  0.00    -0.281 N 
ATOM     21  H   UNL     1      10.382  -0.100  -5.072  0.00  0.00    +0.155 HD
BRANCH  20  22
ATOM     22  C   UNL     1       9.982  -0.548  -7.034  0.00  0.00    +0.084 A 
ATOM     23  C   UNL     1      11.204  -0.373  -7.668  0.00  0.00    +0.065 A 
ATOM     24  C   UNL     1      11.234  -0.620  -9.091  0.00  0.00    +0.022 A 
ATOM     25  C   UNL     1      10.066  -0.994  -9.647  0.00  0.00    +0.048 A 
ATOM     26  S   UNL     1       8.945  -1.019  -8.265  0.00  0.00    -0.081 S 
BRANCH  23  27
ATOM     27  C   UNL     1      12.402   0.040  -6.931  0.00  0.00    +0.244 C 
ATOM     28  O   UNL     1      12.341   0.240  -5.732  0.00  0.00    -0.270 OA
ATOM     29  N   UNL     1      13.572   0.199  -7.582  0.00  0.00    -0.325 N 
ATOM     30  H   UNL     1      13.620   0.040  -8.538  0.00  0.00    +0.145 HD
ATOM     31  H   UNL     1      14.364   0.473  -7.095  0.00  0.00    +0.145 HD
ENDBRANCH  23  27
ENDBRANCH  20  22
ENDBRANCH  17  18
ENDBRANCH   4  17
TORSDOF 7
