REMARK  Name = ZINC38848251
REMARK  12 active torsions:
REMARK  status: ('A' for Active; 'I' for Inactive)
REMARK    1  A    between atoms: C_1  and  O_2
REMARK    2  A    between atoms: O_2  and  C_3
REMARK    3  A    between atoms: C_6  and  O_37
REMARK    4  A    between atoms: N_12  and  C_13
REMARK    5  A    between atoms: C_13  and  C_14
REMARK    6  A    between atoms: C_14  and  C_15
REMARK    7  A    between atoms: C_15  and  N_16
REMARK    8  A    between atoms: C_21  and  C_23
REMARK    9  A    between atoms: C_23  and  C_24
REMARK   10  A    between atoms: C_24  and  C_25
REMARK   11  A    between atoms: C_24  and  C_31
REMARK   12  A    between atoms: O_37  and  C_38
REMARK                            x       y       z     vdW  Elec       q    Type
REMARK                         _______ _______ _______ _____ _____    ______ ____
ROOT
ATOM      1  C   UNL     1       0.554  -2.923  -1.911  0.00  0.00    +0.147 A 
ATOM      2  C   UNL     1       1.132  -2.697  -3.138  0.00  0.00    +0.051 A 
ATOM      3  C   UNL     1       1.396  -3.737  -4.018  0.00  0.00    +0.050 A 
ATOM      4  C   UNL     1       1.069  -5.034  -3.653  0.00  0.00    +0.136 A 
ATOM      5  C   UNL     1       0.490  -5.269  -2.425  0.00  0.00    +0.086 A 
ATOM      6  C   UNL     1       0.213  -4.238  -1.503  0.00  0.00    +0.125 A 
ATOM      7  N   UNL     1      -0.351  -4.629  -0.339  0.00  0.00    -0.221 NA
ATOM      8  C   UNL     1      -0.622  -5.885  -0.073  0.00  0.00    +0.168 A 
ATOM      9  S   UNL     1      -0.078  -6.714  -1.561  0.00  0.00    -0.048 S 
ATOM     10  N   UNL     1      -1.193  -6.430   1.066  0.00  0.00    -0.250 N 
ATOM     11  C   UNL     1      -1.549  -5.630   2.090  0.00  0.00    +0.222 C 
ATOM     12  O   UNL     1      -2.049  -6.106   3.087  0.00  0.00    -0.275 OA
ENDROOT
BRANCH   1  14
ATOM     13  C   UNL     1       0.679  -0.576  -1.546  0.00  0.00    +0.277 C 
ATOM     14  O   UNL     1       0.313  -1.876  -1.078  0.00  0.00    -0.493 OA
ENDBRANCH   1  14
BRANCH   4  15
ATOM     15  O   UNL     1       1.319  -6.067  -4.501  0.00  0.00    -0.494 OA
ATOM     16  C   UNL     1       1.921  -5.745  -5.757  0.00  0.00    +0.277 C 
ENDBRANCH   4  15
BRANCH  10  17
ATOM     17  C   UNL     1      -1.411  -7.876   1.157  0.00  0.00    +0.117 C 
BRANCH  17  18
ATOM     18  C   UNL     1      -0.175  -8.540   1.769  0.00  0.00    +0.041 C 
BRANCH  18  19
ATOM     19  C   UNL     1      -0.402 -10.050   1.864  0.00  0.00    +0.124 C 
BRANCH  19  20
ATOM     20  N   UNL     1       0.780 -10.685   2.450  0.00  0.00    -0.338 N 
ATOM     21  C   UNL     1       1.869 -11.160   1.770  0.00  0.00    +0.104 A 
ATOM     22  C   UNL     1       2.716 -11.660   2.689  0.00  0.00    +0.101 A 
ATOM     23  N   UNL     1       2.160 -11.494   3.899  0.00  0.00    -0.352 N 
ATOM     24  C   UNL     1       1.003 -10.907   3.764  0.00  0.00    +0.173 A 
ATOM     25  H   UNL     1       2.558 -11.765   4.741  0.00  0.00    +0.166 HD
ENDBRANCH  19  20
ENDBRANCH  18  19
ENDBRANCH  17  18
ENDBRANCH  10  17
BRANCH  11  26
ATOM     26  C   UNL     1      -1.326  -4.142   1.997  0.00  0.00    +0.109 C 
BRANCH  26  27
ATOM     27  C   UNL     1      -1.813  -3.471   3.282  0.00  0.00    +0.058 C 
BRANCH  27  28
ATOM     28  C   UNL     1      -0.965  -3.930   4.441  0.00  0.00    -0.040 A 
ATOM     29  C   UNL     1      -1.565  -4.440   5.577  0.00  0.00    +0.004 A 
ATOM     30  C   UNL     1      -0.787  -4.861   6.639  0.00  0.00    +0.000 A 
ATOM     31  C   UNL     1       0.591  -4.771   6.566  0.00  0.00    +0.000 A 
ATOM     32  C   UNL     1       1.190  -4.261   5.429  0.00  0.00    +0.000 A 
ATOM     33  C   UNL     1       0.413  -3.845   4.365  0.00  0.00    +0.004 A 
ENDBRANCH  27  28
BRANCH  27  34
ATOM     34  C   UNL     1      -1.704  -1.975   3.141  0.00  0.00    -0.040 A 
ATOM     35  C   UNL     1      -0.510  -1.404   2.740  0.00  0.00    +0.004 A 
ATOM     36  C   UNL     1      -0.410  -0.031   2.611  0.00  0.00    +0.000 A 
ATOM     37  C   UNL     1      -1.503   0.770   2.881  0.00  0.00    +0.000 A 
ATOM     38  C   UNL     1      -2.697   0.199   3.280  0.00  0.00    +0.000 A 
ATOM     39  C   UNL     1      -2.798  -1.174   3.406  0.00  0.00    +0.004 A 
ENDBRANCH  27  34
ENDBRANCH  26  27
ENDBRANCH  11  26
TORSDOF 10
