REMARK  Name = ZINC53113171
REMARK  7 active torsions:
REMARK  status: ('A' for Active; 'I' for Inactive)
REMARK    1  A    between atoms: C_1  and  C_2
REMARK    2  A    between atoms: C_7  and  C_9
REMARK    3  A    between atoms: C_7  and  N_11
REMARK    4  A    between atoms: C_9  and  O_10
REMARK    5  A    between atoms: N_11  and  S_12
REMARK    6  A    between atoms: S_12  and  C_15
REMARK    7  A    between atoms: C_18  and  N_22
REMARK                            x       y       z     vdW  Elec       q    Type
REMARK                         _______ _______ _______ _____ _____    ______ ____
ROOT
ATOM      1  S   UNL     1      -1.107  -3.771   1.909  0.00  0.00    +0.060 S 
ATOM      2  O   UNL     1      -0.347  -4.448   2.901  0.00  0.00    -0.153 OA
ATOM      3  O   UNL     1      -2.484  -3.466   2.080  0.00  0.00    -0.153 OA
ENDROOT
BRANCH   1   4
ATOM      4  C   UNL     1      -0.982  -4.731   0.437  0.00  0.00    +0.124 A 
ATOM      5  C   UNL     1      -0.191  -5.864   0.417  0.00  0.00    +0.032 A 
ATOM      6  C   UNL     1      -0.091  -6.619  -0.735  0.00  0.00    +0.025 A 
ATOM      7  C   UNL     1      -0.787  -6.239  -1.875  0.00  0.00    +0.026 A 
ATOM      8  C   UNL     1      -1.582  -5.100  -1.853  0.00  0.00    +0.044 A 
ATOM      9  C   UNL     1      -1.681  -4.351  -0.696  0.00  0.00    +0.069 A 
ATOM     10 CL   UNL     1      -2.679  -2.931  -0.664  0.00  0.00    -0.081 Cl
BRANCH   7  11
ATOM     11  N   UNL     1      -0.688  -7.000  -3.042  0.00  0.00    -0.358 N 
ATOM     12  H   UNL     1      -0.132  -7.795  -3.057  0.00  0.00    +0.142 HD
ATOM     13  H   UNL     1      -1.174  -6.734  -3.838  0.00  0.00    +0.142 HD
ENDBRANCH   7  11
ENDBRANCH   1   4
BRANCH   1  14
ATOM     14  N   UNL     1      -0.336  -2.333   1.623  0.00  0.00    -0.182 NA
ATOM     15  H   UNL     1      -0.827  -1.499   1.684  0.00  0.00    +0.149 HD
BRANCH  14  21
ATOM     16  C   UNL     1       1.365   1.415   0.388  0.00  0.00    +0.007 C 
ATOM     17  C   UNL     1       0.840  -0.021   0.334  0.00  0.00    -0.012 C 
ATOM     18  C   UNL     1       1.027  -0.580  -1.078  0.00  0.00    +0.003 C 
ATOM     19  C   UNL     1       0.501  -2.016  -1.131  0.00  0.00    +0.002 C 
ATOM     20  C   UNL     1       1.275  -2.880  -0.134  0.00  0.00    +0.026 C 
ATOM     21  C   UNL     1       1.088  -2.321   1.278  0.00  0.00    +0.063 C 
ATOM     22  C   UNL     1       1.613  -0.885   1.332  0.00  0.00    +0.029 C 
BRANCH  21  23
ATOM     23  C   UNL     1       1.861  -3.185   2.276  0.00  0.00    +0.179 C 
BRANCH  23  24
ATOM     24  O   UNL     1       1.584  -4.565   2.026  0.00  0.00    -0.393 OA
ATOM     25  H   UNL     1       1.984  -5.168   2.667  0.00  0.00    +0.209 HD
ENDBRANCH  23  24
ENDBRANCH  21  23
ENDBRANCH  14  21
ENDBRANCH   1  14
TORSDOF 6
