REMARK  Name = ZINC40031971
REMARK  16 active torsions:
REMARK  status: ('A' for Active; 'I' for Inactive)
REMARK    1  A    between atoms: C_1  and  C_2
REMARK    2  A    between atoms: C_2  and  C_3
REMARK    3  A    between atoms: C_3  and  C_4
REMARK    4  A    between atoms: C_4  and  C_5
REMARK    5  A    between atoms: C_5  and  O_6
REMARK    6  A    between atoms: O_6  and  C_7
REMARK    7  A    between atoms: C_10  and  C_16
REMARK    8  A    between atoms: C_12  and  O_13
REMARK    9  A    between atoms: O_13  and  C_14
REMARK   10  A    between atoms: C_14  and  C_15
REMARK   11  A    between atoms: C_23  and  C_37
REMARK   12  A    between atoms: C_24  and  C_36
REMARK   13  A    between atoms: N_31  and  C_32
REMARK   14  A    between atoms: C_32  and  C_33
REMARK   15  A    between atoms: C_33  and  C_34
REMARK   16  A    between atoms: C_34  and  O_35
REMARK                            x       y       z     vdW  Elec       q    Type
REMARK                         _______ _______ _______ _____ _____    ______ ____
ROOT
ATOM      1  C   UNL     1       3.980  -6.446  -6.920  0.00  0.00    +0.145 C 
ATOM      2  C   UNL     1       3.083  -6.409  -8.114  0.00  0.00    +0.072 A 
ATOM      3  C   UNL     1       1.752  -6.981  -8.341  0.00  0.00    +0.199 A 
ATOM      4  O   UNL     1       1.075  -7.469  -7.454  0.00  0.00    -0.287 OA
ATOM      5  C   UNL     1       1.307  -6.908  -9.756  0.00  0.00    +0.065 A 
ATOM      6  C   UNL     1       0.159  -7.582 -10.171  0.00  0.00    +0.019 A 
ATOM      7  C   UNL     1      -0.235  -7.509 -11.478  0.00  0.00    -0.047 A 
ATOM      8  C   UNL     1       0.505  -6.769 -12.390  0.00  0.00    -0.044 A 
ATOM      9  C   UNL     1       1.640  -6.097 -11.998  0.00  0.00    +0.050 A 
ATOM     10  C   UNL     1       2.061  -6.152 -10.669  0.00  0.00    +0.140 A 
ATOM     11  O   UNL     1       3.174  -5.476 -10.303  0.00  0.00    -0.450 OA
ATOM     12  C   UNL     1       3.722  -5.700  -9.092  0.00  0.00    +0.199 A 
ATOM     13  C   UNL     1       5.031  -5.270  -8.572  0.00  0.00    +0.283 C 
ATOM     14  O   UNL     1       5.849  -4.622  -9.194  0.00  0.00    -0.267 OA
ATOM     15  N   UNL     1       5.191  -5.702  -7.302  0.00  0.00    -0.284 N 
ATOM     16  C   UNL     1       0.059  -6.700 -13.828  0.00  0.00    +0.044 C 
ATOM     17  C   UNL     1      -1.475  -8.235 -11.931  0.00  0.00    +0.044 C 
ENDROOT
BRANCH   1  21
ATOM     18  C   UNL     1       2.079  -4.553  -3.590  0.00  0.00    +0.162 A 
ATOM     19  C   UNL     1       2.645  -3.787  -4.596  0.00  0.00    +0.050 A 
ATOM     20  C   UNL     1       3.259  -4.402  -5.671  0.00  0.00    +0.009 A 
ATOM     21  C   UNL     1       3.310  -5.781  -5.746  0.00  0.00    -0.019 A 
ATOM     22  C   UNL     1       2.746  -6.552  -4.746  0.00  0.00    +0.055 A 
ATOM     23  C   UNL     1       2.134  -5.942  -3.663  0.00  0.00    +0.162 A 
BRANCH  18  24
ATOM     24  O   UNL     1       1.474  -3.950  -2.532  0.00  0.00    -0.488 OA
BRANCH  24  25
ATOM     25  C   UNL     1       1.455  -2.521  -2.524  0.00  0.00    +0.229 C 
BRANCH  25  26
ATOM     26  C   UNL     1       0.739  -2.027  -1.265  0.00  0.00    +0.041 C 
BRANCH  26  27
ATOM     27  C   UNL     1       0.718  -0.497  -1.257  0.00  0.00    +0.003 C 
BRANCH  27  29
ATOM     28  C   UNL     1      -0.019   1.526   0.010  0.00  0.00    +0.004 C 
ATOM     29  C   UNL     1       0.002  -0.004   0.002  0.00  0.00    -0.003 C 
ENDBRANCH  27  29
ENDBRANCH  26  27
ENDBRANCH  25  26
ENDBRANCH  24  25
ENDBRANCH  18  24
BRANCH  23  30
ATOM     30  O   UNL     1       1.584  -6.698  -2.676  0.00  0.00    -0.489 OA
BRANCH  30  31
ATOM     31  C   UNL     1       1.679  -8.117  -2.817  0.00  0.00    +0.226 C 
ATOM     32  C   UNL     1       1.009  -8.794  -1.619  0.00  0.00    +0.048 C 
ENDBRANCH  30  31
ENDBRANCH  23  30
ENDBRANCH   1  21
BRANCH  15  33
ATOM     33  C   UNL     1       6.363  -5.471  -6.454  0.00  0.00    +0.111 C 
BRANCH  33  34
ATOM     34  C   UNL     1       7.366  -6.609  -6.647  0.00  0.00    +0.047 C 
BRANCH  34  35
ATOM     35  C   UNL     1       8.589  -6.368  -5.761  0.00  0.00    +0.157 C 
BRANCH  35  36
ATOM     36  O   UNL     1       9.526  -7.431  -5.941  0.00  0.00    -0.395 OA
ATOM     37  H   UNL     1      10.328  -7.344  -5.409  0.00  0.00    +0.209 HD
ENDBRANCH  35  36
ENDBRANCH  34  35
ENDBRANCH  33  34
ENDBRANCH  15  33
TORSDOF 12
