REMARK  Name = ZINC36601414
REMARK  16 active torsions:
REMARK  status: ('A' for Active; 'I' for Inactive)
REMARK    1  A    between atoms: C_1  and  C_2
REMARK    2  A    between atoms: C_5  and  C_7
REMARK    3  A    between atoms: C_7  and  N_8
REMARK    4  A    between atoms: N_8  and  C_9
REMARK    5  A    between atoms: C_9  and  C_11
REMARK    6  A    between atoms: C_9  and  C_17
REMARK    7  A    between atoms: N_19  and  C_20
REMARK    8  A    between atoms: C_20  and  C_21
REMARK    9  A    between atoms: C_20  and  C_22
REMARK   10  A    between atoms: C_20  and  C_23
REMARK   11  A    between atoms: C_23  and  C_24
REMARK   12  A    between atoms: C_24  and  C_25
REMARK   13  A    between atoms: C_24  and  C_26
REMARK   14  A    between atoms: C_24  and  C_27
REMARK   15  A    between atoms: C_28  and  C_30
REMARK   16  A    between atoms: C_34  and  N_36
REMARK                            x       y       z     vdW  Elec       q    Type
REMARK                         _______ _______ _______ _____ _____    ______ ____
ROOT
ATOM      1  N   UNL     1       2.916  -3.671   0.037  0.00  0.00    -0.275 N 
ATOM      2  C   UNL     1       1.653  -4.095   0.243  0.00  0.00    +0.248 C 
ATOM      3  O   UNL     1       1.319  -4.496   1.341  0.00  0.00    -0.270 OA
ENDROOT
BRANCH   2   4
ATOM      4  C   UNL     1       0.675  -4.073  -0.865  0.00  0.00    +0.039 A 
ATOM      5  C   UNL     1       1.018  -3.500  -2.091  0.00  0.00    +0.013 A 
ATOM      6  C   UNL     1       0.101  -3.483  -3.121  0.00  0.00    +0.003 A 
ATOM      7  C   UNL     1      -1.157  -4.032  -2.941  0.00  0.00    +0.033 A 
ATOM      8  C   UNL     1      -1.503  -4.600  -1.728  0.00  0.00    +0.127 A 
ATOM      9  C   UNL     1      -0.593  -4.630  -0.692  0.00  0.00    +0.045 A 
BRANCH   8  10
ATOM     10  N   UNL     1      -2.851  -5.184  -1.545  0.00  0.00    +0.056 N 
ATOM     11  O   UNL     1      -3.647  -5.164  -2.454  0.00  0.00    -0.126 OA
ATOM     12  O   UNL     1      -3.155  -5.682  -0.485  0.00  0.00    -0.126 OA
ENDBRANCH   8  10
ENDBRANCH   2   4
BRANCH   1  13
ATOM     13  C   UNL     1       3.944  -3.909   1.053  0.00  0.00    +0.183 C 
BRANCH  13  18
ATOM     14  C   UNL     1       4.665  -8.900   1.110  0.00  0.00    +0.086 C 
ATOM     15  C   UNL     1       4.883  -7.432   0.852  0.00  0.00    +0.102 A 
ATOM     16  C   UNL     1       5.937  -6.893   0.213  0.00  0.00    +0.045 A 
ATOM     17  C   UNL     1       5.735  -5.494   0.197  0.00  0.00    +0.046 A 
ATOM     18  C   UNL     1       4.569  -5.261   0.827  0.00  0.00    +0.122 A 
ATOM     19  O   UNL     1       4.055  -6.439   1.217  0.00  0.00    -0.463 OA
ENDBRANCH  13  18
ENDBRANCH   1  13
BRANCH   1  20
ATOM     20  C   UNL     1       3.260  -2.971  -1.204  0.00  0.00    +0.193 C 
BRANCH  20  21
ATOM     21  C   UNL     1       2.452  -1.703  -1.306  0.00  0.00    -0.018 A 
ATOM     22  C   UNL     1       2.100  -1.014  -0.160  0.00  0.00    +0.006 A 
ATOM     23  C   UNL     1       1.359   0.149  -0.253  0.00  0.00    +0.000 A 
ATOM     24  C   UNL     1       0.972   0.625  -1.492  0.00  0.00    +0.000 A 
ATOM     25  C   UNL     1       1.325  -0.064  -2.638  0.00  0.00    +0.000 A 
ATOM     26  C   UNL     1       2.070  -1.225  -2.545  0.00  0.00    +0.006 A 
ENDBRANCH  20  21
BRANCH  20  27
ATOM     27  C   UNL     1       4.728  -2.633  -1.199  0.00  0.00    +0.239 C 
ATOM     28  O   UNL     1       5.447  -3.066  -0.324  0.00  0.00    -0.273 OA
ATOM     29  N   UNL     1       5.242  -1.850  -2.168  0.00  0.00    -0.308 N 
ATOM     30  H   UNL     1       4.656  -1.447  -2.828  0.00  0.00    +0.149 HD
BRANCH  29  31
ATOM     31  C   UNL     1       6.686  -1.607  -2.224  0.00  0.00    +0.030 C 
ATOM     32  C   UNL     1       7.084  -0.640  -1.107  0.00  0.00    +0.031 C 
ATOM     33  C   UNL     1       7.433  -2.930  -2.045  0.00  0.00    +0.031 C 
BRANCH  31  34
ATOM     34  C   UNL     1       7.048  -0.996  -3.580  0.00  0.00    +0.031 C 
BRANCH  34  35
ATOM     35  C   UNL     1       6.321  -1.756  -4.692  0.00  0.00    -0.036 C 
ATOM     36  C   UNL     1       4.849  -1.340  -4.715  0.00  0.00    +0.010 C 
ATOM     37  C   UNL     1       6.966  -1.427  -6.040  0.00  0.00    +0.010 C 
ATOM     38  C   UNL     1       6.422  -3.260  -4.432  0.00  0.00    +0.010 C 
ENDBRANCH  34  35
ENDBRANCH  31  34
ENDBRANCH  29  31
ENDBRANCH  20  27
ENDBRANCH   1  20
TORSDOF 10
