REMARK  Name = ZINC44876109
REMARK  10 active torsions:
REMARK  status: ('A' for Active; 'I' for Inactive)
REMARK    1  A    between atoms: C_1  and  C_2
REMARK    2  A    between atoms: C_5  and  S_8
REMARK    3  A    between atoms: S_8  and  N_11
REMARK    4  A    between atoms: N_11  and  C_12
REMARK    5  A    between atoms: C_15  and  C_18
REMARK    6  A    between atoms: N_20  and  C_21
REMARK    7  A    between atoms: C_21  and  C_22
REMARK    8  A    between atoms: C_25  and  C_28
REMARK    9  A    between atoms: C_28  and  N_29
REMARK   10  A    between atoms: C_32  and  C_35
REMARK                            x       y       z     vdW  Elec       q    Type
REMARK                         _______ _______ _______ _____ _____    ______ ____
ROOT
ATOM      1  C   UNL     1       4.611  -3.739   4.725  0.00  0.00    +0.244 C 
ATOM      2  O   UNL     1       4.409  -2.703   5.329  0.00  0.00    -0.270 OA
ATOM      3  N   UNL     1       5.536  -4.611   5.173  0.00  0.00    -0.307 N 
ATOM      4  H   UNL     1       5.696  -5.437   4.692  0.00  0.00    +0.149 HD
ENDROOT
BRANCH   1   8
ATOM      5  C   UNL     1       2.400  -4.611   1.206  0.00  0.00    +0.048 A 
ATOM      6  C   UNL     1       2.168  -3.424   1.896  0.00  0.00    +0.025 A 
ATOM      7  C   UNL     1       2.882  -3.139   3.037  0.00  0.00    +0.015 A 
ATOM      8  C   UNL     1       3.842  -4.042   3.503  0.00  0.00    +0.037 A 
ATOM      9  C   UNL     1       4.073  -5.232   2.808  0.00  0.00    +0.015 A 
ATOM     10  C   UNL     1       3.351  -5.515   1.671  0.00  0.00    +0.025 A 
BRANCH   5  11
ATOM     11  N   UNL     1       1.676  -4.896   0.053  0.00  0.00    -0.216 N 
ATOM     12  H   UNL     1       2.098  -4.817  -0.816  0.00  0.00    +0.174 HD
BRANCH  11  13
ATOM     13  S   UNL     1       0.093  -5.370   0.166  0.00  0.00    +0.072 S 
ATOM     14  O   UNL     1      -0.356  -5.601  -1.162  0.00  0.00    -0.150 OA
ATOM     15  O   UNL     1      -0.546  -4.447   1.037  0.00  0.00    -0.150 OA
BRANCH  13  20
ATOM     16  C   UNL     1       0.023 -10.715   2.965  0.00  0.00    +0.044 C 
ATOM     17  C   UNL     1       0.041  -9.380   2.266  0.00  0.00    -0.050 A 
ATOM     18  C   UNL     1      -0.153  -8.218   2.989  0.00  0.00    +0.005 A 
ATOM     19  C   UNL     1      -0.137  -6.994   2.348  0.00  0.00    +0.029 A 
ATOM     20  C   UNL     1       0.074  -6.931   0.983  0.00  0.00    +0.109 A 
ATOM     21  C   UNL     1       0.269  -8.092   0.260  0.00  0.00    +0.029 A 
ATOM     22  C   UNL     1       0.257  -9.317   0.902  0.00  0.00    +0.005 A 
ENDBRANCH  13  20
ENDBRANCH  11  13
ENDBRANCH   5  11
ENDBRANCH   1   8
BRANCH   3  23
ATOM     23  C   UNL     1       6.298  -4.310   6.387  0.00  0.00    +0.139 C 
BRANCH  23  24
ATOM     24  C   UNL     1       7.259  -5.436   6.669  0.00  0.00    -0.030 A 
ATOM     25  C   UNL     1       6.862  -6.503   7.454  0.00  0.00    +0.005 A 
ATOM     26  C   UNL     1       7.743  -7.536   7.712  0.00  0.00    +0.002 A 
ATOM     27  C   UNL     1       9.021  -7.503   7.186  0.00  0.00    -0.064 A 
ATOM     28  C   UNL     1       9.417  -6.437   6.400  0.00  0.00    +0.002 A 
ATOM     29  C   UNL     1       8.535  -5.406   6.138  0.00  0.00    +0.005 A 
BRANCH  27  30
ATOM     30  C   UNL     1       9.982  -8.629   7.468  0.00  0.00    -0.043 C 
BRANCH  30  31
ATOM     31  N   UNL     1       9.846  -9.661   6.431  0.00  0.00    +0.382 N 
ATOM     32  C   UNL     1      10.254  -9.107   5.135  0.00  0.00    -0.078 C 
ATOM     33  C   UNL     1      10.038 -10.152   4.038  0.00  0.00    -0.016 C 
ATOM     34  C   UNL     1      10.877 -11.394   4.352  0.00  0.00    -0.018 C 
ATOM     35  C   UNL     1      10.494 -11.920   5.738  0.00  0.00    -0.016 C 
ATOM     36  C   UNL     1      10.694 -10.809   6.772  0.00  0.00    -0.078 C 
ATOM     37  C   UNL     1      10.605 -12.473   3.302  0.00  0.00    +0.007 C 
ATOM     38  H   UNL     1       8.883  -9.959   6.379  0.00  0.00    -0.081 HD
ENDBRANCH  30  31
ENDBRANCH  27  30
ENDBRANCH  23  24
ENDBRANCH   3  23
TORSDOF 8
