REMARK  Name = ZINC39775596
REMARK  7 active torsions:
REMARK  status: ('A' for Active; 'I' for Inactive)
REMARK    1  A    between atoms: C_4  and  C_7
REMARK    2  A    between atoms: C_8  and  C_18
REMARK    3  A    between atoms: N_10  and  C_12
REMARK    4  A    between atoms: C_18  and  C_19
REMARK    5  A    between atoms: N_20  and  N_21
REMARK    6  A    between atoms: C_22  and  C_24
REMARK    7  A    between atoms: C_24  and  C_25
REMARK                            x       y       z     vdW  Elec       q    Type
REMARK                         _______ _______ _______ _____ _____    ______ ____
ROOT
ATOM      1  C   UNL     1       3.695  -0.694  -0.110  0.00  0.00    +0.053 C 
ATOM      2  C   UNL     1       3.819  -2.009   0.045  0.00  0.00    -0.023 C 
ATOM      3  C   UNL     1       5.298  -2.323   0.074  0.00  0.00    +0.160 C 
ATOM      4  N   UNL     1       5.961  -1.018  -0.084  0.00  0.00    -0.249 N 
ATOM      5  N   UNL     1       4.933  -0.072  -0.196  0.00  0.00    -0.263 N 
ATOM      6  H   UNL     1       5.068   0.881  -0.313  0.00  0.00    +0.170 HD
ENDROOT
BRANCH   1  10
ATOM      7  C   UNL     1      -0.026   1.347  -0.335  0.00  0.00    +0.000 A 
ATOM      8  C   UNL     1       0.969   1.819   0.502  0.00  0.00    +0.001 A 
ATOM      9  C   UNL     1       2.179   1.161   0.580  0.00  0.00    +0.010 A 
ATOM     10  C   UNL     1       2.398   0.018  -0.188  0.00  0.00    -0.003 A 
ATOM     11  C   UNL     1       1.391  -0.453  -1.031  0.00  0.00    +0.010 A 
ATOM     12  C   UNL     1       0.185   0.214  -1.099  0.00  0.00    +0.001 A 
ENDBRANCH   1  10
BRANCH   4  13
ATOM     13  C   UNL     1       7.336  -0.773  -0.120  0.00  0.00    +0.048 A 
ATOM     14  C   UNL     1       8.234  -1.826  -0.006  0.00  0.00    +0.025 A 
ATOM     15  C   UNL     1       9.593  -1.581  -0.042  0.00  0.00    +0.002 A 
ATOM     16  C   UNL     1      10.059  -0.287  -0.192  0.00  0.00    +0.000 A 
ATOM     17  C   UNL     1       9.168   0.764  -0.306  0.00  0.00    +0.002 A 
ATOM     18  C   UNL     1       7.808   0.524  -0.276  0.00  0.00    +0.025 A 
ENDBRANCH   4  13
BRANCH   2  19
ATOM     19  C   UNL     1       2.694  -3.003   0.169  0.00  0.00    +0.083 C 
BRANCH  19  20
ATOM     20  C   UNL     1       2.411  -3.613  -1.179  0.00  0.00    +0.107 C 
ATOM     21  N   UNL     1       2.430  -4.885  -1.324  0.00  0.00    -0.192 NA
BRANCH  21  22
ATOM     22  N   UNL     1       2.167  -5.452  -2.578  0.00  0.00    -0.207 N 
ATOM     23  C   UNL     1       2.187  -6.791  -2.729  0.00  0.00    +0.239 C 
ATOM     24  O   UNL     1       2.433  -7.505  -1.780  0.00  0.00    -0.274 OA
ATOM     25  H   UNL     1       1.970  -4.881  -3.336  0.00  0.00    +0.177 HD
BRANCH  23  26
ATOM     26  C   UNL     1       1.904  -7.401  -4.078  0.00  0.00    +0.171 C 
BRANCH  26  27
ATOM     27  C   UNL     1       1.988  -8.902  -3.978  0.00  0.00    +0.117 A 
ATOM     28  N   UNL     1       3.015  -9.563  -3.527  0.00  0.00    -0.232 NA
ATOM     29  C   UNL     1       2.757 -10.895  -3.575  0.00  0.00    +0.089 A 
ATOM     30  C   UNL     1       3.490 -12.031  -3.224  0.00  0.00    +0.030 A 
ATOM     31  C   UNL     1       2.945 -13.273  -3.394  0.00  0.00    +0.002 A 
ATOM     32  C   UNL     1       1.667 -13.419  -3.913  0.00  0.00    +0.002 A 
ATOM     33  C   UNL     1       0.925 -12.312  -4.267  0.00  0.00    +0.028 A 
ATOM     34  C   UNL     1       1.462 -11.043  -4.101  0.00  0.00    +0.066 A 
ATOM     35  N   UNL     1       1.000  -9.764  -4.340  0.00  0.00    -0.341 N 
ATOM     36  H   UNL     1       0.133  -9.524  -4.702  0.00  0.00    +0.167 HD
ENDBRANCH  26  27
ENDBRANCH  23  26
ENDBRANCH  21  22
ENDBRANCH  19  20
ENDBRANCH   2  19
TORSDOF 7
