REMARK  Name = ZINC51124991
REMARK  5 active torsions:
REMARK  status: ('A' for Active; 'I' for Inactive)
REMARK    1  A    between atoms: C_1  and  C_2
REMARK    2  A    between atoms: C_3  and  C_19
REMARK    3  A    between atoms: C_8  and  C_10
REMARK    4  A    between atoms: C_15  and  N_16
REMARK    5  A    between atoms: N_16  and  N_17
REMARK                            x       y       z     vdW  Elec       q    Type
REMARK                         _______ _______ _______ _____ _____    ______ ____
ROOT
ATOM      1  C   UNL     1       0.080  -3.340   4.588  0.00  0.00    +0.079 A 
ATOM      2  C   UNL     1      -0.009  -4.723   4.385  0.00  0.00    +0.033 A 
ATOM      3  C   UNL     1       0.002  -5.552   5.493  0.00  0.00    +0.037 A 
ATOM      4  C   UNL     1       0.098  -4.998   6.758  0.00  0.00    +0.128 A 
ATOM      5  N   UNL     1       0.180  -3.693   6.928  0.00  0.00    -0.237 NA
ATOM      6  C   UNL     1       0.180  -2.855   5.903  0.00  0.00    +0.144 A 
ATOM      7 BR   UNL     1      -0.115  -7.428   5.280  0.00  0.00    -0.049 Br
ENDROOT
BRANCH   1  15
ATOM      8  C   UNL     1       0.026   1.499   0.006  0.00  0.00    +0.066 C 
ATOM      9  C   UNL     1       0.063  -0.007  -0.001  0.00  0.00    +0.050 A 
ATOM     10  C   UNL     1       0.097  -0.709  -1.160  0.00  0.00    +0.011 A 
ATOM     11  S   UNL     1       0.129  -2.382  -0.536  0.00  0.00    -0.057 S 
ATOM     12  C   UNL     1       0.097  -2.017   1.107  0.00  0.00    +0.165 A 
ATOM     13  N   UNL     1       0.070  -0.702   1.122  0.00  0.00    -0.230 NA
ATOM     14  N   UNL     1       0.103  -2.893   2.185  0.00  0.00    -0.261 N 
ATOM     15  C   UNL     1       0.074  -2.412   3.444  0.00  0.00    +0.253 C 
ATOM     16  O   UNL     1       0.042  -1.211   3.635  0.00  0.00    -0.270 OA
ATOM     17  C   UNL     1       0.104  -0.214  -2.584  0.00  0.00    +0.053 C 
ATOM     18  H   UNL     1       0.128  -3.850   2.033  0.00  0.00    +0.157 HD
ENDBRANCH   1  15
BRANCH   6  19
ATOM     19  N   UNL     1       0.274  -1.494   6.128  0.00  0.00    -0.267 N 
ATOM     20  H   UNL     1       0.190  -0.873   5.388  0.00  0.00    +0.167 HD
BRANCH  19  21
ATOM     21  N   UNL     1       0.485  -1.023   7.394  0.00  0.00    -0.255 NA
ATOM     22  H   UNL     1       1.318  -1.426   7.795  0.00  0.00    +0.140 HD
ATOM     23  H   UNL     1       0.530  -0.015   7.402  0.00  0.00    +0.140 HD
ENDBRANCH  19  21
ENDBRANCH   6  19
TORSDOF 3
