REMARK  Name = ZINC38847393
REMARK  12 active torsions:
REMARK  status: ('A' for Active; 'I' for Inactive)
REMARK    1  A    between atoms: C_1  and  C_2
REMARK    2  A    between atoms: C_2  and  N_3
REMARK    3  A    between atoms: N_3  and  C_4
REMARK    4  A    between atoms: N_3  and  C_6
REMARK    5  A    between atoms: C_4  and  C_5
REMARK    6  A    between atoms: C_6  and  C_7
REMARK    7  A    between atoms: C_7  and  N_8
REMARK    8  A    between atoms: C_14  and  C_18
REMARK    9  A    between atoms: C_19  and  C_21
REMARK   10  A    between atoms: N_24  and  S_27
REMARK   11  A    between atoms: S_27  and  C_30
REMARK   12  A    between atoms: C_33  and  C_36
REMARK                            x       y       z     vdW  Elec       q    Type
REMARK                         _______ _______ _______ _____ _____    ______ ____
ROOT
ATOM      1  N   UNL     1      -1.578  -3.420  -1.868  0.00  0.00    -0.252 N 
ATOM      2  C   UNL     1      -2.189  -4.153  -0.863  0.00  0.00    +0.168 A 
ATOM      3  N   UNL     1      -2.758  -3.724   0.239  0.00  0.00    -0.224 NA
ATOM      4  C   UNL     1      -3.320  -4.560   1.138  0.00  0.00    +0.080 A 
ATOM      5  C   UNL     1      -3.961  -4.231   2.355  0.00  0.00    +0.029 A 
ATOM      6  C   UNL     1      -4.481  -5.210   3.160  0.00  0.00    +0.005 A 
ATOM      7  C   UNL     1      -4.401  -6.552   2.814  0.00  0.00    -0.049 A 
ATOM      8  C   UNL     1      -3.782  -6.910   1.631  0.00  0.00    +0.020 A 
ATOM      9  C   UNL     1      -3.257  -5.936   0.819  0.00  0.00    +0.041 A 
ATOM     10  S   UNL     1      -2.408  -5.923  -0.742  0.00  0.00    -0.052 S 
ATOM     11  C   UNL     1      -4.983  -7.607   3.719  0.00  0.00    +0.044 C 
ATOM     12  C   UNL     1      -0.934  -4.054  -2.868  0.00  0.00    +0.224 C 
ATOM     13  O   UNL     1      -0.312  -3.414  -3.690  0.00  0.00    -0.275 OA
ENDROOT
BRANCH  12  14
ATOM     14  C   UNL     1      -0.986  -5.557  -2.965  0.00  0.00    +0.078 C 
ATOM     15  C   UNL     1      -0.063  -6.168  -1.908  0.00  0.00    +0.030 C 
ATOM     16  C   UNL     1      -0.145  -7.696  -1.986  0.00  0.00    +0.110 C 
ATOM     17  N   UNL     1       0.153  -8.115  -3.362  0.00  0.00    -0.177 NA
ATOM     18  C   UNL     1      -0.615  -7.520  -4.464  0.00  0.00    +0.110 C 
ATOM     19  C   UNL     1      -0.528  -5.994  -4.358  0.00  0.00    +0.030 C 
BRANCH  17  20
ATOM     20  S   UNL     1       1.333  -9.237  -3.666  0.00  0.00    +0.061 S 
ATOM     21  O   UNL     1       1.763  -9.023  -5.003  0.00  0.00    -0.153 OA
ATOM     22  O   UNL     1       2.226  -9.195  -2.562  0.00  0.00    -0.153 OA
BRANCH  20  23
ATOM     23  C   UNL     1       0.565 -10.822  -3.632  0.00  0.00    +0.105 A 
ATOM     24  C   UNL     1       0.481 -11.525  -2.445  0.00  0.00    +0.029 A 
ATOM     25  C   UNL     1      -0.122 -12.769  -2.418  0.00  0.00    +0.005 A 
ATOM     26  C   UNL     1      -0.641 -13.310  -3.579  0.00  0.00    -0.050 A 
ATOM     27  C   UNL     1      -0.558 -12.607  -4.767  0.00  0.00    +0.005 A 
ATOM     28  C   UNL     1       0.041 -11.361  -4.792  0.00  0.00    +0.029 A 
ATOM     29  C   UNL     1      -1.297 -14.666  -3.551  0.00  0.00    +0.044 C 
ENDBRANCH  20  23
ENDBRANCH  17  20
ENDBRANCH  12  14
BRANCH   1  30
ATOM     30  C   UNL     1      -1.631  -1.956  -1.843  0.00  0.00    +0.097 C 
BRANCH  30  31
ATOM     31  C   UNL     1      -0.368  -1.411  -1.174  0.00  0.00    -0.059 C 
BRANCH  31  32
ATOM     32  N   UNL     1      -0.422   0.057  -1.149  0.00  0.00    +0.380 N 
ATOM     33  H   UNL     1      -0.564   0.405  -2.085  0.00  0.00    -0.082 HD
BRANCH  32  35
ATOM     34  C   UNL     1      -1.669   2.014  -0.365  0.00  0.00    -0.017 C 
ATOM     35  C   UNL     1      -1.534   0.491  -0.292  0.00  0.00    -0.082 C 
ENDBRANCH  32  35
BRANCH  32  36
ATOM     36  C   UNL     1       0.841   0.584  -0.616  0.00  0.00    -0.082 C 
ATOM     37  C   UNL     1       1.982   0.242  -1.577  0.00  0.00    -0.017 C 
ENDBRANCH  32  36
ENDBRANCH  31  32
ENDBRANCH  30  31
ENDBRANCH   1  30
TORSDOF 8
