REMARK  Name = ZINC19511706
REMARK  7 active torsions:
REMARK  status: ('A' for Active; 'I' for Inactive)
REMARK    1  A    between atoms: C_1  and  C_2
REMARK    2  A    between atoms: C_5  and  C_9
REMARK    3  A    between atoms: C_6  and  O_8
REMARK    4  A    between atoms: N_11  and  C_12
REMARK    5  A    between atoms: C_13  and  C_20
REMARK    6  A    between atoms: C_16  and  N_19
REMARK    7  A    between atoms: C_17  and  C_18
REMARK                            x       y       z     vdW  Elec       q    Type
REMARK                         _______ _______ _______ _____ _____    ______ ____
ROOT
ATOM      1  C   UNL     1      -1.476  -0.736   0.637  0.00  0.00    +0.252 C 
ATOM      2  O   UNL     1      -1.624  -1.696   1.369  0.00  0.00    -0.270 OA
ATOM      3  N   UNL     1      -2.498  -0.310  -0.131  0.00  0.00    -0.281 N 
ATOM      4  H   UNL     1      -2.390   0.605  -0.732  0.00  0.00    +0.155 HD
ENDROOT
BRANCH   3   5
ATOM      5  C   UNL     1      -3.696  -1.030  -0.163  0.00  0.00    +0.041 A 
ATOM      6  C   UNL     1      -4.903  -0.383   0.073  0.00  0.00    -0.029 A 
ATOM      7  C   UNL     1      -6.088  -1.093   0.037  0.00  0.00    +0.007 A 
ATOM      8  C   UNL     1      -6.076  -2.450  -0.223  0.00  0.00    +0.023 A 
ATOM      9  C   UNL     1      -4.872  -3.104  -0.455  0.00  0.00    +0.029 A 
ATOM     10  C   UNL     1      -3.681  -2.393  -0.424  0.00  0.00    -0.008 A 
ATOM     11  C   UNL     1      -2.373  -3.099  -0.674  0.00  0.00    +0.047 C 
ATOM     12  C   UNL     1      -4.921   1.096   0.362  0.00  0.00    +0.045 C 
BRANCH   9  13
ATOM     13  N   UNL     1      -4.861  -4.476  -0.718  0.00  0.00    -0.358 N 
ATOM     14  H   UNL     1      -3.907  -4.993  -0.901  0.00  0.00    +0.142 HD
ATOM     15  H   UNL     1      -5.806  -5.039  -0.742  0.00  0.00    +0.142 HD
ENDBRANCH   9  13
ENDBRANCH   3   5
BRANCH   1  20
ATOM     16  C   UNL     1       3.585   2.000   0.461  0.00  0.00    +0.044 C 
ATOM     17  C   UNL     1       2.262   1.279   0.507  0.00  0.00    -0.047 A 
ATOM     18  C   UNL     1       1.211   1.717  -0.282  0.00  0.00    +0.004 A 
ATOM     19  C   UNL     1      -0.003   1.066  -0.248  0.00  0.00    +0.017 A 
ATOM     20  C   UNL     1      -0.177  -0.038   0.591  0.00  0.00    +0.078 A 
ATOM     21  C   UNL     1       0.890  -0.481   1.384  0.00  0.00    +0.129 A 
ATOM     22  C   UNL     1       2.105   0.186   1.336  0.00  0.00    +0.049 A 
BRANCH  21  23
ATOM     23  O   UNL     1       0.734  -1.555   2.198  0.00  0.00    -0.506 OA
ATOM     24  H   UNL     1       1.573  -1.900   2.819  0.00  0.00    +0.292 HD
ENDBRANCH  21  23
ENDBRANCH   1  20
TORSDOF 4
