REMARK  Name = ZINC36648015
REMARK  9 active torsions:
REMARK  status: ('A' for Active; 'I' for Inactive)
REMARK    1  A    between atoms: C_1  and  C_2
REMARK    2  A    between atoms: N_11  and  C_12
REMARK    3  A    between atoms: C_12  and  C_13
REMARK    4  A    between atoms: C_13  and  N_14
REMARK    5  A    between atoms: N_14  and  C_15
REMARK    6  A    between atoms: N_14  and  C_16
REMARK    7  A    between atoms: C_17  and  C_19
REMARK    8  A    between atoms: N_24  and  S_26
REMARK    9  A    between atoms: S_26  and  C_29
REMARK                            x       y       z     vdW  Elec       q    Type
REMARK                         _______ _______ _______ _____ _____    ______ ____
ROOT
ATOM      1  C   UNL     1       1.149   1.254  -1.450  0.00  0.00    +0.044 C 
ATOM      2  C   UNL     1       0.949  -0.218  -1.199  0.00  0.00    -0.049 A 
ATOM      3  C   UNL     1       0.694  -1.081  -2.255  0.00  0.00    +0.005 A 
ATOM      4  C   UNL     1       0.508  -2.424  -2.053  0.00  0.00    +0.029 A 
ATOM      5  C   UNL     1       0.571  -2.975  -0.752  0.00  0.00    +0.080 A 
ATOM      6  C   UNL     1       0.833  -2.066   0.298  0.00  0.00    +0.041 A 
ATOM      7  C   UNL     1       1.023  -0.723   0.086  0.00  0.00    +0.020 A 
ATOM      8  S   UNL     1       0.832  -3.126   1.724  0.00  0.00    -0.052 S 
ATOM      9  C   UNL     1       0.495  -4.657   0.866  0.00  0.00    +0.168 A 
ATOM     10  N   UNL     1       0.413  -4.265  -0.384  0.00  0.00    -0.224 NA
ATOM     11  N   UNL     1       0.356  -5.933   1.387  0.00  0.00    -0.252 N 
ATOM     12  C   UNL     1       0.435  -6.130   2.718  0.00  0.00    +0.226 C 
ATOM     13  O   UNL     1       0.395  -7.255   3.168  0.00  0.00    -0.275 OA
ENDROOT
BRANCH  12  14
ATOM     14  C   UNL     1       0.574  -4.951   3.647  0.00  0.00    +0.091 C 
ATOM     15  C   UNL     1      -0.744  -4.174   3.687  0.00  0.00    +0.015 C 
ATOM     16  C   UNL     1      -0.595  -2.959   4.604  0.00  0.00    +0.018 C 
ATOM     17  C   UNL     1      -0.270  -3.433   6.024  0.00  0.00    +0.109 C 
ATOM     18  N   UNL     1       0.915  -4.300   5.974  0.00  0.00    -0.175 NA
ATOM     19  C   UNL     1       0.913  -5.447   5.056  0.00  0.00    +0.122 C 
BRANCH  18  20
ATOM     20  S   UNL     1       2.229  -3.990   6.933  0.00  0.00    +0.067 S 
ATOM     21  O   UNL     1       3.348  -4.591   6.295  0.00  0.00    -0.152 OA
ATOM     22  O   UNL     1       2.184  -2.606   7.248  0.00  0.00    -0.152 OA
BRANCH  20  23
ATOM     23  C   UNL     1       1.986  -4.860   8.446  0.00  0.00    +0.144 A 
ATOM     24  C   UNL     1       2.365  -6.118   8.777  0.00  0.00    +0.038 A 
ATOM     25  C   UNL     1       2.064  -6.599  10.038  0.00  0.00    +0.030 A 
ATOM     26  C   UNL     1       1.398  -5.797  10.906  0.00  0.00    +0.080 A 
ATOM     27  S   UNL     1       1.183  -4.309   9.942  0.00  0.00    -0.057 S 
ATOM     28 CL   UNL     1       0.892  -6.128  12.533  0.00  0.00    -0.076 Cl
ENDBRANCH  20  23
ENDBRANCH  18  20
ENDBRANCH  12  14
BRANCH  11  29
ATOM     29  C   UNL     1       0.124  -7.069   0.491  0.00  0.00    +0.097 C 
BRANCH  29  30
ATOM     30  C   UNL     1       1.465  -7.690   0.097  0.00  0.00    -0.060 C 
BRANCH  30  31
ATOM     31  N   UNL     1       1.242  -8.740  -0.906  0.00  0.00    +0.377 N 
ATOM     32  C   UNL     1       2.537  -9.254  -1.373  0.00  0.00    -0.097 C 
ATOM     33  C   UNL     1       0.468  -9.835  -0.306  0.00  0.00    -0.097 C 
ATOM     34  H   UNL     1       0.732  -8.356  -1.687  0.00  0.00    -0.083 HD
ENDBRANCH  30  31
ENDBRANCH  29  30
ENDBRANCH  11  29
TORSDOF 6
