REMARK  Name = ZINC02746246
REMARK  6 active torsions:
REMARK  status: ('A' for Active; 'I' for Inactive)
REMARK    1  A    between atoms: C_4  and  C_7
REMARK    2  A    between atoms: C_7  and  C_8
REMARK    3  A    between atoms: C_8  and  N_9
REMARK    4  A    between atoms: C_19  and  S_22
REMARK    5  A    between atoms: S_22  and  C_23
REMARK    6  A    between atoms: C_23  and  C_24
REMARK                            x       y       z     vdW  Elec       q    Type
REMARK                         _______ _______ _______ _____ _____    ______ ____
ROOT
ATOM      1  N   UNL     1      -2.541   1.314   0.021  0.00  0.00    -0.323 N 
ATOM      2  C   UNL     1      -1.227   1.754   0.017  0.00  0.00    +0.053 A 
ATOM      3  C   UNL     1      -0.013   1.076   0.008  0.00  0.00    +0.026 A 
ATOM      4  C   UNL     1       1.172   1.781   0.000  0.00  0.00    +0.002 A 
ATOM      5  C   UNL     1       1.168   3.167   0.007  0.00  0.00    +0.001 A 
ATOM      6  C   UNL     1      -0.025   3.857   0.021  0.00  0.00    +0.012 A 
ATOM      7  C   UNL     1      -1.229   3.157   0.029  0.00  0.00    +0.029 A 
ATOM      8  C   UNL     1      -2.643   3.570   0.044  0.00  0.00    +0.138 A 
ATOM      9  C   UNL     1      -3.403   2.382   0.030  0.00  0.00    +0.165 A 
ATOM     10  N   UNL     1      -4.729   2.482   0.036  0.00  0.00    -0.201 NA
ATOM     11  C   UNL     1      -5.289   3.684   0.070  0.00  0.00    +0.212 A 
ATOM     12  N   UNL     1      -4.552   4.789   0.068  0.00  0.00    -0.122 NA
ATOM     13  N   UNL     1      -3.264   4.741   0.055  0.00  0.00    -0.143 NA
ENDROOT
BRANCH   1  14
ATOM     14  C   UNL     1      -2.951  -0.092   0.016  0.00  0.00    +0.128 C 
BRANCH  14  15
ATOM     15  C   UNL     1      -3.088  -0.588   1.457  0.00  0.00    +0.057 C 
BRANCH  15  19
ATOM     16  C   UNL     1      -4.286  -4.689   1.443  0.00  0.00    +0.000 A 
ATOM     17  C   UNL     1      -2.943  -4.361   1.439  0.00  0.00    +0.000 A 
ATOM     18  C   UNL     1      -2.556  -3.034   1.443  0.00  0.00    +0.004 A 
ATOM     19  C   UNL     1      -3.511  -2.035   1.452  0.00  0.00    -0.046 A 
ATOM     20  C   UNL     1      -4.854  -2.363   1.462  0.00  0.00    +0.004 A 
ATOM     21  C   UNL     1      -5.242  -3.690   1.452  0.00  0.00    +0.000 A 
ENDBRANCH  15  19
ENDBRANCH  14  15
ENDBRANCH   1  14
BRANCH  11  22
ATOM     22  S   UNL     1      -7.046   3.818   0.087  0.00  0.00    -0.075 S 
BRANCH  22  23
ATOM     23  C   UNL     1      -7.224   5.619   0.096  0.00  0.00    +0.173 C 
BRANCH  23  24
ATOM     24  C   UNL     1      -8.687   5.979   0.112  0.00  0.00    +0.229 C 
ATOM     25  O   UNL     1      -9.527   5.104   0.116  0.00  0.00    -0.275 OA
ATOM     26  N   UNL     1      -9.063   7.274   0.121  0.00  0.00    -0.264 N 
ATOM     27  C   UNL     1     -10.412   7.606   0.135  0.00  0.00    +0.165 A 
ATOM     28  N   UNL     1     -11.461   6.809   0.135  0.00  0.00    -0.229 NA
ATOM     29  C   UNL     1     -12.707   7.277   0.154  0.00  0.00    +0.054 A 
ATOM     30  C   UNL     1     -12.835   8.629   0.161  0.00  0.00    +0.014 A 
ATOM     31  S   UNL     1     -11.150   9.180   0.149  0.00  0.00    -0.057 S 
ATOM     32  C   UNL     1     -14.093   9.428   0.175  0.00  0.00    +0.044 C 
ATOM     33  C   UNL     1     -15.260   8.496  -0.187  0.00  0.00    +0.006 C 
ATOM     34  C   UNL     1     -15.140   7.213   0.641  0.00  0.00    +0.006 C 
ATOM     35  C   UNL     1     -13.945   6.388   0.162  0.00  0.00    +0.056 C 
ATOM     36  H   UNL     1      -8.391   7.973   0.117  0.00  0.00    +0.157 HD
ENDBRANCH  23  24
ENDBRANCH  22  23
ENDBRANCH  11  22
TORSDOF 6
