REMARK  Name = ZINC28795766
REMARK  3 active torsions:
REMARK  status: ('A' for Active; 'I' for Inactive)
REMARK    1  A    between atoms: C_4  and  N_26
REMARK    2  A    between atoms: C_5  and  C_7
REMARK    3  A    between atoms: C_10  and  C_12
REMARK                            x       y       z     vdW  Elec       q    Type
REMARK                         _______ _______ _______ _____ _____    ______ ____
ROOT
ATOM      1  C   UNL     1       2.353  -5.401  -1.300  0.00  0.00    +0.244 C 
ATOM      2  N   UNL     1       2.429  -5.117  -2.745  0.00  0.00    -0.292 N 
ATOM      3  C   UNL     1       3.481  -4.334  -3.198  0.00  0.00    +0.159 C 
ATOM      4  N   UNL     1       3.285  -3.288  -3.948  0.00  0.00    -0.375 N 
ATOM      5  N   UNL     1       4.761  -4.729  -2.805  0.00  0.00    -0.259 N 
ATOM      6  C   UNL     1       4.843  -5.293  -1.536  0.00  0.00    +0.205 A 
ATOM      7  N   UNL     1       3.719  -5.624  -0.814  0.00  0.00    -0.285 N 
ATOM      8  C   UNL     1       4.142  -6.161   0.368  0.00  0.00    +0.072 A 
ATOM      9  C   UNL     1       3.466  -6.672   1.470  0.00  0.00    +0.028 A 
ATOM     10  C   UNL     1       4.237  -7.144   2.520  0.00  0.00    +0.002 A 
ATOM     11  C   UNL     1       5.620  -7.115   2.486  0.00  0.00    +0.002 A 
ATOM     12  C   UNL     1       6.316  -6.613   1.401  0.00  0.00    +0.030 A 
ATOM     13  C   UNL     1       5.558  -6.130   0.329  0.00  0.00    +0.091 A 
ATOM     14  N   UNL     1       5.916  -5.589  -0.853  0.00  0.00    -0.214 NA
ATOM     15  H   UNL     1       1.765  -5.467  -3.360  0.00  0.00    +0.151 HD
ATOM     16  H   UNL     1       5.537  -4.618  -3.377  0.00  0.00    +0.158 HD
ATOM     17  H   UNL     1       2.384  -3.037  -4.206  0.00  0.00    +0.158 HD
ATOM     18  H   UNL     1       4.040  -2.759  -4.250  0.00  0.00    +0.158 HD
ENDROOT
BRANCH   1  22
ATOM     19  C   UNL     1       1.250  -2.160  -0.023  0.00  0.00    +0.138 A 
ATOM     20  C   UNL     1       0.561  -2.976   0.819  0.00  0.00    +0.050 A 
ATOM     21  C   UNL     1       0.882  -4.299   0.454  0.00  0.00    +0.049 A 
ATOM     22  C   UNL     1       1.740  -4.226  -0.582  0.00  0.00    +0.147 A 
ATOM     23  O   UNL     1       1.957  -2.932  -0.870  0.00  0.00    -0.456 OA
BRANCH  19  28
ATOM     24  C   UNL     1      -0.017   1.375   0.010  0.00  0.00    +0.001 A 
ATOM     25  C   UNL     1       1.170   2.086   0.002  0.00  0.00    +0.002 A 
ATOM     26  C   UNL     1       2.383   1.420  -0.013  0.00  0.00    +0.033 A 
ATOM     27  C   UNL     1       2.416   0.041  -0.021  0.00  0.00    +0.137 A 
ATOM     28  C   UNL     1       1.222  -0.682  -0.014  0.00  0.00    +0.047 A 
ATOM     29  C   UNL     1       0.002  -0.004   0.002  0.00  0.00    +0.014 A 
BRANCH  27  30
ATOM     30  N   UNL     1       3.714  -0.670  -0.038  0.00  0.00    +0.057 N 
ATOM     31  O   UNL     1       4.747  -0.042  -0.045  0.00  0.00    -0.126 OA
ATOM     32  O   UNL     1       3.741  -1.879  -0.045  0.00  0.00    -0.126 OA
ENDBRANCH  27  30
ENDBRANCH  19  28
ENDBRANCH   1  22
TORSDOF 3
