REMARK  Name = ZINC21172721
REMARK  12 active torsions:
REMARK  status: ('A' for Active; 'I' for Inactive)
REMARK    1  A    between atoms: C_1  and  C_2
REMARK    2  A    between atoms: C_2  and  N_3
REMARK    3  A    between atoms: C_4  and  C_21
REMARK    4  A    between atoms: C_7  and  S_8
REMARK    5  A    between atoms: S_8  and  C_9
REMARK    6  A    between atoms: C_9  and  C_10
REMARK    7  A    between atoms: N_12  and  C_13
REMARK    8  A    between atoms: C_13  and  C_19
REMARK    9  A    between atoms: C_24  and  C_27
REMARK   10  A    between atoms: C_27  and  C_28
REMARK   11  A    between atoms: C_27  and  C_29
REMARK   12  A    between atoms: C_27  and  C_30
REMARK                            x       y       z     vdW  Elec       q    Type
REMARK                         _______ _______ _______ _____ _____    ______ ____
ROOT
ATOM      1  N   UNL     1      -1.079  -0.836  -0.179  0.00  0.00    -0.302 N 
ATOM      2  C   UNL     1       0.003  -0.004  -0.002  0.00  0.00    +0.165 A 
ATOM      3  N   UNL     1       1.054  -0.771   0.169  0.00  0.00    -0.128 NA
ATOM      4  N   UNL     1       0.710  -2.007   0.107  0.00  0.00    -0.122 NA
ATOM      5  C   UNL     1      -0.583  -2.106  -0.107  0.00  0.00    +0.192 A 
ENDROOT
BRANCH   2   6
ATOM      6  C   UNL     1      -0.017   1.474   0.001  0.00  0.00    +0.019 A 
ATOM      7  C   UNL     1      -1.082   2.163  -0.582  0.00  0.00    +0.012 A 
ATOM      8  C   UNL     1      -1.096   3.542  -0.570  0.00  0.00    +0.005 A 
ATOM      9  C   UNL     1      -0.053   4.243   0.008  0.00  0.00    -0.042 A 
ATOM     10  C   UNL     1       1.009   3.567   0.582  0.00  0.00    +0.005 A 
ATOM     11  C   UNL     1       1.033   2.188   0.582  0.00  0.00    +0.012 A 
BRANCH   9  12
ATOM     12  C   UNL     1      -0.073   5.750   0.012  0.00  0.00    -0.013 C 
ATOM     13  C   UNL     1       1.153   6.278  -0.737  0.00  0.00    +0.015 C 
ATOM     14  C   UNL     1      -1.345   6.245  -0.679  0.00  0.00    +0.015 C 
ATOM     15  C   UNL     1      -0.046   6.257   1.455  0.00  0.00    +0.015 C 
ENDBRANCH   9  12
ENDBRANCH   2   6
BRANCH   1  17
ATOM     16  C   UNL     1      -2.761  -0.413  -1.903  0.00  0.00    +0.027 C 
ATOM     17  C   UNL     1      -2.472  -0.441  -0.401  0.00  0.00    +0.122 C 
ENDBRANCH   1  17
BRANCH   5  18
ATOM     18  S   UNL     1      -1.506  -3.599  -0.266  0.00  0.00    -0.077 S 
BRANCH  18  19
ATOM     19  C   UNL     1      -0.180  -4.812  -0.051  0.00  0.00    +0.173 C 
BRANCH  19  20
ATOM     20  C   UNL     1      -0.751  -6.203  -0.151  0.00  0.00    +0.224 C 
ATOM     21  O   UNL     1      -1.937  -6.359  -0.348  0.00  0.00    -0.275 OA
ATOM     22  N   UNL     1       0.057  -7.274  -0.021  0.00  0.00    -0.297 N 
ATOM     23  H   UNL     1       1.133  -7.133   0.157  0.00  0.00    +0.150 HD
BRANCH  22  24
ATOM     24  C   UNL     1      -0.498  -8.626  -0.118  0.00  0.00    +0.121 C 
ATOM     25  C   UNL     1      -1.552  -8.824   0.973  0.00  0.00    +0.041 C 
ATOM     26  C   UNL     1      -2.132 -10.237   0.872  0.00  0.00    +0.003 C 
ATOM     27  C   UNL     1      -1.011 -11.262   1.053  0.00  0.00    +0.000 C 
ATOM     28  C   UNL     1       0.043 -11.064  -0.038  0.00  0.00    +0.003 C 
ATOM     29  C   UNL     1       0.623  -9.652   0.063  0.00  0.00    +0.041 C 
BRANCH  24  30
ATOM     30  C   UNL     1      -1.120  -8.808  -1.440  0.00  0.00    +0.088 C 
ATOM     31  N   UNL     1      -1.600  -8.948  -2.460  0.00  0.00    -0.194 NA
ENDBRANCH  24  30
ENDBRANCH  22  24
ENDBRANCH  19  20
ENDBRANCH  18  19
ENDBRANCH   5  18
TORSDOF 8
