REMARK  Name = ZINC05582967
REMARK  4 active torsions:
REMARK  status: ('A' for Active; 'I' for Inactive)
REMARK    1  A    between atoms: C_1  and  C_2
REMARK    2  A    between atoms: C_10  and  O_31
REMARK    3  A    between atoms: C_21  and  C_22
REMARK    4  A    between atoms: C_28  and  O_30
REMARK                            x       y       z     vdW  Elec       q    Type
REMARK                         _______ _______ _______ _____ _____    ______ ____
ROOT
ATOM      1  C   UNL     1      -3.781   5.165   2.536  0.00  0.00    +0.014 C 
ATOM      2  C   UNL     1      -4.735   5.169   1.341  0.00  0.00    +0.001 C 
ATOM      3  C   UNL     1      -5.090   3.745   0.968  0.00  0.00    +0.010 C 
ATOM      4  C   UNL     1      -3.757   2.993   0.724  0.00  0.00    +0.009 C 
ATOM      5  C   UNL     1      -2.939   3.687  -0.355  0.00  0.00    +0.023 C 
ATOM      6  C   UNL     1      -1.641   2.981  -0.617  0.00  0.00    -0.041 A 
ATOM      7  C   UNL     1      -1.613   1.597  -0.518  0.00  0.00    +0.008 A 
ATOM      8  C   UNL     1      -0.449   0.898  -0.757  0.00  0.00    +0.046 A 
ATOM      9  C   UNL     1       0.704   1.585  -1.109  0.00  0.00    +0.117 A 
ATOM     10  C   UNL     1       0.677   2.965  -1.208  0.00  0.00    +0.049 A 
ATOM     11  C   UNL     1      -0.494   3.668  -0.959  0.00  0.00    -0.040 A 
ATOM     12  C   UNL     1      -0.443   5.170  -1.066  0.00  0.00    +0.036 C 
ATOM     13  C   UNL     1      -1.847   5.769  -1.133  0.00  0.00    +0.009 C 
ATOM     14  C   UNL     1      -2.682   5.159  -0.007  0.00  0.00    +0.001 C 
ATOM     15  C   UNL     1      -4.036   5.825   0.116  0.00  0.00    +0.005 C 
ATOM     16  C   UNL     1      -4.034   7.299   0.532  0.00  0.00    +0.037 C 
ATOM     17  C   UNL     1      -5.422   7.489   1.145  0.00  0.00    -0.040 C 
ATOM     18  C   UNL     1      -6.088   8.631   1.250  0.00  0.00    +0.010 C 
ATOM     19  C   UNL     1      -5.896   6.117   1.615  0.00  0.00    +0.147 C 
ENDROOT
BRANCH  18  20
ATOM     20  C   UNL     1      -5.430   9.905   0.893  0.00  0.00    -0.022 A 
ATOM     21  C   UNL     1      -4.044  10.059   1.018  0.00  0.00    +0.027 A 
ATOM     22  C   UNL     1      -3.471  11.264   0.670  0.00  0.00    +0.111 A 
ATOM     23  N   UNL     1      -4.211  12.266   0.235  0.00  0.00    -0.263 NA
ATOM     24  C   UNL     1      -5.521  12.165   0.107  0.00  0.00    +0.111 A 
ATOM     25  C   UNL     1      -6.176  10.994   0.428  0.00  0.00    +0.027 A 
ENDBRANCH  18  20
BRANCH  19  26
ATOM     26  O   UNL     1      -6.190   6.147   3.013  0.00  0.00    -0.387 OA
ATOM     27  H   UNL     1      -6.921   6.734   3.249  0.00  0.00    +0.210 HD
ENDBRANCH  19  26
BRANCH   9  28
ATOM     28  O   UNL     1       1.855   0.905  -1.355  0.00  0.00    -0.507 OA
ATOM     29  H   UNL     1       1.967   0.643  -2.279  0.00  0.00    +0.292 HD
ENDBRANCH   9  28
TORSDOF 3
