REMARK  Name = ZINC01570260
REMARK  4 active torsions:
REMARK  status: ('A' for Active; 'I' for Inactive)
REMARK    1  A    between atoms: C_1  and  C_2
REMARK    2  A    between atoms: C_2  and  C_11
REMARK    3  A    between atoms: C_8  and  C_9
REMARK    4  A    between atoms: C_8  and  C_10
REMARK                            x       y       z     vdW  Elec       q    Type
REMARK                         _______ _______ _______ _____ _____    ______ ____
ROOT
ATOM      1  C   UNL     1       3.173   0.710   1.233  0.00  0.00    +0.020 C 
ATOM      2  C   UNL     1       2.289   0.706  -0.016  0.00  0.00    +0.036 C 
ATOM      3  C   UNL     1       1.343   1.889  -0.001  0.00  0.00    +0.039 C 
ATOM      4  C   UNL     1       1.678   3.177   0.003  0.00  0.00    +0.020 C 
ATOM      5  C   UNL     1      -0.016   1.334   0.009  0.00  0.00    +0.336 C 
ATOM      6  O   UNL     1      -1.029   2.005   0.018  0.00  0.00    -0.245 OA
ATOM      7  O   UNL     1       0.002  -0.004   0.002  0.00  0.00    -0.454 OA
ATOM      8  C   UNL     1       1.359  -0.518  -0.014  0.00  0.00    +0.117 C 
ATOM      9  C   UNL     1       1.612  -1.367   1.233  0.00  0.00    +0.056 C 
ATOM     10  C   UNL     1       1.588  -1.355  -1.274  0.00  0.00    +0.056 C 
ATOM     11  C   UNL     1       3.149   0.724  -1.282  0.00  0.00    +0.020 C 
ENDROOT
TORSDOF 0
