REMARK  Name = ZINC12410610
REMARK  16 active torsions:
REMARK  status: ('A' for Active; 'I' for Inactive)
REMARK    1  A    between atoms: C_1  and  C_2
REMARK    2  A    between atoms: C_2  and  N_65
REMARK    3  A    between atoms: C_3  and  C_4
REMARK    4  A    between atoms: C_3  and  N_65
REMARK    5  A    between atoms: C_5  and  C_6
REMARK    6  A    between atoms: C_5  and  N_65
REMARK    7  A    between atoms: C_6  and  C_7
REMARK    8  A    between atoms: C_7  and  C_8
REMARK    9  A    between atoms: C_8  and  C_10
REMARK   10  A    between atoms: C_8  and  N_11
REMARK   11  A    between atoms: C_19  and  N_20
REMARK   12  A    between atoms: N_20  and  C_21
REMARK   13  A    between atoms: C_21  and  C_22
REMARK   14  A    between atoms: C_22  and  C_23
REMARK   15  A    between atoms: C_26  and  S_29
REMARK   16  A    between atoms: S_29  and  N_32
REMARK                            x       y       z     vdW  Elec       q    Type
REMARK                         _______ _______ _______ _____ _____    ______ ____
ROOT
ATOM      1  N   UNL     1       3.908  -2.632   1.073  0.00  0.00    -0.312 N 
ATOM      2  C   UNL     1       4.902  -1.702   1.140  0.00  0.00    +0.201 A 
ATOM      3  N   UNL     1       4.400  -0.533   1.417  0.00  0.00    -0.231 NA
ATOM      4  C   UNL     1       3.055  -0.637   1.538  0.00  0.00    +0.147 A 
ATOM      5  C   UNL     1       2.723  -1.986   1.325  0.00  0.00    +0.166 A 
ATOM      6  N   UNL     1       1.449  -2.357   1.395  0.00  0.00    -0.216 NA
ATOM      7  C   UNL     1       0.508  -1.476   1.665  0.00  0.00    +0.225 A 
ATOM      8  N   UNL     1       0.772  -0.200   1.878  0.00  0.00    -0.219 NA
ATOM      9  C   UNL     1       2.017   0.263   1.829  0.00  0.00    +0.150 A 
ENDROOT
BRANCH   1  10
ATOM     10  C   UNL     1       4.073  -4.058   0.785  0.00  0.00    +0.087 C 
ATOM     11  C   UNL     1       4.976  -4.692   1.845  0.00  0.00    +0.031 C 
BRANCH  10  12
ATOM     12  C   UNL     1       4.709  -4.229  -0.596  0.00  0.00    +0.023 C 
BRANCH  12  13
ATOM     13  C   UNL     1       4.768  -5.716  -0.951  0.00  0.00    -0.017 C 
BRANCH  13  14
ATOM     14  C   UNL     1       5.404  -5.887  -2.331  0.00  0.00    -0.079 C 
BRANCH  14  15
ATOM     15  N   UNL     1       5.473  -7.329  -2.650  0.00  0.00    +0.379 N 
ATOM     16  H   UNL     1       5.922  -7.822  -1.869  0.00  0.00    -0.082 HD
BRANCH  15  18
ATOM     17  C   UNL     1       3.396  -7.142  -3.978  0.00  0.00    -0.017 C 
ATOM     18  C   UNL     1       4.110  -7.870  -2.838  0.00  0.00    -0.082 C 
ENDBRANCH  15  18
BRANCH  15  19
ATOM     19  C   UNL     1       6.273  -7.538  -3.875  0.00  0.00    -0.082 C 
ATOM     20  C   UNL     1       6.635  -9.021  -3.978  0.00  0.00    -0.017 C 
ENDBRANCH  15  19
ENDBRANCH  14  15
ENDBRANCH  13  14
ENDBRANCH  12  13
ENDBRANCH  10  12
ENDBRANCH   1  10
BRANCH   9  21
ATOM     21  N   UNL     1       2.283   1.603   2.054  0.00  0.00    -0.327 N 
ATOM     22  H   UNL     1       2.891   1.693   2.843  0.00  0.00    +0.148 HD
BRANCH  21  23
ATOM     23  C   UNL     1       1.186   2.529   2.345  0.00  0.00    +0.107 C 
BRANCH  23  24
ATOM     24  C   UNL     1       1.748   3.937   2.552  0.00  0.00    +0.054 C 
BRANCH  24  25
ATOM     25  C   UNL     1       0.620   4.890   2.850  0.00  0.00    -0.046 A 
ATOM     26  C   UNL     1      -0.017   5.552   1.817  0.00  0.00    +0.005 A 
ATOM     27  C   UNL     1      -1.055   6.423   2.091  0.00  0.00    +0.029 A 
ATOM     28  C   UNL     1      -1.451   6.638   3.397  0.00  0.00    +0.105 A 
ATOM     29  C   UNL     1      -0.811   5.980   4.431  0.00  0.00    +0.029 A 
ATOM     30  C   UNL     1       0.225   5.106   4.157  0.00  0.00    +0.005 A 
BRANCH  28  31
ATOM     31  S   UNL     1      -2.771   7.752   3.746  0.00  0.00    +0.056 S 
ATOM     32  O   UNL     1      -3.563   7.824   2.568  0.00  0.00    -0.153 OA
ATOM     33  O   UNL     1      -3.309   7.363   5.003  0.00  0.00    -0.153 OA
BRANCH  31  34
ATOM     34  N   UNL     1      -2.103   9.252   3.961  0.00  0.00    -0.204 NA
ATOM     35  H   UNL     1      -1.143   9.371   3.883  0.00  0.00    +0.144 HD
ATOM     36  H   UNL     1      -2.671  10.011   4.164  0.00  0.00    +0.144 HD
ENDBRANCH  31  34
ENDBRANCH  28  31
ENDBRANCH  24  25
ENDBRANCH  23  24
ENDBRANCH  21  23
ENDBRANCH   9  21
TORSDOF 13
