REMARK  Name = ZINC38120536
REMARK  3 active torsions:
REMARK  status: ('A' for Active; 'I' for Inactive)
REMARK    1  A    between atoms: C_1  and  C_2
REMARK    2  A    between atoms: C_8  and  C_9
REMARK    3  A    between atoms: C_8  and  N_11
REMARK                            x       y       z     vdW  Elec       q    Type
REMARK                         _______ _______ _______ _____ _____    ______ ____
ROOT
ATOM      1  C   UNL     1      -0.450   1.261  -0.021  0.00  0.00    +0.006 C 
ATOM      2  C   UNL     1      -0.204  -0.244   0.094  0.00  0.00    -0.022 C 
ATOM      3  C   UNL     1      -1.510  -0.947   0.471  0.00  0.00    +0.002 C 
ATOM      4  C   UNL     1      -1.265  -2.453   0.586  0.00  0.00    +0.000 C 
ATOM      5  C   UNL     1      -0.213  -2.717   1.665  0.00  0.00    -0.001 C 
ATOM      6  C   UNL     1       1.093  -2.015   1.288  0.00  0.00    -0.009 C 
ATOM      7  C   UNL     1       0.848  -0.509   1.173  0.00  0.00    -0.036 C 
ENDROOT
BRANCH   7   8
ATOM      8  N   UNL     1       2.101   0.165   0.811  0.00  0.00    +0.387 N 
ATOM      9  C   UNL     1       3.136  -0.161   1.801  0.00  0.00    -0.063 C 
ATOM     10  C   UNL     1       4.437   0.556   1.434  0.00  0.00    +0.062 C 
ATOM     11  N   UNL     1       4.866   0.132   0.094  0.00  0.00    -0.319 NA
ATOM     12  C   UNL     1       3.829   0.430  -0.905  0.00  0.00    +0.062 C 
ATOM     13  C   UNL     1       2.533  -0.286  -0.519  0.00  0.00    -0.063 C 
ATOM     14  H   UNL     1       5.744   0.561  -0.158  0.00  0.00    +0.122 HD
ATOM     15  H   UNL     1       1.954   1.163   0.795  0.00  0.00    -0.081 HD
ENDBRANCH   7   8
BRANCH   7  16
ATOM     16  C   UNL     1       0.348   0.030   2.515  0.00  0.00    +0.190 C 
ATOM     17  O   UNL     1       0.277   1.456   2.459  0.00  0.00    -0.236 OA
ENDBRANCH   7  16
TORSDOF 2
