REMARK  Name = ZINC16530480
REMARK  12 active torsions:
REMARK  status: ('A' for Active; 'I' for Inactive)
REMARK    1  A    between atoms: C_1  and  C_2
REMARK    2  A    between atoms: C_2  and  O_3
REMARK    3  A    between atoms: O_3  and  C_4
REMARK    4  A    between atoms: C_4  and  C_5
REMARK    5  A    between atoms: C_5  and  C_6
REMARK    6  A    between atoms: C_6  and  N_7
REMARK    7  A    between atoms: N_7  and  C_8
REMARK    8  A    between atoms: C_8  and  C_9
REMARK    9  A    between atoms: C_19  and  C_21
REMARK   10  A    between atoms: C_26  and  C_27
REMARK   11  A    between atoms: C_28  and  C_30
REMARK   12  A    between atoms: C_33  and  N_36
REMARK                            x       y       z     vdW  Elec       q    Type
REMARK                         _______ _______ _______ _____ _____    ______ ____
ROOT
ATOM      1  C   UNL     1      -1.025   5.499   1.595  0.00  0.00    +0.204 C 
ENDROOT
BRANCH   1   2
ATOM      2  C   UNL     1      -0.013   4.497   1.102  0.00  0.00    +0.234 C 
ATOM      3  O   UNL     1       1.046   4.370   1.679  0.00  0.00    -0.274 OA
ATOM      4  N   UNL     1      -0.285   3.742   0.019  0.00  0.00    -0.289 N 
ATOM      5  C   UNL     1      -1.565   3.888  -0.689  0.00  0.00    +0.114 C 
ATOM      6  C   UNL     1      -1.277   4.419  -2.102  0.00  0.00    +0.062 C 
ATOM      7  C   UNL     1      -0.100   3.686  -2.658  0.00  0.00    -0.003 A 
ATOM      8  C   UNL     1       0.813   2.936  -1.983  0.00  0.00    -0.012 A 
ATOM      9  C   UNL     1       1.830   2.357  -2.741  0.00  0.00    +0.013 A 
ATOM     10  C   UNL     1       1.871   2.551  -4.079  0.00  0.00    +0.046 A 
ATOM     11  S   UNL     1       0.442   3.590  -4.344  0.00  0.00    -0.101 S 
ATOM     12  C   UNL     1       0.694   2.761  -0.470  0.00  0.00    +0.138 C 
BRANCH  12  13
ATOM     13  C   UNL     1       0.220   1.366  -0.154  0.00  0.00    -0.020 A 
ATOM     14  C   UNL     1      -0.853   0.828  -0.840  0.00  0.00    +0.006 A 
ATOM     15  C   UNL     1      -1.287  -0.452  -0.549  0.00  0.00    +0.000 A 
ATOM     16  C   UNL     1      -0.648  -1.194   0.427  0.00  0.00    +0.000 A 
ATOM     17  C   UNL     1       0.425  -0.655   1.113  0.00  0.00    +0.004 A 
ATOM     18  C   UNL     1       0.859   0.625   0.822  0.00  0.00    -0.045 A 
ATOM     19  C   UNL     1       2.028   1.212   1.570  0.00  0.00    +0.044 C 
ENDBRANCH  12  13
ENDBRANCH   1   2
BRANCH   1  20
ATOM     20  N   UNL     1      -0.495   6.187   2.775  0.00  0.00    -0.289 N 
ATOM     21  C   UNL     1      -0.725   5.688   4.005  0.00  0.00    +0.247 C 
ATOM     22  O   UNL     1      -1.467   4.736   4.146  0.00  0.00    -0.270 OA
BRANCH  21  23
ATOM     23  C   UNL     1      -0.075   6.299   5.184  0.00  0.00    +0.037 A 
ATOM     24  C   UNL     1       0.243   7.658   5.184  0.00  0.00    +0.015 A 
ATOM     25  C   UNL     1       0.844   8.223   6.290  0.00  0.00    +0.033 A 
ATOM     26  C   UNL     1       1.143   7.443   7.392  0.00  0.00    +0.126 A 
ATOM     27  C   UNL     1       0.836   6.094   7.397  0.00  0.00    +0.033 A 
ATOM     28  C   UNL     1       0.229   5.518   6.300  0.00  0.00    +0.015 A 
BRANCH  26  29
ATOM     29  N   UNL     1       1.794   8.055   8.573  0.00  0.00    +0.056 N 
ATOM     30  O   UNL     1       2.058   7.371   9.545  0.00  0.00    -0.126 OA
ATOM     31  O   UNL     1       2.065   9.242   8.572  0.00  0.00    -0.126 OA
ENDBRANCH  26  29
ENDBRANCH  21  23
BRANCH  20  32
ATOM     32  C   UNL     1       0.284   7.418   2.617  0.00  0.00    +0.111 C 
BRANCH  32  33
ATOM     33  C   UNL     1      -0.666   8.601   2.420  0.00  0.00    +0.047 C 
BRANCH  33  34
ATOM     34  C   UNL     1       0.147   9.886   2.255  0.00  0.00    +0.161 C 
BRANCH  34  35
ATOM     35  O   UNL     1      -0.740  10.991   2.071  0.00  0.00    -0.380 OA
BRANCH  35  37
ATOM     36  C   UNL     1      -1.119  13.352   1.718  0.00  0.00    +0.034 C 
ATOM     37  C   UNL     1      -0.077  12.247   1.906  0.00  0.00    +0.156 C 
ENDBRANCH  35  37
ENDBRANCH  34  35
ENDBRANCH  33  34
ENDBRANCH  32  33
ENDBRANCH  20  32
ENDBRANCH   1  20
TORSDOF 10
