REMARK  Name = ZINC47047274
REMARK  4 active torsions:
REMARK  status: ('A' for Active; 'I' for Inactive)
REMARK    1  A    between atoms: C_1  and  N_2
REMARK    2  A    between atoms: N_2  and  C_3
REMARK    3  A    between atoms: C_3  and  C_4
REMARK    4  A    between atoms: C_11  and  C_13
REMARK                            x       y       z     vdW  Elec       q    Type
REMARK                         _______ _______ _______ _____ _____    ______ ____
ROOT
ATOM      1  C   UNL     1      -0.124   0.070  -2.445  0.00  0.00    +0.039 A 
ATOM      2  C   UNL     1       0.647   1.234  -2.587  0.00  0.00    +0.014 A 
ATOM      3  C   UNL     1       0.643   1.935  -3.754  0.00  0.00    +0.016 A 
ATOM      4  C   UNL     1      -0.138   1.494  -4.831  0.00  0.00    +0.065 A 
ATOM      5  C   UNL     1      -0.923   0.318  -4.702  0.00  0.00    +0.080 A 
ATOM      6  C   UNL     1      -0.901  -0.393  -3.493  0.00  0.00    +0.041 A 
ATOM      7  N   UNL     1      -1.664  -0.091  -5.742  0.00  0.00    -0.223 NA
ATOM      8  C   UNL     1      -1.669   0.588  -6.878  0.00  0.00    +0.180 A 
ATOM      9  N   UNL     1      -0.944   1.706  -7.051  0.00  0.00    -0.301 N 
ATOM     10  H   UNL     1      -0.979   2.171  -7.902  0.00  0.00    +0.171 HD
ATOM     11  C   UNL     1      -0.169   2.191  -6.058  0.00  0.00    +0.260 A 
ATOM     12  O   UNL     1       0.556   3.310  -6.232  0.00  0.00    -0.267 OA
ATOM     13  S   UNL     1      -2.633   0.021  -8.174  0.00  0.00    -0.011 S 
ENDROOT
BRANCH   1  16
ATOM     14  C   UNL     1      -0.027   1.460   0.011  0.00  0.00    +0.132 C 
ATOM     15  N   UNL     1       0.003  -0.004   0.002  0.00  0.00    -0.296 N 
ATOM     16  C   UNL     1      -0.102  -0.673  -1.163  0.00  0.00    +0.247 C 
ATOM     17  O   UNL     1      -0.178  -1.886  -1.163  0.00  0.00    -0.270 OA
BRANCH  15  18
ATOM     18  C   UNL     1       0.147  -0.742   1.260  0.00  0.00    +0.145 C 
BRANCH  18  19
ATOM     19  C   UNL     1      -1.216  -1.025   1.835  0.00  0.00    +0.005 A 
ATOM     20  C   UNL     1      -1.717  -0.230   2.849  0.00  0.00    +0.008 A 
ATOM     21  C   UNL     1      -2.968  -0.490   3.377  0.00  0.00    +0.000 A 
ATOM     22  C   UNL     1      -3.719  -1.544   2.892  0.00  0.00    +0.003 A 
ATOM     23  C   UNL     1      -3.221  -2.340   1.878  0.00  0.00    +0.038 A 
ATOM     24  C   UNL     1      -1.970  -2.077   1.345  0.00  0.00    +0.128 A 
ATOM     25  F   UNL     1      -1.483  -2.852   0.350  0.00  0.00    -0.205 F 
ENDBRANCH  18  19
ENDBRANCH  15  18
ENDBRANCH   1  16
TORSDOF 3
