REMARK  Name = ZINC37282221
REMARK  13 active torsions:
REMARK  status: ('A' for Active; 'I' for Inactive)
REMARK    1  A    between atoms: C_1  and  C_2
REMARK    2  A    between atoms: C_2  and  C_3
REMARK    3  A    between atoms: C_2  and  C_4
REMARK    4  A    between atoms: C_4  and  C_5
REMARK    5  A    between atoms: C_5  and  N_6
REMARK    6  A    between atoms: C_7  and  C_9
REMARK    7  A    between atoms: C_12  and  C_14
REMARK    8  A    between atoms: C_14  and  O_15
REMARK    9  A    between atoms: O_15  and  C_16
REMARK   10  A    between atoms: C_22  and  C_32
REMARK   11  A    between atoms: C_27  and  C_29
REMARK   12  A    between atoms: C_29  and  C_30
REMARK   13  A    between atoms: C_29  and  C_31
REMARK                            x       y       z     vdW  Elec       q    Type
REMARK                         _______ _______ _______ _____ _____    ______ ____
ROOT
ATOM      1  C   UNL     1     -11.038  -4.229  -0.413  0.00  0.00    +0.122 A 
ATOM      2  C   UNL     1     -12.137  -4.542   0.373  0.00  0.00    +0.046 A 
ATOM      3  C   UNL     1     -13.407  -4.263  -0.083  0.00  0.00    +0.007 A 
ATOM      4  C   UNL     1     -13.599  -3.668  -1.325  0.00  0.00    -0.040 A 
ATOM      5  C   UNL     1     -12.508  -3.348  -2.102  0.00  0.00    -0.016 A 
ATOM      6  C   UNL     1     -11.228  -3.629  -1.647  0.00  0.00    +0.051 A 
ATOM      7  C   UNL     1     -12.643  -2.675  -3.445  0.00  0.00    +0.137 C 
ATOM      8  N   UNL     1     -14.047  -2.696  -3.869  0.00  0.00    -0.290 N 
ATOM      9  C   UNL     1     -15.062  -2.348  -2.861  0.00  0.00    +0.113 C 
ATOM     10  C   UNL     1     -15.017  -3.408  -1.762  0.00  0.00    +0.054 C 
ATOM     11  C   UNL     1     -14.395  -3.021  -5.130  0.00  0.00    +0.219 C 
ATOM     12  O   UNL     1     -13.548  -3.388  -5.917  0.00  0.00    -0.275 OA
ENDROOT
BRANCH   7  13
ATOM     13  C   UNL     1     -12.173  -1.248  -3.341  0.00  0.00    -0.022 A 
ATOM     14  C   UNL     1     -11.194  -0.779  -4.197  0.00  0.00    +0.008 A 
ATOM     15  C   UNL     1     -10.762   0.531  -4.102  0.00  0.00    +0.038 A 
ATOM     16  C   UNL     1     -11.310   1.373  -3.149  0.00  0.00    +0.123 A 
ATOM     17  C   UNL     1     -12.290   0.902  -2.292  0.00  0.00    +0.038 A 
ATOM     18  C   UNL     1     -12.724  -0.406  -2.392  0.00  0.00    +0.008 A 
ATOM     19  F   UNL     1     -10.888   2.653  -3.055  0.00  0.00    -0.205 F 
ENDBRANCH   7  13
BRANCH  11  20
ATOM     20  C   UNL     1     -15.835  -2.928  -5.562  0.00  0.00    +0.069 C 
ATOM     21  C   UNL     1     -16.157  -1.485  -5.958  0.00  0.00    +0.017 C 
ATOM     22  C   UNL     1     -16.068  -3.849  -6.761  0.00  0.00    +0.017 C 
ENDBRANCH  11  20
BRANCH   1  23
ATOM     23  O   UNL     1      -9.782  -4.505   0.026  0.00  0.00    -0.483 OA
BRANCH  23  24
ATOM     24  C   UNL     1      -9.665  -5.124   1.309  0.00  0.00    +0.324 C 
BRANCH  24  28
ATOM     25  C   UNL     1      -6.194  -5.063   2.343  0.00  0.00    +0.164 A 
ATOM     26  C   UNL     1      -6.253  -6.290   1.758  0.00  0.00    +0.230 A 
ATOM     27  O   UNL     1      -7.511  -6.454   1.318  0.00  0.00    -0.444 OA
ATOM     28  C   UNL     1      -8.209  -5.352   1.626  0.00  0.00    +0.234 A 
ATOM     29  N   UNL     1      -7.434  -4.513   2.245  0.00  0.00    -0.206 NA
BRANCH  25  31
ATOM     30  N   UNL     1      -5.099  -3.221   3.521  0.00  0.00    -0.310 N 
ATOM     31  C   UNL     1      -5.010  -4.449   2.972  0.00  0.00    +0.266 C 
ATOM     32  O   UNL     1      -3.953  -5.050   2.994  0.00  0.00    -0.268 OA
ATOM     33  H   UNL     1      -5.942  -2.742   3.503  0.00  0.00    +0.149 HD
BRANCH  30  34
ATOM     34  C   UNL     1      -3.923  -2.611   4.145  0.00  0.00    +0.105 C 
BRANCH  34  35
ATOM     35  C   UNL     1      -4.293  -1.228   4.687  0.00  0.00    +0.022 C 
BRANCH  35  37
ATOM     36  C   UNL     1      -3.399   0.839   5.769  0.00  0.00    +0.007 C 
ATOM     37  C   UNL     1      -3.064  -0.591   5.339  0.00  0.00    -0.016 C 
ATOM     38  C   UNL     1      -2.655  -1.409   6.565  0.00  0.00    +0.007 C 
ENDBRANCH  35  37
ENDBRANCH  34  35
ENDBRANCH  30  34
ENDBRANCH  25  31
ENDBRANCH  24  28
ENDBRANCH  23  24
ENDBRANCH   1  23
TORSDOF 9
