REMARK  Name = ZINC42180227
REMARK  6 active torsions:
REMARK  status: ('A' for Active; 'I' for Inactive)
REMARK    1  A    between atoms: C_1  and  C_2
REMARK    2  A    between atoms: C_5  and  N_22
REMARK    3  A    between atoms: C_7  and  O_8
REMARK    4  A    between atoms: O_8  and  C_9
REMARK    5  A    between atoms: C_9  and  C_10
REMARK    6  A    between atoms: N_12  and  C_13
REMARK                            x       y       z     vdW  Elec       q    Type
REMARK                         _______ _______ _______ _____ _____    ______ ____
ROOT
ATOM      1  C   UNL     1       1.123  -0.608   5.202  0.00  0.00    +0.255 C 
ATOM      2  O   UNL     1       2.137   0.034   5.380  0.00  0.00    -0.272 OA
ATOM      3  N   UNL     1       0.064  -0.433   6.017  0.00  0.00    -0.280 N 
ATOM      4  H   UNL     1      -0.771  -0.892   5.832  0.00  0.00    +0.155 HD
ENDROOT
BRANCH   3   5
ATOM      5  C   UNL     1       0.168   0.409   7.131  0.00  0.00    +0.071 A 
ATOM      6  C   UNL     1      -0.165   1.754   7.020  0.00  0.00    +0.065 A 
ATOM      7  C   UNL     1      -0.062   2.583   8.121  0.00  0.00    +0.042 A 
ATOM      8  C   UNL     1       0.374   2.075   9.333  0.00  0.00    +0.044 A 
ATOM      9  C   UNL     1       0.707   0.737   9.446  0.00  0.00    +0.042 A 
ATOM     10  C   UNL     1       0.600  -0.099   8.350  0.00  0.00    +0.065 A 
ATOM     11 CL   UNL     1       1.011  -1.779   8.495  0.00  0.00    -0.082 Cl
ATOM     12 CL   UNL     1       0.504   3.120  10.713  0.00  0.00    -0.083 Cl
ATOM     13 CL   UNL     1      -0.710   2.391   5.500  0.00  0.00    -0.082 Cl
ENDBRANCH   3   5
BRANCH   1  14
ATOM     14  C   UNL     1       1.048  -1.600   4.070  0.00  0.00    +0.324 C 
BRANCH  14  15
ATOM     15  O   UNL     1       2.286  -1.603   3.357  0.00  0.00    -0.482 OA
BRANCH  15  22
ATOM     16  C   UNL     1       4.725  -1.624   1.932  0.00  0.00    +0.047 C 
ATOM     17  C   UNL     1       3.559  -2.503   1.560  0.00  0.00    -0.009 A 
ATOM     18  C   UNL     1       3.660  -3.368   0.487  0.00  0.00    +0.009 A 
ATOM     19  C   UNL     1       2.590  -4.174   0.145  0.00  0.00    +0.033 A 
ATOM     20  C   UNL     1       1.417  -4.118   0.875  0.00  0.00    +0.130 A 
ATOM     21  C   UNL     1       1.312  -3.255   1.949  0.00  0.00    +0.078 A 
ATOM     22  C   UNL     1       2.386  -2.449   2.297  0.00  0.00    +0.126 A 
BRANCH  20  23
ATOM     23  N   UNL     1       0.274  -4.982   0.506  0.00  0.00    +0.057 N 
ATOM     24  O   UNL     1       0.366  -5.737  -0.433  0.00  0.00    -0.126 OA
ATOM     25  O   UNL     1      -0.751  -4.934   1.145  0.00  0.00    -0.126 OA
ENDBRANCH  20  23
ENDBRANCH  15  22
ENDBRANCH  14  15
ENDBRANCH   1  14
TORSDOF 5
