REMARK  Name = ZINC23524020
REMARK  8 active torsions:
REMARK  status: ('A' for Active; 'I' for Inactive)
REMARK    1  A    between atoms: C_1  and  C_2
REMARK    2  A    between atoms: C_2  and  C_4
REMARK    3  A    between atoms: C_2  and  N_11
REMARK    4  A    between atoms: C_12  and  C_14
REMARK    5  A    between atoms: C_14  and  C_15
REMARK    6  A    between atoms: C_15  and  C_16
REMARK    7  A    between atoms: C_16  and  C_17
REMARK    8  A    between atoms: C_17  and  N_18
REMARK                            x       y       z     vdW  Elec       q    Type
REMARK                         _______ _______ _______ _____ _____    ______ ____
ROOT
ATOM      1  N   UNL     1      -0.242   1.246   2.466  0.00  0.00    -0.309 N 
ATOM      2  C   UNL     1      -0.718   1.572   1.248  0.00  0.00    +0.213 C 
ATOM      3  O   UNL     1      -1.714   2.256   1.150  0.00  0.00    -0.276 OA
ATOM      4  H   UNL     1       0.662   0.625   2.555  0.00  0.00    +0.149 HD
ENDROOT
BRANCH   1   6
ATOM      5  C   UNL     1      -2.065   0.757   4.021  0.00  0.00    +0.033 C 
ATOM      6  C   UNL     1      -0.927   1.718   3.671  0.00  0.00    +0.100 C 
BRANCH   6   7
ATOM      7  C   UNL     1       0.051   1.776   4.816  0.00  0.00    -0.027 A 
ATOM      8  C   UNL     1       0.988   0.772   4.975  0.00  0.00    +0.006 A 
ATOM      9  C   UNL     1       1.889   0.827   6.022  0.00  0.00    +0.015 A 
ATOM     10  C   UNL     1       1.846   1.881   6.916  0.00  0.00    +0.018 A 
ATOM     11  C   UNL     1       0.905   2.883   6.759  0.00  0.00    +0.015 A 
ATOM     12  C   UNL     1       0.008   2.830   5.709  0.00  0.00    +0.006 A 
ATOM     13 BR   UNL     1       3.073   1.953   8.353  0.00  0.00    -0.050 Br
ENDBRANCH   6   7
ENDBRANCH   1   6
BRANCH   2  14
ATOM     14  C   UNL     1      -0.013   1.086   0.008  0.00  0.00    +0.096 C 
BRANCH  14  15
ATOM     15  C   UNL     1      -0.753   1.593  -1.232  0.00  0.00    +0.011 C 
BRANCH  15  16
ATOM     16  C   UNL     1      -0.037   1.099  -2.490  0.00  0.00    +0.019 C 
BRANCH  16  17
ATOM     17  C   UNL     1      -0.777   1.606  -3.730  0.00  0.00    +0.106 C 
BRANCH  17  18
ATOM     18  N   UNL     1      -0.091   1.134  -4.935  0.00  0.00    -0.300 N 
ATOM     19  C   UNL     1      -0.567   1.460  -6.153  0.00  0.00    +0.297 C 
ATOM     20  O   UNL     1      -1.566   2.146  -6.251  0.00  0.00    -0.253 OA
ATOM     21  N   UNL     1       0.064   1.025  -7.262  0.00  0.00    -0.313 N 
ATOM     22  H   UNL     1       0.813   0.513  -4.846  0.00  0.00    +0.150 HD
ATOM     23  H   UNL     1      -0.325   1.291  -8.256  0.00  0.00    +0.146 HD
ATOM     24  H   UNL     1       0.967   0.404  -7.173  0.00  0.00    +0.146 HD
ENDBRANCH  17  18
ENDBRANCH  16  17
ENDBRANCH  15  16
ENDBRANCH  14  15
ENDBRANCH   2  14
TORSDOF 7
