REMARK  Name = ZINC37288306
REMARK  6 active torsions:
REMARK  status: ('A' for Active; 'I' for Inactive)
REMARK    1  A    between atoms: C_1  and  C_2
REMARK    2  A    between atoms: C_2  and  C_4
REMARK    3  A    between atoms: C_2  and  O_11
REMARK    4  A    between atoms: N_9  and  C_10
REMARK    5  A    between atoms: O_11  and  C_12
REMARK    6  A    between atoms: C_13  and  N_20
REMARK                            x       y       z     vdW  Elec       q    Type
REMARK                         _______ _______ _______ _____ _____    ______ ____
ROOT
ATOM      1  O   UNL     1      -1.339  -0.499   0.012  0.00  0.00    -0.477 OA
ENDROOT
BRANCH   1   2
ATOM      2  C   UNL     1      -1.930  -0.706  -1.196  0.00  0.00    +0.156 A 
ATOM      3  C   UNL     1      -2.645   0.321  -1.808  0.00  0.00    +0.069 A 
ATOM      4  C   UNL     1      -3.245   0.104  -3.039  0.00  0.00    +0.046 A 
ATOM      5  C   UNL     1      -3.133  -1.129  -3.657  0.00  0.00    +0.044 A 
ATOM      6  C   UNL     1      -2.422  -2.148  -3.048  0.00  0.00    +0.039 A 
ATOM      7  C   UNL     1      -1.816  -1.937  -1.822  0.00  0.00    +0.063 A 
ATOM      8 BR   UNL     1      -0.839  -3.330  -0.998  0.00  0.00    -0.046 Br
ATOM      9 CL   UNL     1      -3.885  -1.398  -5.198  0.00  0.00    -0.083 Cl
BRANCH   3  10
ATOM     10  N   UNL     1      -2.759   1.567  -1.182  0.00  0.00    -0.355 N 
ATOM     11  H   UNL     1      -2.339   1.717  -0.320  0.00  0.00    +0.142 HD
ATOM     12  H   UNL     1      -3.257   2.281  -1.609  0.00  0.00    +0.142 HD
ENDBRANCH   3  10
ENDBRANCH   1   2
BRANCH   1  14
ATOM     13  C   UNL     1      -0.019   1.526   0.010  0.00  0.00    +0.062 C 
ATOM     14  C   UNL     1       0.002  -0.004   0.002  0.00  0.00    +0.256 C 
BRANCH  14  15
ATOM     15  C   UNL     1       0.731  -0.503   1.223  0.00  0.00    +0.261 C 
ATOM     16  O   UNL     1       0.135  -1.137   2.068  0.00  0.00    -0.271 OA
ATOM     17  N   UNL     1       2.045  -0.246   1.375  0.00  0.00    -0.237 N 
ATOM     18  C   UNL     1       2.697  -0.692   2.467  0.00  0.00    +0.306 C 
ATOM     19  O   UNL     1       2.100  -1.327   3.314  0.00  0.00    -0.252 OA
ATOM     20  N   UNL     1       4.011  -0.435   2.620  0.00  0.00    -0.302 N 
ATOM     21  C   UNL     1       4.720  -0.920   3.807  0.00  0.00    +0.129 C 
ATOM     22  H   UNL     1       2.522   0.261   0.699  0.00  0.00    +0.159 HD
ATOM     23  H   UNL     1       4.488   0.072   1.944  0.00  0.00    +0.150 HD
ENDBRANCH  14  15
ENDBRANCH   1  14
TORSDOF 4
