REMARK  Name = ZINC22035383
REMARK  11 active torsions:
REMARK  status: ('A' for Active; 'I' for Inactive)
REMARK    1  A    between atoms: C_1  and  C_2
REMARK    2  A    between atoms: C_2  and  O_3
REMARK    3  A    between atoms: O_3  and  C_4
REMARK    4  A    between atoms: C_9  and  N_10
REMARK    5  A    between atoms: C_11  and  C_13
REMARK    6  A    between atoms: C_13  and  C_15
REMARK    7  A    between atoms: C_13  and  O_21
REMARK    8  A    between atoms: O_21  and  C_22
REMARK    9  A    between atoms: C_22  and  C_24
REMARK   10  A    between atoms: C_24  and  N_25
REMARK   11  A    between atoms: C_33  and  C_35
REMARK                            x       y       z     vdW  Elec       q    Type
REMARK                         _______ _______ _______ _____ _____    ______ ____
ROOT
ATOM      1  C   UNL     1      -2.394   0.335   7.881  0.00  0.00    +0.292 C 
ENDROOT
BRANCH   1   2
ATOM      2  C   UNL     1      -2.007  -1.084   8.210  0.00  0.00    +0.002 A 
ATOM      3  C   UNL     1      -2.956  -2.087   8.168  0.00  0.00    +0.008 A 
ATOM      4  C   UNL     1      -2.600  -3.389   8.465  0.00  0.00    +0.000 A 
ATOM      5  C   UNL     1      -1.295  -3.686   8.813  0.00  0.00    +0.000 A 
ATOM      6  C   UNL     1      -0.346  -2.682   8.859  0.00  0.00    +0.000 A 
ATOM      7  C   UNL     1      -0.702  -1.381   8.558  0.00  0.00    +0.008 A 
ENDBRANCH   1   2
BRANCH   1   9
ATOM      8  N   UNL     1      -2.159   1.211  10.183  0.00  0.00    -0.279 N 
ATOM      9  C   UNL     1      -2.951   1.002   9.113  0.00  0.00    +0.263 C 
ATOM     10  O   UNL     1      -4.113   1.350   9.141  0.00  0.00    -0.271 OA
ATOM     11  H   UNL     1      -1.133   0.815  10.193  0.00  0.00    +0.155 HD
BRANCH   8  17
ATOM     12  C   UNL     1      -2.086   1.738  12.544  0.00  0.00    +0.142 A 
ATOM     13  C   UNL     1      -2.568   2.454  13.628  0.00  0.00    +0.047 A 
ATOM     14  C   UNL     1      -3.598   3.360  13.455  0.00  0.00    +0.004 A 
ATOM     15  C   UNL     1      -4.150   3.554  12.202  0.00  0.00    +0.002 A 
ATOM     16  C   UNL     1      -3.672   2.847  11.115  0.00  0.00    +0.027 A 
ATOM     17  C   UNL     1      -2.642   1.932  11.282  0.00  0.00    +0.076 A 
BRANCH  12  18
ATOM     18  O   UNL     1      -1.073   0.847  12.713  0.00  0.00    -0.490 OA
BRANCH  18  20
ATOM     19  C   UNL     1       0.573  -0.338  14.027  0.00  0.00    +0.048 C 
ATOM     20  C   UNL     1      -0.552   0.699  14.035  0.00  0.00    +0.226 C 
ENDBRANCH  18  20
ENDBRANCH  12  18
ENDBRANCH   8  17
ENDBRANCH   1   9
BRANCH   1  21
ATOM     21  O   UNL     1      -3.401   0.332   6.835  0.00  0.00    -0.446 OA
BRANCH  21  22
ATOM     22  C   UNL     1      -2.963   0.374   5.567  0.00  0.00    +0.326 C 
ATOM     23  O   UNL     1      -1.778   0.412   5.339  0.00  0.00    -0.249 OA
BRANCH  22  24
ATOM     24  C   UNL     1      -3.950   0.373   4.428  0.00  0.00    +0.238 C 
BRANCH  24  25
ATOM     25  N   UNL     1      -3.227   0.423   3.155  0.00  0.00    -0.213 N 
ATOM     26  C   UNL     1      -2.884   1.564   2.522  0.00  0.00    +0.247 C 
ATOM     27  O   UNL     1      -3.106   2.699   2.885  0.00  0.00    -0.273 OA
ATOM     28  C   UNL     1      -2.163   1.128   1.268  0.00  0.00    +0.115 C 
ATOM     29  C   UNL     1      -2.910   1.613   0.029  0.00  0.00    +0.035 C 
ATOM     30  C   UNL     1      -2.182   1.131  -1.228  0.00  0.00    +0.003 C 
ATOM     31  C   UNL     1      -0.752   1.675  -1.228  0.00  0.00    +0.000 C 
ATOM     32  C   UNL     1      -0.009   1.163   0.008  0.00  0.00    +0.006 C 
ATOM     33  C   UNL     1      -0.729   1.645   1.270  0.00  0.00    +0.018 C 
ATOM     34  C   UNL     1       0.001   1.117   2.507  0.00  0.00    +0.010 C 
ATOM     35  N   UNL     1      -2.181  -0.339   1.337  0.00  0.00    -0.285 N 
ATOM     36  C   UNL     1      -2.825  -0.658   2.476  0.00  0.00    +0.310 C 
ATOM     37  O   UNL     1      -3.018  -1.800   2.845  0.00  0.00    -0.252 OA
ATOM     38  H   UNL     1      -1.717  -0.932   0.536  0.00  0.00    +0.151 HD
ENDBRANCH  24  25
ENDBRANCH  22  24
ENDBRANCH  21  22
ENDBRANCH   1  21
TORSDOF 9
