REMARK  Name = ZINC33260175
REMARK  7 active torsions:
REMARK  status: ('A' for Active; 'I' for Inactive)
REMARK    1  A    between atoms: C_1  and  C_2
REMARK    2  A    between atoms: N_7  and  C_9
REMARK    3  A    between atoms: C_9  and  C_10
REMARK    4  A    between atoms: C_10  and  C_11
REMARK    5  A    between atoms: C_11  and  N_12
REMARK    6  A    between atoms: C_13  and  C_15
REMARK    7  A    between atoms: C_27  and  C_30
REMARK                            x       y       z     vdW  Elec       q    Type
REMARK                         _______ _______ _______ _____ _____    ______ ____
ROOT
ATOM      1  C   UNL     1       1.629   6.135  -0.996  0.00  0.00    +0.078 C 
ATOM      2  C   UNL     1       2.450   5.547   0.154  0.00  0.00    +0.031 C 
ATOM      3  C   UNL     1       2.520   4.026  -0.001  0.00  0.00    +0.107 C 
ATOM      4  N   UNL     1       1.161   3.469   0.009  0.00  0.00    -0.314 N 
ATOM      5  C   UNL     1       0.368   3.984  -1.115  0.00  0.00    +0.107 C 
ATOM      6  C   UNL     1       0.235   5.503  -0.993  0.00  0.00    +0.031 C 
ATOM      7  C   UNL     1       1.192   2.079   0.002  0.00  0.00    +0.142 A 
ATOM      8  C   UNL     1      -0.016   1.355   0.009  0.00  0.00    +0.049 A 
ATOM      9  C   UNL     1       0.002  -0.004   0.002  0.00  0.00    +0.053 A 
ATOM     10  C   UNL     1       1.240  -0.673  -0.013  0.00  0.00    +0.178 A 
ATOM     11  N   UNL     1       1.589  -1.952  -0.023  0.00  0.00    -0.128 NA
ATOM     12  N   UNL     1       2.872  -2.049  -0.035  0.00  0.00    -0.127 NA
ATOM     13  C   UNL     1       3.418  -0.847  -0.035  0.00  0.00    +0.185 A 
ATOM     14  N   UNL     1       2.400   0.061  -0.021  0.00  0.00    -0.191 N 
ATOM     15  N   UNL     1       2.348   1.456  -0.013  0.00  0.00    -0.148 NA
ENDROOT
BRANCH  13  16
ATOM     16  C   UNL     1       4.864  -0.541  -0.047  0.00  0.00    +0.021 A 
ATOM     17  C   UNL     1       5.311   0.745   0.262  0.00  0.00    +0.013 A 
ATOM     18  C   UNL     1       6.662   1.022   0.253  0.00  0.00    +0.021 A 
ATOM     19  C   UNL     1       7.573   0.032  -0.070  0.00  0.00    +0.041 A 
ATOM     20  C   UNL     1       7.136  -1.245  -0.382  0.00  0.00    +0.021 A 
ATOM     21  C   UNL     1       5.787  -1.536  -0.373  0.00  0.00    +0.013 A 
ATOM     22 CL   UNL     1       9.272   0.391  -0.085  0.00  0.00    -0.084 Cl
ENDBRANCH  13  16
BRANCH   1  24
ATOM     23  N   UNL     1       0.823   8.360  -1.717  0.00  0.00    -0.315 N 
ATOM     24  C   UNL     1       1.508   7.627  -0.817  0.00  0.00    +0.216 C 
ATOM     25  O   UNL     1       2.027   8.167   0.137  0.00  0.00    -0.276 OA
ATOM     26  H   UNL     1       0.352   7.870  -2.582  0.00  0.00    +0.149 HD
BRANCH  23  27
ATOM     27  C   UNL     1       0.705   9.810  -1.542  0.00  0.00    +0.102 C 
BRANCH  27  28
ATOM     28  C   UNL     1      -0.116  10.397  -2.693  0.00  0.00    +0.000 C 
BRANCH  28  29
ATOM     29  C   UNL     1      -0.238  11.911  -2.511  0.00  0.00    -0.077 C 
BRANCH  29  35
ATOM     30  C   UNL     1      -2.643  15.858  -4.192  0.00  0.00    +0.005 C 
ATOM     31  C   UNL     1      -2.306  14.389  -4.451  0.00  0.00    -0.031 C 
ATOM     32  C   UNL     1      -1.616  14.254  -5.811  0.00  0.00    -0.001 C 
ATOM     33  C   UNL     1      -1.228  12.790  -6.036  0.00  0.00    -0.018 C 
ATOM     34  C   UNL     1      -0.321  12.327  -4.894  0.00  0.00    -0.079 C 
ATOM     35  N   UNL     1      -1.027  12.474  -3.615  0.00  0.00    +0.380 N 
ATOM     36  C   UNL     1      -1.367  13.879  -3.355  0.00  0.00    -0.076 C 
ATOM     37  H   UNL     1      -1.968  11.909  -3.684  0.00  0.00    -0.082 HD
ENDBRANCH  29  35
ENDBRANCH  28  29
ENDBRANCH  27  28
ENDBRANCH  23  27
ENDBRANCH   1  24
TORSDOF 6
