REMARK  Name = ZINC03087121
REMARK  5 active torsions:
REMARK  status: ('A' for Active; 'I' for Inactive)
REMARK    1  A    between atoms: C_7  and  C_12
REMARK    2  A    between atoms: C_12  and  C_13
REMARK    3  A    between atoms: N_15  and  N_16
REMARK    4  A    between atoms: C_17  and  C_18
REMARK    5  A    between atoms: C_22  and  N_24
REMARK                            x       y       z     vdW  Elec       q    Type
REMARK                         _______ _______ _______ _____ _____    ______ ____
ROOT
ATOM      1  C   UNL     1      -2.398   8.012   0.066  0.00  0.00    +0.237 C 
ATOM      2  O   UNL     1      -3.440   7.391   0.073  0.00  0.00    -0.274 OA
ATOM      3  N   UNL     1      -1.222   7.354   0.051  0.00  0.00    -0.207 N 
ATOM      4  H   UNL     1      -0.388   7.850   0.045  0.00  0.00    +0.177 HD
ENDROOT
BRANCH   3   5
ATOM      5  N   UNL     1      -1.202   5.953   0.044  0.00  0.00    -0.188 NA
ATOM      6  C   UNL     1      -0.070   5.320   0.030  0.00  0.00    +0.138 C 
BRANCH   6   7
ATOM      7  C   UNL     1      -0.050   3.845   0.023  0.00  0.00    -0.003 A 
ATOM      8  C   UNL     1      -1.248   3.127   0.031  0.00  0.00    +0.009 A 
ATOM      9  C   UNL     1      -1.222   1.748   0.017  0.00  0.00    +0.003 A 
ATOM     10  C   UNL     1      -0.013   1.076   0.008  0.00  0.00    +0.033 A 
ATOM     11  C   UNL     1       1.178   1.780   0.000  0.00  0.00    +0.127 A 
ATOM     12  C   UNL     1       1.167   3.160   0.007  0.00  0.00    +0.042 A 
BRANCH  11  13
ATOM     13  N   UNL     1       2.467   1.053  -0.016  0.00  0.00    +0.056 N 
ATOM     14  O   UNL     1       2.478  -0.165  -0.022  0.00  0.00    -0.126 OA
ATOM     15  O   UNL     1       3.516   1.672  -0.022  0.00  0.00    -0.126 OA
ENDBRANCH  11  13
ENDBRANCH   6   7
ENDBRANCH   3   5
BRANCH   1  16
ATOM     16  C   UNL     1      -2.418   9.519   0.073  0.00  0.00    +0.133 C 
BRANCH  16  23
ATOM     17  C   UNL     1      -4.622   9.929   3.689  0.00  0.00    +0.001 A 
ATOM     18  C   UNL     1      -5.942  10.377   3.685  0.00  0.00    +0.001 A 
ATOM     19  C   UNL     1      -6.569  10.699   2.521  0.00  0.00    +0.009 A 
ATOM     20  C   UNL     1      -5.878  10.578   1.303  0.00  0.00    -0.004 A 
ATOM     21  C   UNL     1      -4.536  10.122   1.307  0.00  0.00    -0.013 A 
ATOM     22  C   UNL     1      -3.922   9.800   2.530  0.00  0.00    +0.009 A 
ATOM     23  C   UNL     1      -3.846  10.002   0.089  0.00  0.00    -0.031 A 
ATOM     24  C   UNL     1      -4.471  10.329  -1.075  0.00  0.00    +0.006 A 
ATOM     25  C   UNL     1      -5.792  10.771  -1.081  0.00  0.00    +0.016 A 
ATOM     26  C   UNL     1      -6.493  10.900   0.080  0.00  0.00    +0.026 A 
ATOM     27 BR   UNL     1      -8.282  11.511   0.047  0.00  0.00    -0.050 Br
ENDBRANCH  16  23
ENDBRANCH   1  16
TORSDOF 5
