REMARK  Name = ZINC14661163
REMARK  14 active torsions:
REMARK  status: ('A' for Active; 'I' for Inactive)
REMARK    1  A    between atoms: C_1  and  C_2
REMARK    2  A    between atoms: C_2  and  C_3
REMARK    3  A    between atoms: C_2  and  C_4
REMARK    4  A    between atoms: C_2  and  C_5
REMARK    5  A    between atoms: C_8  and  O_15
REMARK    6  A    between atoms: C_9  and  C_11
REMARK    7  A    between atoms: C_11  and  C_12
REMARK    8  A    between atoms: C_11  and  C_13
REMARK    9  A    between atoms: C_11  and  C_14
REMARK   10  A    between atoms: O_15  and  C_16
REMARK   11  A    between atoms: C_16  and  C_17
REMARK   12  A    between atoms: N_19  and  C_20
REMARK   13  A    between atoms: C_25  and  C_26
REMARK   14  A    between atoms: N_28  and  C_29
REMARK                            x       y       z     vdW  Elec       q    Type
REMARK                         _______ _______ _______ _____ _____    ______ ____
ROOT
ATOM      1  C   UNL     1       8.461   2.125  -0.061  0.00  0.00    +0.255 C 
ATOM      2  O   UNL     1       9.534   1.568  -0.161  0.00  0.00    -0.272 OA
ATOM      3  N   UNL     1       7.321   1.412  -0.153  0.00  0.00    -0.282 N 
ATOM      4  H   UNL     1       6.463   1.865  -0.151  0.00  0.00    +0.155 HD
ENDROOT
BRANCH   3   5
ATOM      5  C   UNL     1       7.373   0.023  -0.249  0.00  0.00    +0.046 A 
ATOM      6  C   UNL     1       8.446  -0.673   0.292  0.00  0.00    +0.024 A 
ATOM      7  C   UNL     1       8.497  -2.049   0.195  0.00  0.00    +0.002 A 
ATOM      8  C   UNL     1       7.481  -2.745  -0.440  0.00  0.00    +0.001 A 
ATOM      9  C   UNL     1       6.406  -2.072  -0.978  0.00  0.00    +0.015 A 
ATOM     10  C   UNL     1       6.344  -0.679  -0.893  0.00  0.00    +0.058 A 
BRANCH  10  11
ATOM     11  C   UNL     1       5.199   0.049  -1.471  0.00  0.00    +0.250 C 
ATOM     12  O   UNL     1       5.199   1.265  -1.491  0.00  0.00    -0.270 OA
ATOM     13  N   UNL     1       4.153  -0.633  -1.978  0.00  0.00    -0.281 N 
ATOM     14  H   UNL     1       4.117  -1.599  -1.895  0.00  0.00    +0.155 HD
BRANCH  13  15
ATOM     15  C   UNL     1       3.118   0.051  -2.624  0.00  0.00    +0.034 A 
ATOM     16  C   UNL     1       3.393   1.203  -3.350  0.00  0.00    +0.023 A 
ATOM     17  C   UNL     1       2.369   1.877  -3.987  0.00  0.00    +0.002 A 
ATOM     18  C   UNL     1       1.072   1.405  -3.903  0.00  0.00    +0.000 A 
ATOM     19  C   UNL     1       0.795   0.259  -3.181  0.00  0.00    +0.002 A 
ATOM     20  C   UNL     1       1.814  -0.419  -2.541  0.00  0.00    +0.023 A 
ENDBRANCH  13  15
ENDBRANCH  10  11
ENDBRANCH   3   5
BRANCH   1  21
ATOM     21  C   UNL     1       8.402   3.614   0.164  0.00  0.00    +0.324 C 
BRANCH  21  22
ATOM     22  O   UNL     1       9.730   4.139   0.224  0.00  0.00    -0.482 OA
BRANCH  22  26
ATOM     23  C   UNL     1      10.111   8.202   0.831  0.00  0.00    -0.041 A 
ATOM     24  C   UNL     1       8.854   7.629   0.762  0.00  0.00    +0.008 A 
ATOM     25  C   UNL     1       8.724   6.269   0.559  0.00  0.00    +0.046 A 
ATOM     26  C   UNL     1       9.855   5.477   0.424  0.00  0.00    +0.125 A 
ATOM     27  C   UNL     1      11.115   6.053   0.498  0.00  0.00    -0.000 A 
ATOM     28  C   UNL     1      11.240   7.415   0.697  0.00  0.00    +0.012 A 
BRANCH  23  30
ATOM     29  C   UNL     1       8.861  10.317   1.168  0.00  0.00    +0.015 C 
ATOM     30  C   UNL     1      10.250   9.686   1.053  0.00  0.00    -0.013 C 
ATOM     31  C   UNL     1      11.033   9.937   2.344  0.00  0.00    +0.015 C 
ATOM     32  C   UNL     1      10.998  10.310  -0.127  0.00  0.00    +0.015 C 
ENDBRANCH  23  30
BRANCH  27  33
ATOM     33  C   UNL     1      12.346   5.196   0.358  0.00  0.00    -0.009 C 
ATOM     34  C   UNL     1      13.595   6.072   0.477  0.00  0.00    +0.015 C 
ATOM     35  C   UNL     1      12.359   4.136   1.462  0.00  0.00    +0.015 C 
ATOM     36  C   UNL     1      12.335   4.508  -1.009  0.00  0.00    +0.015 C 
ENDBRANCH  27  33
ENDBRANCH  22  26
ENDBRANCH  21  22
ENDBRANCH   1  21
TORSDOF 8
