REMARK  Name = ZINC01205465
REMARK  6 active torsions:
REMARK  status: ('A' for Active; 'I' for Inactive)
REMARK    1  A    between atoms: C_1  and  C_2
REMARK    2  A    between atoms: C_2  and  C_10
REMARK    3  A    between atoms: C_3  and  C_4
REMARK    4  A    between atoms: N_11  and  N_12
REMARK    5  A    between atoms: C_13  and  C_15
REMARK    6  A    between atoms: C_17  and  C_21
REMARK                            x       y       z     vdW  Elec       q    Type
REMARK                         _______ _______ _______ _____ _____    ______ ____
ROOT
ATOM      1  N   UNL     1       3.638   2.548   1.192  0.00  0.00    -0.202 N 
ATOM      2  C   UNL     1       2.676   1.617   1.354  0.00  0.00    +0.281 C 
ATOM      3  O   UNL     1       2.911   0.450   1.103  0.00  0.00    -0.267 OA
ATOM      4  H   UNL     1       3.451   3.479   1.393  0.00  0.00    +0.178 HD
ENDROOT
BRANCH   2   5
ATOM      5  C   UNL     1       1.343   2.013   1.834  0.00  0.00    +0.122 A 
ATOM      6  C   UNL     1       0.260   1.181   2.049  0.00  0.00    +0.062 A 
ATOM      7  C   UNL     1      -0.773   2.024   2.496  0.00  0.00    +0.093 A 
ATOM      8  N   UNL     1      -0.296   3.251   2.537  0.00  0.00    -0.173 NA
ATOM      9  N   UNL     1       0.930   3.276   2.155  0.00  0.00    -0.272 N 
ATOM     10  H   UNL     1       1.498   4.097   2.101  0.00  0.00    +0.189 HD
BRANCH   7  11
ATOM     11  C   UNL     1      -2.151   1.607   2.859  0.00  0.00    +0.002 A 
ATOM     12  C   UNL     1      -2.523   0.268   2.765  0.00  0.00    +0.011 A 
ATOM     13  C   UNL     1      -3.803  -0.116   3.107  0.00  0.00    +0.020 A 
ATOM     14  C   UNL     1      -4.721   0.829   3.534  0.00  0.00    +0.041 A 
ATOM     15  C   UNL     1      -4.357   2.162   3.624  0.00  0.00    +0.020 A 
ATOM     16  C   UNL     1      -3.077   2.554   3.288  0.00  0.00    +0.011 A 
ATOM     17 CL   UNL     1      -6.332   0.341   3.958  0.00  0.00    -0.084 Cl
ENDBRANCH   7  11
ENDBRANCH   2   5
BRANCH   1  19
ATOM     18  C   UNL     1       5.837   3.071   0.579  0.00  0.00    +0.133 C 
ATOM     19  N   UNL     1       4.907   2.171   0.735  0.00  0.00    -0.188 NA
BRANCH  18  21
ATOM     20  C   UNL     1       7.453   1.232  -0.070  0.00  0.00    +0.045 C 
ATOM     21  C   UNL     1       7.121   2.690   0.116  0.00  0.00    -0.030 C 
ATOM     22  C   UNL     1       8.047   3.632  -0.157  0.00  0.00    +0.012 C 
BRANCH  22  23
ATOM     23  C   UNL     1       7.673   5.056  -0.146  0.00  0.00    -0.025 A 
ATOM     24  C   UNL     1       6.394   5.450  -0.551  0.00  0.00    +0.008 A 
ATOM     25  C   UNL     1       6.049   6.785  -0.533  0.00  0.00    +0.001 A 
ATOM     26  C   UNL     1       6.969   7.735  -0.126  0.00  0.00    +0.000 A 
ATOM     27  C   UNL     1       8.239   7.354   0.271  0.00  0.00    +0.001 A 
ATOM     28  C   UNL     1       8.597   6.022   0.264  0.00  0.00    +0.008 A 
ENDBRANCH  22  23
ENDBRANCH  18  21
ENDBRANCH   1  19
TORSDOF 5
