REMARK  Name = ZINC63268655
REMARK  5 active torsions:
REMARK  status: ('A' for Active; 'I' for Inactive)
REMARK    1  A    between atoms: C_4  and  N_11
REMARK    2  A    between atoms: C_5  and  C_7
REMARK    3  A    between atoms: C_7  and  C_8
REMARK    4  A    between atoms: N_14  and  C_15
REMARK    5  A    between atoms: C_15  and  C_19
REMARK                            x       y       z     vdW  Elec       q    Type
REMARK                         _______ _______ _______ _____ _____    ______ ____
ROOT
ATOM      1  N   UNL     1       3.623  -0.660  -0.044  0.00  0.00    -0.269 N 
ATOM      2  C   UNL     1       4.775   0.030  -0.156  0.00  0.00    +0.305 C 
ATOM      3  O   UNL     1       4.757   1.246  -0.161  0.00  0.00    -0.252 OA
ATOM      4  N   UNL     1       5.947  -0.627  -0.264  0.00  0.00    -0.290 N 
ATOM      5  H   UNL     1       3.643  -1.628   0.024  0.00  0.00    +0.156 HD
ATOM      6  H   UNL     1       5.956  -1.594  -0.337  0.00  0.00    +0.151 HD
ENDROOT
BRANCH   1  10
ATOM      7  C   UNL     1      -0.020   1.361   0.012  0.00  0.00    +0.000 A 
ATOM      8  C   UNL     1       1.096   1.933   0.594  0.00  0.00    +0.002 A 
ATOM      9  C   UNL     1       2.305   1.266   0.578  0.00  0.00    +0.023 A 
ATOM     10  C   UNL     1       2.400   0.018  -0.025  0.00  0.00    +0.038 A 
ATOM     11  C   UNL     1       1.278  -0.554  -0.609  0.00  0.00    -0.017 A 
ATOM     12  C   UNL     1       0.071   0.118  -0.589  0.00  0.00    +0.006 A 
BRANCH  11  13
ATOM     13  C   UNL     1       1.376  -1.908  -1.264  0.00  0.00    +0.132 C 
BRANCH  13  14
ATOM     14  C   UNL     1       1.204  -2.983  -0.223  0.00  0.00    +0.215 C 
ATOM     15  O   UNL     1       1.020  -2.681   0.937  0.00  0.00    -0.276 OA
ATOM     16  N   UNL     1       1.255  -4.282  -0.581  0.00  0.00    -0.329 N 
ATOM     17  H   UNL     1       1.402  -4.524  -1.508  0.00  0.00    +0.145 HD
ATOM     18  H   UNL     1       1.145  -4.974   0.090  0.00  0.00    +0.145 HD
ENDBRANCH  13  14
ENDBRANCH  11  13
ENDBRANCH   1  10
BRANCH   4  19
ATOM     19  C   UNL     1       7.208   0.120  -0.271  0.00  0.00    +0.061 C 
ATOM     20  C   UNL     1       8.405  -0.689   0.254  0.00  0.00    +0.031 C 
ATOM     21  C   UNL     1       8.043  -0.167   1.655  0.00  0.00    +0.005 C 
ATOM     22  C   UNL     1       7.389   1.035   0.952  0.00  0.00    +0.031 C 
BRANCH  19  23
ATOM     23  C   UNL     1       7.472   0.809  -1.585  0.00  0.00    -0.024 A 
ATOM     24  C   UNL     1       8.441   1.792  -1.667  0.00  0.00    +0.008 A 
ATOM     25  C   UNL     1       8.684   2.424  -2.871  0.00  0.00    +0.038 A 
ATOM     26  C   UNL     1       7.958   2.073  -3.996  0.00  0.00    +0.123 A 
ATOM     27  C   UNL     1       6.987   1.089  -3.913  0.00  0.00    +0.038 A 
ATOM     28  C   UNL     1       6.749   0.454  -2.709  0.00  0.00    +0.008 A 
ATOM     29  F   UNL     1       8.195   2.691  -5.174  0.00  0.00    -0.205 F 
ENDBRANCH  19  23
ENDBRANCH   4  19
TORSDOF 5
