REMARK  Name = ZINC38653855
REMARK  9 active torsions:
REMARK  status: ('A' for Active; 'I' for Inactive)
REMARK    1  A    between atoms: C_1  and  C_2
REMARK    2  A    between atoms: C_2  and  O_4
REMARK    3  A    between atoms: O_4  and  C_5
REMARK    4  A    between atoms: C_8  and  O_38
REMARK    5  A    between atoms: C_13  and  O_37
REMARK    6  A    between atoms: C_15  and  O_36
REMARK    7  A    between atoms: C_19  and  C_34
REMARK    8  A    between atoms: C_24  and  C_33
REMARK    9  A    between atoms: C_25  and  C_27
REMARK                            x       y       z     vdW  Elec       q    Type
REMARK                         _______ _______ _______ _____ _____    ______ ____
ROOT
ATOM      1  C   UNL     1       0.078  -1.946  -1.146  0.00  0.00    +0.187 C 
ATOM      2  C   UNL     1      -1.374  -2.456  -1.079  0.00  0.00    +0.080 C 
ATOM      3  C   UNL     1      -1.311  -3.900  -1.653  0.00  0.00    +0.079 C 
ATOM      4  C   UNL     1      -1.025  -4.852  -0.504  0.00  0.00    +0.026 C 
ATOM      5  C   UNL     1      -0.115  -4.242   0.557  0.00  0.00    +0.009 C 
ATOM      6  C   UNL     1      -0.142  -5.170   1.777  0.00  0.00    +0.036 C 
ATOM      7  C   UNL     1       0.459  -6.525   1.404  0.00  0.00    +0.081 C 
ATOM      8  C   UNL     1       1.963  -6.359   1.197  0.00  0.00    +0.067 C 
ATOM      9  C   UNL     1       2.590  -7.722   0.908  0.00  0.00    +0.117 C 
ATOM     10  C   UNL     1       1.990  -8.272  -0.386  0.00  0.00    +0.032 C 
ATOM     11  C   UNL     1       0.483  -8.407  -0.278  0.00  0.00    +0.020 C 
ATOM     12  C   UNL     1      -0.233  -7.146   0.204  0.00  0.00    +0.058 C 
ATOM     13  C   UNL     1      -0.475  -6.193  -0.960  0.00  0.00    +0.011 C 
ATOM     14  C   UNL     1       0.784  -5.990  -1.795  0.00  0.00    +0.005 C 
ATOM     15  C   UNL     1       0.464  -5.136  -3.015  0.00  0.00    +0.010 C 
ATOM     16  C   UNL     1      -0.205  -3.824  -2.712  0.00  0.00    +0.007 C 
ATOM     17  C   UNL     1       0.723  -2.671  -2.344  0.00  0.00    +0.068 C 
ATOM     18  C   UNL     1      -0.908  -3.400  -4.033  0.00  0.00    +0.015 C 
ENDROOT
BRANCH  17  19
ATOM     19  C   UNL     1       2.128  -3.102  -2.012  0.00  0.00    -0.019 C 
ATOM     20  C   UNL     1       2.664  -3.194  -0.797  0.00  0.00    +0.094 C 
ATOM     21  C   UNL     1       4.052  -3.650  -0.920  0.00  0.00    +0.332 C 
ATOM     22  O   UNL     1       4.812  -3.835   0.010  0.00  0.00    -0.246 OA
ATOM     23  O   UNL     1       4.358  -3.835  -2.218  0.00  0.00    -0.457 OA
ATOM     24  C   UNL     1       3.198  -3.518  -2.994  0.00  0.00    +0.264 C 
ENDBRANCH  17  19
BRANCH  12  25
ATOM     25  C   UNL     1      -1.610  -7.618   0.682  0.00  0.00    +0.233 C 
ATOM     26  O   UNL     1      -1.938  -7.456   1.833  0.00  0.00    -0.300 OA
ENDBRANCH  12  25
BRANCH   9  27
ATOM     27  O   UNL     1       4.003  -7.572   0.751  0.00  0.00    -0.392 OA
ATOM     28  H   UNL     1       4.469  -8.399   0.565  0.00  0.00    +0.210 HD
ENDBRANCH   9  27
BRANCH   7  29
ATOM     29  O   UNL     1       0.268  -7.405   2.533  0.00  0.00    -0.388 OA
ATOM     30  H   UNL     1       0.690  -7.098   3.347  0.00  0.00    +0.210 HD
ENDBRANCH   7  29
BRANCH   3  31
ATOM     31  O   UNL     1      -2.572  -4.242  -2.278  0.00  0.00    -0.388 OA
ATOM     32  H   UNL     1      -3.326  -4.234  -1.673  0.00  0.00    +0.210 HD
ENDBRANCH   3  31
BRANCH   1  33
ATOM     33  O   UNL     1       0.090  -0.532  -1.369  0.00  0.00    -0.461 OA
BRANCH  33  35
ATOM     34  C   UNL     1       0.166   1.754  -0.442  0.00  0.00    +0.136 C 
ATOM     35  C   UNL     1       0.149   0.256  -0.285  0.00  0.00    +0.304 C 
ATOM     36  O   UNL     1       0.190  -0.236   0.818  0.00  0.00    -0.251 OA
ENDBRANCH  33  35
ENDBRANCH   1  33
TORSDOF 7
