REMARK  Name = ZINC37899911
REMARK  10 active torsions:
REMARK  status: ('A' for Active; 'I' for Inactive)
REMARK    1  A    between atoms: C_1  and  C_2
REMARK    2  A    between atoms: C_2  and  N_3
REMARK    3  A    between atoms: N_3  and  C_4
REMARK    4  A    between atoms: N_3  and  C_18
REMARK    5  A    between atoms: C_4  and  C_5
REMARK    6  A    between atoms: C_5  and  C_6
REMARK    7  A    between atoms: N_8  and  C_9
REMARK    8  A    between atoms: C_10  and  N_17
REMARK    9  A    between atoms: C_18  and  C_19
REMARK   10  A    between atoms: C_19  and  O_20
REMARK                            x       y       z     vdW  Elec       q    Type
REMARK                         _______ _______ _______ _____ _____    ______ ____
ROOT
ATOM      1  C   UNL     1      -1.895  -3.305  -2.291  0.00  0.00    +0.215 C 
ATOM      2  O   UNL     1      -1.120  -4.022  -2.889  0.00  0.00    -0.276 OA
ATOM      3  N   UNL     1      -3.034  -3.819  -1.784  0.00  0.00    -0.283 N 
ATOM      4  H   UNL     1      -3.616  -3.266  -1.240  0.00  0.00    +0.155 HD
ENDROOT
BRANCH   3   5
ATOM      5  C   UNL     1      -3.376  -5.154  -2.042  0.00  0.00    +0.073 A 
ATOM      6  C   UNL     1      -4.635  -5.467  -2.556  0.00  0.00    +0.049 A 
ATOM      7  C   UNL     1      -4.968  -6.789  -2.810  0.00  0.00    +0.044 A 
ATOM      8  C   UNL     1      -4.052  -7.794  -2.554  0.00  0.00    +0.044 A 
ATOM      9  C   UNL     1      -2.804  -7.485  -2.044  0.00  0.00    +0.042 A 
ATOM     10  C   UNL     1      -2.462  -6.168  -1.793  0.00  0.00    +0.065 A 
ATOM     11 CL   UNL     1      -0.892  -5.784  -1.160  0.00  0.00    -0.082 Cl
ATOM     12 CL   UNL     1      -4.472  -9.448  -2.872  0.00  0.00    -0.083 Cl
BRANCH   6  13
ATOM     13  N   UNL     1      -5.559  -4.449  -2.814  0.00  0.00    -0.356 N 
ATOM     14  H   UNL     1      -5.325  -3.524  -2.636  0.00  0.00    +0.142 HD
ATOM     15  H   UNL     1      -6.434  -4.667  -3.171  0.00  0.00    +0.142 HD
ENDBRANCH   6  13
ENDBRANCH   3   5
BRANCH   1  16
ATOM     16  C   UNL     1      -1.586  -1.841  -2.116  0.00  0.00    +0.077 C 
BRANCH  16  17
ATOM     17  C   UNL     1      -0.246  -1.520  -2.780  0.00  0.00    -0.070 C 
BRANCH  17  18
ATOM     18  N   UNL     1       0.056  -0.092  -2.609  0.00  0.00    +0.381 N 
ATOM     19  H   UNL     1      -0.712   0.459  -2.964  0.00  0.00    -0.082 HD
BRANCH  18  21
ATOM     20  C   UNL     1       0.415   1.709  -0.989  0.00  0.00    -0.017 C 
ATOM     21  C   UNL     1       0.249   0.200  -1.182  0.00  0.00    -0.082 C 
ENDBRANCH  18  21
BRANCH  18  22
ATOM     22  C   UNL     1       1.281   0.242  -3.348  0.00  0.00    -0.051 C 
BRANCH  22  23
ATOM     23  C   UNL     1       1.029   0.089  -4.849  0.00  0.00    +0.137 C 
BRANCH  23  24
ATOM     24  O   UNL     1       0.062   1.053  -5.270  0.00  0.00    -0.397 OA
ATOM     25  H   UNL     1      -0.204   0.966  -6.195  0.00  0.00    +0.209 HD
ENDBRANCH  23  24
ENDBRANCH  22  23
ENDBRANCH  18  22
ENDBRANCH  17  18
ENDBRANCH  16  17
ENDBRANCH   1  16
TORSDOF 9
