REMARK  Name = ZINC34762141
REMARK  11 active torsions:
REMARK  status: ('A' for Active; 'I' for Inactive)
REMARK    1  A    between atoms: C_1  and  C_2
REMARK    2  A    between atoms: C_2  and  C_3
REMARK    3  A    between atoms: C_4  and  C_37
REMARK    4  A    between atoms: C_8  and  N_21
REMARK    5  A    between atoms: C_10  and  S_12
REMARK    6  A    between atoms: S_12  and  C_13
REMARK    7  A    between atoms: C_13  and  C_14
REMARK    8  A    between atoms: C_14  and  C_15
REMARK    9  A    between atoms: N_24  and  C_27
REMARK   10  A    between atoms: C_27  and  C_28
REMARK   11  A    between atoms: N_30  and  C_31
REMARK                            x       y       z     vdW  Elec       q    Type
REMARK                         _______ _______ _______ _____ _____    ______ ____
ROOT
ATOM      1  C   UNL     1      -1.380  -0.674   0.120  0.00  0.00    -0.025 A 
ATOM      2  C   UNL     1      -1.926  -0.869   1.329  0.00  0.00    -0.007 A 
ATOM      3  S   UNL     1      -3.561  -1.475   0.954  0.00  0.00    -0.073 S 
ATOM      4  C   UNL     1      -3.465  -1.450  -0.816  0.00  0.00    +0.115 A 
ATOM      5  C   UNL     1      -2.164  -0.965  -1.069  0.00  0.00    +0.051 A 
ATOM      6  C   UNL     1      -1.813  -0.837  -2.441  0.00  0.00    +0.134 A 
ATOM      7  N   UNL     1      -2.697  -1.165  -3.369  0.00  0.00    -0.206 NA
ATOM      8  C   UNL     1      -3.909  -1.612  -3.062  0.00  0.00    +0.191 A 
ATOM      9  N   UNL     1      -4.288  -1.761  -1.799  0.00  0.00    -0.215 NA
ATOM     10  C   UNL     1      -1.307  -0.632   2.682  0.00  0.00    +0.052 C 
ENDROOT
BRANCH   6  11
ATOM     11  N   UNL     1      -0.561  -0.374  -2.802  0.00  0.00    -0.318 N 
ATOM     12  C   UNL     1       0.553  -1.307  -3.034  0.00  0.00    +0.088 C 
ATOM     13  C   UNL     1       1.192  -0.974  -4.386  0.00  0.00    -0.059 C 
ATOM     14  N   UNL     1       1.575   0.444  -4.409  0.00  0.00    +0.387 N 
ATOM     15  C   UNL     1       0.376   1.287  -4.320  0.00  0.00    -0.059 C 
ATOM     16  C   UNL     1      -0.306   1.065  -2.971  0.00  0.00    +0.088 C 
ATOM     17  H   UNL     1       2.181   0.640  -3.626  0.00  0.00    -0.081 HD
BRANCH  14  18
ATOM     18  C   UNL     1       2.287   0.737  -5.660  0.00  0.00    +0.019 C 
BRANCH  18  19
ATOM     19  C   UNL     1       2.787   2.158  -5.632  0.00  0.00    +0.201 C 
ATOM     20  O   UNL     1       2.572   2.858  -4.665  0.00  0.00    -0.278 OA
ATOM     21  N   UNL     1       3.473   2.651  -6.682  0.00  0.00    -0.287 N 
ATOM     22  H   UNL     1       3.698   2.074  -7.429  0.00  0.00    +0.155 HD
BRANCH  21  23
ATOM     23  C   UNL     1       3.862   3.995  -6.695  0.00  0.00    +0.033 A 
ATOM     24  C   UNL     1       4.238   4.622  -5.514  0.00  0.00    +0.023 A 
ATOM     25  C   UNL     1       4.621   5.949  -5.529  0.00  0.00    +0.002 A 
ATOM     26  C   UNL     1       4.630   6.653  -6.719  0.00  0.00    +0.000 A 
ATOM     27  C   UNL     1       4.256   6.032  -7.897  0.00  0.00    +0.002 A 
ATOM     28  C   UNL     1       3.877   4.704  -7.889  0.00  0.00    +0.023 A 
ENDBRANCH  21  23
ENDBRANCH  18  19
ENDBRANCH  14  18
ENDBRANCH   6  11
BRANCH   1  30
ATOM     29  C   UNL     1       0.019   1.373   0.103  0.00  0.00    +0.009 C 
ATOM     30  C   UNL     1       0.029  -0.153  -0.004  0.00  0.00    +0.033 C 
ENDBRANCH   1  30
BRANCH   8  31
ATOM     31  S   UNL     1      -5.030  -2.028  -4.356  0.00  0.00    -0.086 S 
BRANCH  31  32
ATOM     32  C   UNL     1      -6.522  -2.578  -3.483  0.00  0.00    +0.082 C 
BRANCH  32  33
ATOM     33  C   UNL     1      -7.592  -2.975  -4.503  0.00  0.00    +0.046 C 
BRANCH  33  34
ATOM     34  C   UNL     1      -8.832  -3.432  -3.778  0.00  0.00    -0.047 A 
ATOM     35  C   UNL     1      -8.983  -4.763  -3.439  0.00  0.00    +0.003 A 
ATOM     36  C   UNL     1     -10.120  -5.183  -2.774  0.00  0.00    +0.000 A 
ATOM     37  C   UNL     1     -11.106  -4.270  -2.448  0.00  0.00    +0.000 A 
ATOM     38  C   UNL     1     -10.954  -2.938  -2.786  0.00  0.00    +0.000 A 
ATOM     39  C   UNL     1      -9.815  -2.518  -3.447  0.00  0.00    +0.003 A 
ENDBRANCH  33  34
ENDBRANCH  32  33
ENDBRANCH  31  32
ENDBRANCH   8  31
TORSDOF 9
