REMARK  Name = ZINC36642820
REMARK  12 active torsions:
REMARK  status: ('A' for Active; 'I' for Inactive)
REMARK    1  A    between atoms: C_1  and  N_2
REMARK    2  A    between atoms: N_2  and  C_3
REMARK    3  A    between atoms: N_2  and  C_4
REMARK    4  A    between atoms: C_4  and  C_5
REMARK    5  A    between atoms: C_5  and  N_6
REMARK    6  A    between atoms: C_10  and  O_18
REMARK    7  A    between atoms: C_13  and  O_16
REMARK    8  A    between atoms: O_16  and  C_17
REMARK    9  A    between atoms: O_18  and  C_19
REMARK   10  A    between atoms: C_20  and  C_22
REMARK   11  A    between atoms: C_25  and  N_31
REMARK   12  A    between atoms: C_26  and  N_28
REMARK                            x       y       z     vdW  Elec       q    Type
REMARK                         _______ _______ _______ _____ _____    ______ ____
ROOT
ATOM      1  N   UNL     1       3.048  -0.568  -2.220  0.00  0.00    -0.248 N 
ATOM      2  C   UNL     1       3.229   0.196  -3.361  0.00  0.00    +0.169 A 
ATOM      3  N   UNL     1       2.988   1.473  -3.543  0.00  0.00    -0.221 NA
ATOM      4  C   UNL     1       3.214   2.094  -4.722  0.00  0.00    +0.125 A 
ATOM      5  C   UNL     1       2.998   3.458  -5.049  0.00  0.00    +0.147 A 
ATOM      6  C   UNL     1       3.282   3.932  -6.306  0.00  0.00    +0.051 A 
ATOM      7  C   UNL     1       3.788   3.102  -7.297  0.00  0.00    +0.050 A 
ATOM      8  C   UNL     1       4.012   1.764  -7.012  0.00  0.00    +0.136 A 
ATOM      9  C   UNL     1       3.729   1.280  -5.753  0.00  0.00    +0.086 A 
ATOM     10  S   UNL     1       3.858  -0.303  -4.958  0.00  0.00    -0.048 S 
ATOM     11  C   UNL     1       3.365  -1.879  -2.230  0.00  0.00    +0.252 C 
ATOM     12  O   UNL     1       3.874  -2.373  -3.217  0.00  0.00    -0.270 OA
ENDROOT
BRANCH  11  13
ATOM     13  C   UNL     1       3.093  -2.712  -1.044  0.00  0.00    +0.040 A 
ATOM     14  C   UNL     1       1.957  -2.472  -0.265  0.00  0.00    +0.015 A 
ATOM     15  C   UNL     1       1.706  -3.251   0.841  0.00  0.00    +0.026 A 
ATOM     16  C   UNL     1       2.582  -4.277   1.185  0.00  0.00    +0.060 A 
ATOM     17  C   UNL     1       3.714  -4.518   0.411  0.00  0.00    +0.148 A 
ATOM     18  C   UNL     1       3.968  -3.746  -0.699  0.00  0.00    +0.047 A 
BRANCH  16  19
ATOM     19  N   UNL     1       2.326  -5.062   2.304  0.00  0.00    -0.328 N 
ATOM     20  C   UNL     1       2.845  -4.676   3.623  0.00  0.00    +0.105 C 
ATOM     21  C   UNL     1       1.681  -4.636   4.618  0.00  0.00    +0.019 C 
ATOM     22  C   UNL     1       0.951  -5.981   4.598  0.00  0.00    +0.003 C 
ATOM     23  C   UNL     1       0.383  -6.234   3.200  0.00  0.00    +0.019 C 
ATOM     24  C   UNL     1       1.527  -6.289   2.190  0.00  0.00    +0.105 C 
ENDBRANCH  16  19
BRANCH  17  25
ATOM     25  N   UNL     1       4.643  -5.610   0.781  0.00  0.00    +0.058 N 
ATOM     26  O   UNL     1       5.627  -5.820   0.110  0.00  0.00    -0.126 OA
ATOM     27  O   UNL     1       4.419  -6.291   1.754  0.00  0.00    -0.126 OA
ENDBRANCH  17  25
ENDBRANCH  11  13
BRANCH   8  28
ATOM     28  O   UNL     1       4.507   0.934  -7.969  0.00  0.00    -0.494 OA
ATOM     29  C   UNL     1       4.775   1.507  -9.250  0.00  0.00    +0.277 C 
ENDBRANCH   8  28
BRANCH   5  30
ATOM     30  O   UNL     1       2.503   4.305  -4.106  0.00  0.00    -0.493 OA
ATOM     31  C   UNL     1       2.307   5.666  -4.496  0.00  0.00    +0.277 C 
ENDBRANCH   5  30
BRANCH   1  32
ATOM     32  C   UNL     1       2.513   0.047  -1.003  0.00  0.00    +0.097 C 
BRANCH  32  33
ATOM     33  C   UNL     1       1.016   0.308  -1.180  0.00  0.00    -0.060 C 
BRANCH  33  35
ATOM     34  C   UNL     1       1.035   2.091   0.425  0.00  0.00    -0.097 C 
ATOM     35  N   UNL     1       0.450   0.786   0.088  0.00  0.00    +0.377 N 
ATOM     36  C   UNL     1      -1.007   0.922  -0.046  0.00  0.00    -0.097 C 
ATOM     37  H   UNL     1       0.659   0.124   0.821  0.00  0.00    -0.083 HD
ENDBRANCH  33  35
ENDBRANCH  32  33
ENDBRANCH   1  32
TORSDOF 8
