REMARK  Name = ZINC00691127
REMARK  6 active torsions:
REMARK  status: ('A' for Active; 'I' for Inactive)
REMARK    1  A    between atoms: C_1  and  C_2
REMARK    2  A    between atoms: C_2  and  C_3
REMARK    3  A    between atoms: C_2  and  C_4
REMARK    4  A    between atoms: C_7  and  C_10
REMARK    5  A    between atoms: C_16  and  C_18
REMARK    6  A    between atoms: C_22  and  N_24
REMARK                            x       y       z     vdW  Elec       q    Type
REMARK                         _______ _______ _______ _____ _____    ______ ____
ROOT
ATOM      1  C   UNL     1      -1.190  -2.164  -0.110  0.00  0.00    +0.165 C 
ATOM      2  N   UNL     1      -1.440  -0.714  -0.012  0.00  0.00    -0.281 N 
ATOM      3  C   UNL     1      -2.827  -0.289  -0.183  0.00  0.00    +0.120 C 
ATOM      4  C   UNL     1      -3.582  -1.243  -1.155  0.00  0.00    +0.090 C 
ATOM      5  S   UNL     1      -2.831  -2.840  -0.603  0.00  0.00    -0.132 S 
ATOM      6  C   UNL     1      -0.447   0.168   0.217  0.00  0.00    +0.248 C 
ATOM      7  O   UNL     1      -0.708   1.335   0.433  0.00  0.00    -0.270 OA
ENDROOT
BRANCH   1  11
ATOM      8  C   UNL     1       0.014  -3.748   3.670  0.00  0.00    -0.045 A 
ATOM      9  C   UNL     1       0.342  -4.415   2.505  0.00  0.00    +0.004 A 
ATOM     10  C   UNL     1      -0.047  -3.903   1.282  0.00  0.00    +0.006 A 
ATOM     11  C   UNL     1      -0.765  -2.723   1.223  0.00  0.00    -0.017 A 
ATOM     12  C   UNL     1      -1.089  -2.053   2.388  0.00  0.00    +0.006 A 
ATOM     13  C   UNL     1      -0.703  -2.568   3.612  0.00  0.00    +0.004 A 
BRANCH   8  15
ATOM     14  C   UNL     1       1.334  -3.294   5.720  0.00  0.00    +0.012 C 
ATOM     15  C   UNL     1       0.438  -4.307   5.004  0.00  0.00    +0.013 C 
ATOM     16  C   UNL     1      -0.801  -4.585   5.857  0.00  0.00    +0.012 C 
ENDBRANCH   8  15
ENDBRANCH   1  11
BRANCH   6  17
ATOM     17  C   UNL     1       0.961  -0.284   0.205  0.00  0.00    +0.039 A 
ATOM     18  C   UNL     1       1.259  -1.646   0.129  0.00  0.00    +0.013 A 
ATOM     19  C   UNL     1       2.574  -2.061   0.113  0.00  0.00    +0.003 A 
ATOM     20  C   UNL     1       3.597  -1.132   0.184  0.00  0.00    +0.033 A 
ATOM     21  C   UNL     1       3.308   0.218   0.265  0.00  0.00    +0.127 A 
ATOM     22  C   UNL     1       1.997   0.647   0.276  0.00  0.00    +0.045 A 
BRANCH  21  23
ATOM     23  N   UNL     1       4.409   1.205   0.340  0.00  0.00    +0.056 N 
ATOM     24  O   UNL     1       4.157   2.395   0.412  0.00  0.00    -0.126 OA
ATOM     25  O   UNL     1       5.567   0.828   0.330  0.00  0.00    -0.126 OA
ENDBRANCH  21  23
ENDBRANCH   6  17
TORSDOF 4
