REMARK  Name = ZINC38866192
REMARK  8 active torsions:
REMARK  status: ('A' for Active; 'I' for Inactive)
REMARK    1  A    between atoms: C_1  and  C_2
REMARK    2  A    between atoms: C_2  and  C_3
REMARK    3  A    between atoms: C_3  and  C_4
REMARK    4  A    between atoms: C_3  and  C_6
REMARK    5  A    between atoms: C_4  and  C_5
REMARK    6  A    between atoms: N_8  and  C_9
REMARK    7  A    between atoms: C_11  and  C_28
REMARK    8  A    between atoms: C_16  and  C_19
REMARK                            x       y       z     vdW  Elec       q    Type
REMARK                         _______ _______ _______ _____ _____    ______ ____
ROOT
ATOM      1  C   UNL     1       2.294  -3.763  -1.983  0.00  0.00    +0.131 A 
ATOM      2  C   UNL     1       1.873  -4.660  -1.050  0.00  0.00    +0.068 A 
ATOM      3  C   UNL     1       2.465  -5.892  -1.342  0.00  0.00    +0.062 A 
ATOM      4  N   UNL     1       3.213  -5.753  -2.406  0.00  0.00    -0.168 NA
ATOM      5  N   UNL     1       3.124  -4.423  -2.838  0.00  0.00    -0.194 N 
ATOM      6  C   UNL     1       3.770  -3.874  -3.943  0.00  0.00    +0.196 A 
ATOM      7  N   UNL     1       4.577  -4.453  -4.811  0.00  0.00    -0.218 NA
ATOM      8  C   UNL     1       5.111  -3.774  -5.815  0.00  0.00    +0.115 A 
ATOM      9  C   UNL     1       4.818  -2.443  -5.955  0.00  0.00    +0.080 A 
ATOM     10  S   UNL     1       3.719  -2.199  -4.566  0.00  0.00    -0.056 S 
ATOM     11  C   UNL     1       2.273  -7.167  -0.562  0.00  0.00    +0.067 C 
ENDROOT
BRANCH   8  12
ATOM     12  C   UNL     1       6.013  -4.445  -6.774  0.00  0.00    +0.155 A 
ATOM     13  C   UNL     1       6.363  -5.753  -6.731  0.00  0.00    +0.060 A 
ATOM     14  C   UNL     1       7.262  -5.972  -7.866  0.00  0.00    +0.021 A 
ATOM     15  C   UNL     1       7.950  -7.079  -8.364  0.00  0.00    +0.011 A 
ATOM     16  C   UNL     1       8.731  -6.947  -9.478  0.00  0.00    +0.001 A 
ATOM     17  C   UNL     1       8.843  -5.720 -10.116  0.00  0.00    +0.004 A 
ATOM     18  C   UNL     1       8.171  -4.614  -9.639  0.00  0.00    +0.047 A 
ATOM     19  C   UNL     1       7.371  -4.726  -8.509  0.00  0.00    +0.136 A 
ATOM     20  O   UNL     1       6.607  -3.848  -7.827  0.00  0.00    -0.453 OA
ENDBRANCH   8  12
BRANCH   1  23
ATOM     21  C   UNL     1       1.102  -1.892  -1.136  0.00  0.00    +0.221 C 
ATOM     22  O   UNL     1       0.580  -2.611  -0.310  0.00  0.00    -0.275 OA
ATOM     23  N   UNL     1       1.937  -2.417  -2.054  0.00  0.00    -0.270 N 
ATOM     24  H   UNL     1       2.290  -1.859  -2.765  0.00  0.00    +0.156 HD
BRANCH  21  25
ATOM     25  C   UNL     1       0.817  -0.412  -1.135  0.00  0.00    +0.075 C 
BRANCH  25  27
ATOM     26  C   UNL     1      -0.470   1.412  -0.013  0.00  0.00    +0.004 C 
ATOM     27  C   UNL     1      -0.079  -0.066   0.056  0.00  0.00    +0.009 C 
ENDBRANCH  25  27
BRANCH  25  28
ATOM     28  C   UNL     1       2.133   0.360  -1.024  0.00  0.00    +0.009 C 
ATOM     29  C   UNL     1       2.794   0.052   0.321  0.00  0.00    +0.004 C 
ENDBRANCH  25  28
ENDBRANCH  21  25
ENDBRANCH   1  23
TORSDOF 5
