REMARK  Name = ZINC03431838
REMARK  8 active torsions:
REMARK  status: ('A' for Active; 'I' for Inactive)
REMARK    1  A    between atoms: C_1  and  O_2
REMARK    2  A    between atoms: O_2  and  C_3
REMARK    3  A    between atoms: C_6  and  N_31
REMARK    4  A    between atoms: C_8  and  N_9
REMARK    5  A    between atoms: C_10  and  C_12
REMARK    6  A    between atoms: C_12  and  S_13
REMARK    7  A    between atoms: S_13  and  C_14
REMARK    8  A    between atoms: C_21  and  C_24
REMARK                            x       y       z     vdW  Elec       q    Type
REMARK                         _______ _______ _______ _____ _____    ______ ____
ROOT
ATOM      1  S   UNL     1       4.026   3.348  -0.089  0.00  0.00    -0.094 S 
ENDROOT
BRANCH   1   2
ATOM      2  C   UNL     1       2.509   4.243  -0.070  0.00  0.00    +0.127 A 
ATOM      3  C   UNL     1       1.286   3.578  -0.320  0.00  0.00    +0.018 A 
ATOM      4  C   UNL     1       1.208   2.208  -0.589  0.00  0.00    +0.011 A 
ATOM      5  C   UNL     1      -0.011   1.640  -0.820  0.00  0.00    +0.001 A 
ATOM      6  C   UNL     1      -1.176   2.402  -0.796  0.00  0.00    +0.001 A 
ATOM      7  C   UNL     1      -1.134   3.741  -0.530  0.00  0.00    +0.011 A 
ATOM      8  C   UNL     1       0.098   4.353  -0.290  0.00  0.00    +0.012 A 
ATOM      9  C   UNL     1       0.234   5.779  -0.004  0.00  0.00    +0.101 A 
ATOM     10  N   UNL     1       1.447   6.262   0.210  0.00  0.00    -0.148 NA
ATOM     11  N   UNL     1       2.504   5.541   0.178  0.00  0.00    -0.142 NA
BRANCH   9  12
ATOM     12  C   UNL     1      -0.955   6.660   0.046  0.00  0.00    +0.003 A 
ATOM     13  C   UNL     1      -0.922   7.914  -0.566  0.00  0.00    +0.013 A 
ATOM     14  C   UNL     1      -2.034   8.729  -0.521  0.00  0.00    +0.039 A 
ATOM     15  C   UNL     1      -3.178   8.309   0.138  0.00  0.00    +0.123 A 
ATOM     16  C   UNL     1      -3.213   7.067   0.752  0.00  0.00    +0.039 A 
ATOM     17  C   UNL     1      -2.109   6.242   0.709  0.00  0.00    +0.013 A 
ATOM     18  F   UNL     1      -4.263   9.114   0.183  0.00  0.00    -0.205 F 
ENDBRANCH   9  12
ENDBRANCH   1   2
BRANCH   1  19
ATOM     19  C   UNL     1       5.186   4.687   0.282  0.00  0.00    +0.172 C 
BRANCH  19  21
ATOM     20  N   UNL     1       7.626   4.962   0.579  0.00  0.00    -0.282 N 
ATOM     21  C   UNL     1       6.590   4.141   0.319  0.00  0.00    +0.228 C 
ATOM     22  O   UNL     1       6.787   2.962   0.113  0.00  0.00    -0.275 OA
ATOM     23  H   UNL     1       7.464   5.892   0.803  0.00  0.00    +0.155 HD
BRANCH  20  29
ATOM     24  C   UNL     1       9.992   5.330   0.218  0.00  0.00    +0.141 A 
ATOM     25  C   UNL     1      11.287   4.840   0.168  0.00  0.00    +0.050 A 
ATOM     26  C   UNL     1      11.531   3.504   0.425  0.00  0.00    +0.036 A 
ATOM     27  C   UNL     1      10.486   2.653   0.733  0.00  0.00    +0.128 A 
ATOM     28  C   UNL     1       9.192   3.134   0.789  0.00  0.00    +0.059 A 
ATOM     29  C   UNL     1       8.938   4.473   0.527  0.00  0.00    +0.078 A 
BRANCH  27  30
ATOM     30  N   UNL     1      10.755   1.223   1.007  0.00  0.00    +0.056 N 
ATOM     31  O   UNL     1      11.895   0.798   0.962  0.00  0.00    -0.126 OA
ATOM     32  O   UNL     1       9.835   0.472   1.278  0.00  0.00    -0.126 OA
ENDBRANCH  27  30
BRANCH  24  34
ATOM     33  C   UNL     1      10.878   7.463  -0.345  0.00  0.00    +0.277 C 
ATOM     34  O   UNL     1       9.749   6.644  -0.035  0.00  0.00    -0.493 OA
ENDBRANCH  24  34
ENDBRANCH  20  29
ENDBRANCH  19  21
ENDBRANCH   1  19
TORSDOF 7
