REMARK  Name = ZINC35785370
REMARK  7 active torsions:
REMARK  status: ('A' for Active; 'I' for Inactive)
REMARK    1  A    between atoms: C_1  and  C_2
REMARK    2  A    between atoms: C_5  and  C_33
REMARK    3  A    between atoms: C_6  and  C_8
REMARK    4  A    between atoms: C_11  and  C_14
REMARK    5  A    between atoms: C_21  and  C_23
REMARK    6  A    between atoms: C_23  and  N_24
REMARK    7  A    between atoms: C_27  and  C_30
REMARK                            x       y       z     vdW  Elec       q    Type
REMARK                         _______ _______ _______ _____ _____    ______ ____
ROOT
ATOM      1  C   UNL     1       0.515  -2.651   2.511  0.00  0.00    +0.069 C 
ATOM      2  N   UNL     1       0.637  -3.920   2.696  0.00  0.00    -0.181 NA
ATOM      3  N   UNL     1       0.874  -4.282   4.021  0.00  0.00    -0.187 N 
ATOM      4  C   UNL     1       0.915  -3.064   4.846  0.00  0.00    +0.138 C 
ATOM      5  C   UNL     1       0.677  -1.930   3.830  0.00  0.00    +0.087 C 
ATOM      6  C   UNL     1       1.038  -5.541   4.472  0.00  0.00    +0.219 C 
ATOM      7  O   UNL     1       1.239  -5.741   5.651  0.00  0.00    -0.276 OA
ENDROOT
BRANCH   1  13
ATOM      8  C   UNL     1       0.013   1.496  -0.214  0.00  0.00    +0.044 C 
ATOM      9  C   UNL     1       0.018  -0.007  -0.105  0.00  0.00    -0.050 A 
ATOM     10  C   UNL     1      -0.216  -0.781  -1.228  0.00  0.00    +0.003 A 
ATOM     11  C   UNL     1      -0.213  -2.161  -1.138  0.00  0.00    +0.004 A 
ATOM     12  C   UNL     1       0.023  -2.776   0.074  0.00  0.00    -0.042 A 
ATOM     13  C   UNL     1       0.261  -2.001   1.212  0.00  0.00    +0.001 A 
ATOM     14  C   UNL     1       0.262  -0.608   1.112  0.00  0.00    +0.013 A 
ATOM     15  C   UNL     1       0.025  -4.280   0.171  0.00  0.00    +0.044 C 
ENDBRANCH   1  13
BRANCH   4  16
ATOM     16  C   UNL     1       2.264  -2.913   5.501  0.00  0.00    -0.006 A 
ATOM     17  C   UNL     1       3.375  -3.517   4.942  0.00  0.00    +0.007 A 
ATOM     18  C   UNL     1       4.613  -3.378   5.543  0.00  0.00    +0.000 A 
ATOM     19  C   UNL     1       4.740  -2.635   6.702  0.00  0.00    +0.001 A 
ATOM     20  C   UNL     1       3.630  -2.031   7.261  0.00  0.00    +0.020 A 
ATOM     21  C   UNL     1       2.392  -2.165   6.658  0.00  0.00    +0.046 A 
ATOM     22 CL   UNL     1       0.998  -1.401   7.356  0.00  0.00    -0.083 Cl
ENDBRANCH   4  16
BRANCH   6  23
ATOM     23  C   UNL     1       0.970  -6.700   3.511  0.00  0.00    +0.021 C 
BRANCH  23  24
ATOM     24  N   UNL     1       1.178  -7.956   4.245  0.00  0.00    +0.385 N 
ATOM     25  C   UNL     1       2.537  -7.979   4.799  0.00  0.00    -0.077 C 
ATOM     26  C   UNL     1       2.732  -9.248   5.631  0.00  0.00    -0.006 C 
ATOM     27  C   UNL     1       2.523 -10.474   4.738  0.00  0.00    +0.071 C 
ATOM     28  C   UNL     1       1.130 -10.402   4.107  0.00  0.00    -0.006 C 
ATOM     29  C   UNL     1       0.994  -9.091   3.331  0.00  0.00    -0.077 C 
ATOM     30  H   UNL     1       0.509  -8.020   4.997  0.00  0.00    -0.081 HD
BRANCH  27  31
ATOM     31  C   UNL     1       2.636 -11.727   5.568  0.00  0.00    +0.213 C 
ATOM     32  O   UNL     1       2.862 -11.648   6.757  0.00  0.00    -0.276 OA
ATOM     33  N   UNL     1       2.487 -12.935   4.989  0.00  0.00    -0.329 N 
ATOM     34  H   UNL     1       2.306 -12.998   4.038  0.00  0.00    +0.145 HD
ATOM     35  H   UNL     1       2.560 -13.741   5.524  0.00  0.00    +0.145 HD
ENDBRANCH  27  31
ENDBRANCH  23  24
ENDBRANCH   6  23
TORSDOF 5
