REMARK  Name = ZINC04574485
REMARK  10 active torsions:
REMARK  status: ('A' for Active; 'I' for Inactive)
REMARK    1  A    between atoms: C_1  and  C_2
REMARK    2  A    between atoms: C_3  and  C_24
REMARK    3  A    between atoms: C_4  and  C_21
REMARK    4  A    between atoms: C_5  and  N_7
REMARK    5  A    between atoms: C_8  and  C_10
REMARK    6  A    between atoms: C_16  and  C_18
REMARK    7  A    between atoms: C_27  and  C_30
REMARK    8  A    between atoms: C_30  and  C_31
REMARK    9  A    between atoms: C_30  and  C_32
REMARK   10  A    between atoms: C_30  and  C_33
REMARK                            x       y       z     vdW  Elec       q    Type
REMARK                         _______ _______ _______ _____ _____    ______ ____
ROOT
ATOM      1  C   UNL     1      -0.018   1.503   0.010  0.00  0.00    +0.052 C 
ATOM      2  C   UNL     1       0.002  -0.004   0.002  0.00  0.00    -0.003 A 
ATOM      3  C   UNL     1      -1.052  -0.862   0.002  0.00  0.00    +0.006 A 
ATOM      4  C   UNL     1      -0.707  -2.272  -0.008  0.00  0.00    +0.073 A 
ATOM      5  C   UNL     1       0.643  -2.580  -0.016  0.00  0.00    +0.085 A 
ATOM      6  S   UNL     1       1.412  -1.089  -0.018  0.00  0.00    -0.077 S 
ENDROOT
BRANCH   3   7
ATOM      7  C   UNL     1      -2.457  -0.390   0.011  0.00  0.00    -0.016 A 
ATOM      8  C   UNL     1      -3.275  -0.651   1.109  0.00  0.00    +0.009 A 
ATOM      9  C   UNL     1      -4.583  -0.209   1.113  0.00  0.00    +0.005 A 
ATOM     10  C   UNL     1      -5.082   0.491   0.029  0.00  0.00    -0.042 A 
ATOM     11  C   UNL     1      -4.274   0.753  -1.063  0.00  0.00    +0.005 A 
ATOM     12  C   UNL     1      -2.963   0.322  -1.075  0.00  0.00    +0.009 A 
BRANCH  10  13
ATOM     13  C   UNL     1      -6.510   0.971   0.039  0.00  0.00    -0.013 C 
ATOM     14  C   UNL     1      -6.723   1.916   1.222  0.00  0.00    +0.015 C 
ATOM     15  C   UNL     1      -6.808   1.712  -1.266  0.00  0.00    +0.015 C 
ATOM     16  C   UNL     1      -7.450  -0.230   0.170  0.00  0.00    +0.015 C 
ENDBRANCH  10  13
ENDBRANCH   3   7
BRANCH   4  17
ATOM     17  C   UNL     1      -1.735  -3.316  -0.009  0.00  0.00    +0.244 C 
ATOM     18  O   UNL     1      -2.167  -3.743  -1.063  0.00  0.00    -0.270 OA
ATOM     19  N   UNL     1      -2.202  -3.802   1.158  0.00  0.00    -0.325 N 
ATOM     20  H   UNL     1      -1.857  -3.462   1.998  0.00  0.00    +0.145 HD
ATOM     21  H   UNL     1      -2.882  -4.494   1.158  0.00  0.00    +0.145 HD
ENDBRANCH   4  17
BRANCH   5  22
ATOM     22  N   UNL     1       1.228  -3.837  -0.025  0.00  0.00    -0.279 N 
ATOM     23  C   UNL     1       2.570  -3.956  -0.032  0.00  0.00    +0.221 C 
ATOM     24  O   UNL     1       3.267  -2.963  -0.030  0.00  0.00    -0.275 OA
ATOM     25  H   UNL     1       0.670  -4.631  -0.028  0.00  0.00    +0.155 HD
BRANCH  23  26
ATOM     26  C   UNL     1       3.206  -5.322  -0.043  0.00  0.00    +0.089 C 
ATOM     27  C   UNL     1       2.761  -6.082  -1.295  0.00  0.00    +0.013 C 
ATOM     28  C   UNL     1       3.194  -5.308  -2.542  0.00  0.00    +0.001 C 
ATOM     29  C   UNL     1       4.717  -5.162  -2.548  0.00  0.00    +0.001 C 
ATOM     30  C   UNL     1       5.162  -4.403  -1.296  0.00  0.00    +0.015 C 
ATOM     31  C   UNL     1       4.729  -5.177  -0.049  0.00  0.00    +0.114 C 
BRANCH  31  32
ATOM     32  C   UNL     1       5.167  -4.429   1.184  0.00  0.00    +0.360 C 
ATOM     33  O   UNL     1       6.172  -4.773   1.781  0.00  0.00    -0.246 OA
ATOM     34  O   UNL     1       4.515  -3.479   1.584  0.00  0.00    -0.246 OA
ENDBRANCH  31  32
ENDBRANCH  23  26
ENDBRANCH   5  22
TORSDOF 6
