REMARK  Name = ZINC12500369
REMARK  6 active torsions:
REMARK  status: ('A' for Active; 'I' for Inactive)
REMARK    1  A    between atoms: C_10  and  C_11
REMARK    2  A    between atoms: C_11  and  C_12
REMARK    3  A    between atoms: N_14  and  C_15
REMARK    4  A    between atoms: C_15  and  N_17
REMARK    5  A    between atoms: N_17  and  C_18
REMARK    6  A    between atoms: C_21  and  C_24
REMARK                            x       y       z     vdW  Elec       q    Type
REMARK                         _______ _______ _______ _____ _____    ______ ____
ROOT
ATOM      1  C   UNL     1      -1.854   5.987  -1.245  0.00  0.00    +0.223 C 
ATOM      2  O   UNL     1      -1.545   5.216  -2.128  0.00  0.00    -0.275 OA
ATOM      3  N   UNL     1      -2.110   7.278  -1.536  0.00  0.00    -0.267 N 
ATOM      4  H   UNL     1      -2.357   7.894  -0.829  0.00  0.00    +0.157 HD
ENDROOT
BRANCH   3   5
ATOM      5  C   UNL     1      -2.023   7.711  -2.809  0.00  0.00    +0.141 C 
ATOM      6  S   UNL     1      -1.587   6.622  -4.056  0.00  0.00    -0.018 S 
BRANCH   5   7
ATOM      7  N   UNL     1      -2.280   9.002  -3.100  0.00  0.00    -0.297 N 
ATOM      8  H   UNL     1      -2.604   9.600  -2.409  0.00  0.00    +0.154 HD
BRANCH   7   9
ATOM      9  C   UNL     1      -2.078   9.477  -4.395  0.00  0.00    +0.033 A 
ATOM     10  C   UNL     1      -0.944   9.097  -5.106  0.00  0.00    +0.024 A 
ATOM     11  C   UNL     1      -0.745   9.560  -6.387  0.00  0.00    +0.015 A 
ATOM     12  C   UNL     1      -1.679  10.422  -6.969  0.00  0.00    +0.037 A 
ATOM     13  C   UNL     1      -2.814  10.807  -6.250  0.00  0.00    +0.015 A 
ATOM     14  C   UNL     1      -3.009  10.336  -4.972  0.00  0.00    +0.024 A 
BRANCH  12  15
ATOM     15  C   UNL     1      -1.466  10.925  -8.340  0.00  0.00    +0.242 C 
ATOM     16  O   UNL     1      -2.279  11.675  -8.846  0.00  0.00    -0.270 OA
ATOM     17  N   UNL     1      -0.371  10.553  -9.032  0.00  0.00    -0.325 N 
ATOM     18  H   UNL     1       0.278   9.954  -8.629  0.00  0.00    +0.145 HD
ATOM     19  H   UNL     1      -0.231  10.883  -9.933  0.00  0.00    +0.145 HD
ENDBRANCH  12  15
ENDBRANCH   7   9
ENDBRANCH   5   7
ENDBRANCH   3   5
BRANCH   1  20
ATOM     20  C   UNL     1      -1.951   5.502   0.179  0.00  0.00    +0.131 C 
BRANCH  20  30
ATOM     21  C   UNL     1       2.345   2.739   0.507  0.00  0.00    +0.001 A 
ATOM     22  C   UNL     1       2.057   4.102   0.458  0.00  0.00    +0.001 A 
ATOM     23  C   UNL     1       0.773   4.544   0.369  0.00  0.00    +0.009 A 
ATOM     24  C   UNL     1      -0.281   3.615   0.326  0.00  0.00    -0.014 A 
ATOM     25  C   UNL     1       0.012   2.229   0.370  0.00  0.00    -0.018 A 
ATOM     26  C   UNL     1       1.351   1.811   0.468  0.00  0.00    +0.008 A 
ATOM     27  C   UNL     1      -1.041   1.300   0.321  0.00  0.00    +0.008 A 
ATOM     28  C   UNL     1      -2.325   1.742   0.227  0.00  0.00    +0.001 A 
ATOM     29  C   UNL     1      -2.613   3.104   0.178  0.00  0.00    +0.005 A 
ATOM     30  C   UNL     1      -1.619   4.033   0.233  0.00  0.00    -0.031 A 
ENDBRANCH  20  30
ENDBRANCH   1  20
TORSDOF 6
