REMARK  Name = ZINC43479732
REMARK  4 active torsions:
REMARK  status: ('A' for Active; 'I' for Inactive)
REMARK    1  A    between atoms: C_3  and  O_23
REMARK    2  A    between atoms: C_6  and  C_7
REMARK    3  A    between atoms: C_7  and  N_8
REMARK    4  A    between atoms: N_8  and  C_9
REMARK                            x       y       z     vdW  Elec       q    Type
REMARK                         _______ _______ _______ _____ _____    ______ ____
ROOT
ATOM      1  C   UNL     1      -2.912  -1.718  -1.615  0.00  0.00    +0.044 A 
ATOM      2  C   UNL     1      -3.679  -2.178  -0.555  0.00  0.00    +0.051 A 
ATOM      3  C   UNL     1      -4.852  -2.872  -0.803  0.00  0.00    +0.069 A 
ATOM      4  C   UNL     1      -5.259  -3.105  -2.119  0.00  0.00    +0.068 A 
ATOM      5  C   UNL     1      -4.489  -2.643  -3.175  0.00  0.00    +0.045 A 
ATOM      6  C   UNL     1      -3.323  -1.946  -2.924  0.00  0.00    +0.041 A 
ATOM      7 BR   UNL     1      -2.277  -1.310  -4.365  0.00  0.00    -0.048 Br
ATOM      8  N   UNL     1      -6.458  -3.816  -2.049  0.00  0.00    -0.306 N 
ATOM      9  H   UNL     1      -6.982  -4.122  -2.806  0.00  0.00    +0.170 HD
ATOM     10  C   UNL     1      -6.763  -4.005  -0.752  0.00  0.00    +0.325 A 
ATOM     11  O   UNL     1      -7.748  -4.591  -0.342  0.00  0.00    -0.247 OA
ATOM     12  N   UNL     1      -5.815  -3.447   0.024  0.00  0.00    -0.306 N 
ATOM     13  H   UNL     1      -5.803  -3.446   0.994  0.00  0.00    +0.170 HD
ENDROOT
BRANCH   1  14
ATOM     14  N   UNL     1      -1.727  -1.016  -1.368  0.00  0.00    -0.339 N 
ATOM     15  H   UNL     1      -1.192  -0.690  -2.108  0.00  0.00    +0.146 HD
BRANCH  14  16
ATOM     16  C   UNL     1      -1.293  -0.774   0.011  0.00  0.00    +0.137 C 
BRANCH  16  22
ATOM     17  C   UNL     1      -0.017   1.378   0.010  0.00  0.00    +0.009 A 
ATOM     18  C   UNL     1       1.170   2.087   0.002  0.00  0.00    +0.047 A 
ATOM     19  C   UNL     1       2.380   1.411  -0.013  0.00  0.00    +0.135 A 
ATOM     20  C   UNL     1       2.397   0.022  -0.021  0.00  0.00    +0.083 A 
ATOM     21  C   UNL     1       1.208  -0.682  -0.013  0.00  0.00    +0.028 A 
ATOM     22  C   UNL     1       0.002  -0.004   0.002  0.00  0.00    -0.029 A 
ATOM     23 CL   UNL     1       3.910  -0.828  -0.040  0.00  0.00    -0.080 Cl
BRANCH  19  24
ATOM     24  O   UNL     1       3.548   2.106  -0.021  0.00  0.00    -0.505 OA
ATOM     25  H   UNL     1       3.895   2.303   0.860  0.00  0.00    +0.292 HD
ENDBRANCH  19  24
ENDBRANCH  16  22
ENDBRANCH  14  16
ENDBRANCH   1  14
TORSDOF 4
