REMARK  Name = ZINC20668547
REMARK  7 active torsions:
REMARK  status: ('A' for Active; 'I' for Inactive)
REMARK    1  A    between atoms: C_4  and  N_11
REMARK    2  A    between atoms: C_5  and  C_7
REMARK    3  A    between atoms: C_12  and  C_14
REMARK    4  A    between atoms: C_14  and  N_15
REMARK    5  A    between atoms: N_18  and  C_21
REMARK    6  A    between atoms: C_24  and  C_30
REMARK    7  A    between atoms: C_26  and  N_27
REMARK                            x       y       z     vdW  Elec       q    Type
REMARK                         _______ _______ _______ _____ _____    ______ ____
ROOT
ATOM      1  N   UNL     1       2.409   1.039   0.006  0.00  0.00    +0.387 N 
ATOM      2  C   UNL     1       2.464   0.266   1.254  0.00  0.00    -0.059 C 
ATOM      3  C   UNL     1       3.602  -0.754   1.170  0.00  0.00    +0.086 C 
ATOM      4  N   UNL     1       4.870  -0.050   0.934  0.00  0.00    -0.332 N 
ATOM      5  C   UNL     1       4.816   0.723  -0.314  0.00  0.00    +0.086 C 
ATOM      6  C   UNL     1       3.678   1.743  -0.230  0.00  0.00    -0.059 C 
ATOM      7  H   UNL     1       2.253   0.334  -0.824  0.00  0.00    -0.081 HD
ENDROOT
BRANCH   4   8
ATOM      8  C   UNL     1       5.944  -0.944   0.923  0.00  0.00    +0.060 A 
ATOM      9  C   UNL     1       6.022  -1.927  -0.056  0.00  0.00    +0.026 A 
ATOM     10  C   UNL     1       7.085  -2.808  -0.064  0.00  0.00    +0.014 A 
ATOM     11  C   UNL     1       8.070  -2.714   0.902  0.00  0.00    +0.057 A 
ATOM     12  C   UNL     1       7.996  -1.737   1.878  0.00  0.00    +0.047 A 
ATOM     13  C   UNL     1       6.939  -0.849   1.888  0.00  0.00    +0.148 A 
BRANCH  11  14
ATOM     14  C   UNL     1       9.229  -3.678   0.890  0.00  0.00    +0.417 C 
ATOM     15  F   UNL     1       9.086  -4.565  -0.182  0.00  0.00    -0.166 F 
ATOM     16  F   UNL     1      10.426  -2.967   0.750  0.00  0.00    -0.166 F 
ATOM     17  F   UNL     1       9.251  -4.396   2.090  0.00  0.00    -0.166 F 
ENDBRANCH  11  14
BRANCH  13  18
ATOM     18  N   UNL     1       6.863   0.201   2.929  0.00  0.00    +0.058 N 
ATOM     19  O   UNL     1       7.736   0.284   3.775  0.00  0.00    -0.126 OA
ATOM     20  O   UNL     1       5.928   0.981   2.941  0.00  0.00    -0.126 OA
ENDBRANCH  13  18
ENDBRANCH   4   8
BRANCH   1  21
ATOM     21  C   UNL     1       1.280   1.979   0.017  0.00  0.00    +0.019 C 
BRANCH  21  23
ATOM     22  N   UNL     1      -1.191   1.867   0.018  0.00  0.00    -0.287 N 
ATOM     23  C   UNL     1      -0.015   1.208   0.014  0.00  0.00    +0.201 C 
ATOM     24  O   UNL     1       0.001  -0.004   0.004  0.00  0.00    -0.278 OA
ATOM     25  H   UNL     1      -1.207   2.963   0.102  0.00  0.00    +0.155 HD
BRANCH  22  29
ATOM     26  C   UNL     1      -4.764  -0.252  -0.292  0.00  0.00    +0.001 A 
ATOM     27  C   UNL     1      -3.697  -0.796   0.399  0.00  0.00    +0.002 A 
ATOM     28  C   UNL     1      -2.510  -0.099   0.499  0.00  0.00    +0.024 A 
ATOM     29  C   UNL     1      -2.391   1.155  -0.086  0.00  0.00    +0.045 A 
ATOM     30  C   UNL     1      -3.464   1.699  -0.779  0.00  0.00    +0.076 A 
ATOM     31  C   UNL     1      -4.648   0.994  -0.880  0.00  0.00    +0.014 A 
BRANCH  30  32
ATOM     32  C   UNL     1      -3.338   3.057  -1.421  0.00  0.00    +0.419 C 
ATOM     33  F   UNL     1      -4.540   3.386  -2.055  0.00  0.00    -0.166 F 
ATOM     34  F   UNL     1      -3.051   4.011  -0.439  0.00  0.00    -0.166 F 
ATOM     35  F   UNL     1      -2.305   3.032  -2.364  0.00  0.00    -0.166 F 
ENDBRANCH  30  32
ENDBRANCH  22  29
ENDBRANCH  21  23
ENDBRANCH   1  21
TORSDOF 7
