REMARK  Name = ZINC46017127
REMARK  11 active torsions:
REMARK  status: ('A' for Active; 'I' for Inactive)
REMARK    1  A    between atoms: C_1  and  C_2
REMARK    2  A    between atoms: C_2  and  C_3
REMARK    3  A    between atoms: C_5  and  O_20
REMARK    4  A    between atoms: C_9  and  C_19
REMARK    5  A    between atoms: N_11  and  C_12
REMARK    6  A    between atoms: C_15  and  C_18
REMARK    7  A    between atoms: O_20  and  C_21
REMARK    8  A    between atoms: C_21  and  C_22
REMARK    9  A    between atoms: N_24  and  C_25
REMARK   10  A    between atoms: C_29  and  C_32
REMARK   11  A    between atoms: C_30  and  C_31
REMARK                            x       y       z     vdW  Elec       q    Type
REMARK                         _______ _______ _______ _____ _____    ______ ____
ROOT
ATOM      1  C   UNL     1       0.722  -0.540   1.215  0.00  0.00    -0.030 A 
ATOM      2  C   UNL     1       2.056  -0.837   1.163  0.00  0.00    +0.071 A 
ATOM      3  C   UNL     1       2.705  -1.295   2.309  0.00  0.00    +0.217 A 
ATOM      4  N   UNL     1       2.059  -1.450   3.450  0.00  0.00    -0.193 NA
ATOM      5  C   UNL     1       0.764  -1.176   3.555  0.00  0.00    +0.167 A 
ATOM      6  C   UNL     1       0.052  -0.705   2.435  0.00  0.00    +0.045 A 
ATOM      7  C   UNL     1      -1.322  -0.496   2.876  0.00  0.00    +0.070 A 
ATOM      8  N   UNL     1      -1.386  -0.815   4.138  0.00  0.00    -0.169 NA
ATOM      9  N   UNL     1      -0.134  -1.243   4.588  0.00  0.00    -0.214 N 
ATOM     10  C   UNL     1      -2.463  -0.000   2.026  0.00  0.00    +0.068 C 
ENDROOT
BRANCH   9  11
ATOM     11  C   UNL     1       0.160  -1.661   5.893  0.00  0.00    +0.068 A 
ATOM     12  C   UNL     1       1.097  -2.663   6.108  0.00  0.00    +0.028 A 
ATOM     13  C   UNL     1       1.385  -3.072   7.396  0.00  0.00    +0.005 A 
ATOM     14  C   UNL     1       0.741  -2.485   8.469  0.00  0.00    -0.050 A 
ATOM     15  C   UNL     1      -0.193  -1.487   8.258  0.00  0.00    +0.005 A 
ATOM     16  C   UNL     1      -0.480  -1.069   6.973  0.00  0.00    +0.028 A 
ATOM     17  C   UNL     1       1.058  -2.934   9.873  0.00  0.00    +0.044 C 
ENDBRANCH   9  11
BRANCH   1  19
ATOM     18  C   UNL     1      -0.040   1.487   0.006  0.00  0.00    +0.009 C 
ATOM     19  C   UNL     1      -0.008  -0.043  -0.007  0.00  0.00    +0.033 C 
ENDBRANCH   1  19
BRANCH   3  20
ATOM     20  O   UNL     1       4.028  -1.588   2.250  0.00  0.00    -0.467 OA
BRANCH  20  21
ATOM     21  C   UNL     1       4.643  -2.053   3.453  0.00  0.00    +0.326 C 
BRANCH  21  22
ATOM     22  C   UNL     1       6.103  -2.325   3.198  0.00  0.00    +0.255 C 
ATOM     23  O   UNL     1       6.571  -2.139   2.094  0.00  0.00    -0.272 OA
ATOM     24  N   UNL     1       6.890  -2.775   4.195  0.00  0.00    -0.282 N 
ATOM     25  H   UNL     1       6.537  -2.848   5.096  0.00  0.00    +0.155 HD
BRANCH  24  26
ATOM     26  C   UNL     1       8.215  -3.138   3.932  0.00  0.00    +0.037 A 
ATOM     27  C   UNL     1       8.588  -3.534   2.654  0.00  0.00    +0.023 A 
ATOM     28  C   UNL     1       9.897  -3.891   2.398  0.00  0.00    +0.002 A 
ATOM     29  C   UNL     1      10.836  -3.855   3.412  0.00  0.00    +0.004 A 
ATOM     30  C   UNL     1      10.469  -3.462   4.685  0.00  0.00    -0.046 A 
ATOM     31  C   UNL     1       9.162  -3.097   4.947  0.00  0.00    -0.026 A 
ATOM     32  C   UNL     1       8.764  -2.662   6.334  0.00  0.00    +0.046 C 
ATOM     33  C   UNL     1      11.495  -3.425   5.788  0.00  0.00    +0.044 C 
ENDBRANCH  24  26
ENDBRANCH  21  22
ENDBRANCH  20  21
ENDBRANCH   3  20
TORSDOF 6
