REMARK  Name = ZINC65867191
REMARK  6 active torsions:
REMARK  status: ('A' for Active; 'I' for Inactive)
REMARK    1  A    between atoms: C_1  and  C_2
REMARK    2  A    between atoms: C_2  and  C_3
REMARK    3  A    between atoms: C_2  and  N_13
REMARK    4  A    between atoms: C_6  and  N_9
REMARK    5  A    between atoms: C_14  and  C_16
REMARK    6  A    between atoms: C_17  and  C_21
REMARK                            x       y       z     vdW  Elec       q    Type
REMARK                         _______ _______ _______ _____ _____    ______ ____
ROOT
ATOM      1  N   UNL     1       0.615  -0.278  -1.297  0.00  0.00    -0.304 N 
ATOM      2  C   UNL     1       1.955  -0.376  -1.394  0.00  0.00    +0.252 C 
ATOM      3  O   UNL     1       2.650  -0.217  -0.406  0.00  0.00    -0.270 OA
ATOM      4  H   UNL     1       0.061  -0.404  -2.084  0.00  0.00    +0.150 HD
ENDROOT
BRANCH   2   5
ATOM      5  C   UNL     1       2.576  -0.674  -2.684  0.00  0.00    +0.082 A 
ATOM      6  C   UNL     1       3.930  -0.823  -2.998  0.00  0.00    +0.001 A 
ATOM      7  C   UNL     1       4.202  -1.106  -4.327  0.00  0.00    +0.017 A 
ATOM      8  C   UNL     1       3.174  -1.214  -5.198  0.00  0.00    +0.046 A 
ATOM      9  S   UNL     1       1.802  -0.949  -4.266  0.00  0.00    -0.092 S 
BRANCH   6  10
ATOM     10  C   UNL     1       5.000  -0.687  -1.981  0.00  0.00    -0.016 A 
ATOM     11  C   UNL     1       5.024   0.422  -1.135  0.00  0.00    +0.011 A 
ATOM     12  C   UNL     1       6.021   0.544  -0.190  0.00  0.00    +0.039 A 
ATOM     13  C   UNL     1       6.998  -0.433  -0.081  0.00  0.00    +0.123 A 
ATOM     14  C   UNL     1       6.979  -1.536  -0.919  0.00  0.00    +0.039 A 
ATOM     15  C   UNL     1       5.982  -1.670  -1.863  0.00  0.00    +0.011 A 
ATOM     16  F   UNL     1       7.974  -0.309   0.845  0.00  0.00    -0.205 F 
ENDBRANCH   6  10
ENDBRANCH   2   5
BRANCH   1  18
ATOM     17  C   UNL     1      -0.027   1.534   0.214  0.00  0.00    +0.033 C 
ATOM     18  C   UNL     1      -0.007   0.020  -0.005  0.00  0.00    +0.100 C 
BRANCH  18  19
ATOM     19  C   UNL     1      -1.419  -0.508   0.008  0.00  0.00    -0.027 A 
ATOM     20  C   UNL     1      -2.208  -0.394  -1.122  0.00  0.00    +0.007 A 
ATOM     21  C   UNL     1      -3.502  -0.877  -1.114  0.00  0.00    +0.023 A 
ATOM     22  C   UNL     1      -4.010  -1.477   0.031  0.00  0.00    +0.035 A 
ATOM     23  C   UNL     1      -3.215  -1.590   1.164  0.00  0.00    +0.023 A 
ATOM     24  C   UNL     1      -1.920  -1.110   1.147  0.00  0.00    +0.007 A 
BRANCH  22  25
ATOM     25  N   UNL     1      -5.321  -1.967   0.042  0.00  0.00    -0.270 N 
ATOM     26  C   UNL     1      -5.857  -2.483  -1.081  0.00  0.00    +0.301 C 
ATOM     27  O   UNL     1      -5.173  -2.611  -2.078  0.00  0.00    -0.253 OA
ATOM     28  N   UNL     1      -7.152  -2.856  -1.100  0.00  0.00    -0.313 N 
ATOM     29  H   UNL     1      -5.843  -1.936   0.859  0.00  0.00    +0.156 HD
ATOM     30  H   UNL     1      -7.698  -2.753  -0.304  0.00  0.00    +0.146 HD
ATOM     31  H   UNL     1      -7.539  -3.227  -1.909  0.00  0.00    +0.146 HD
ENDBRANCH  22  25
ENDBRANCH  18  19
ENDBRANCH   1  18
TORSDOF 5
