REMARK  Name = ZINC40757448
REMARK  5 active torsions:
REMARK  status: ('A' for Active; 'I' for Inactive)
REMARK    1  A    between atoms: C_4  and  N_7
REMARK    2  A    between atoms: N_7  and  N_8
REMARK    3  A    between atoms: C_10  and  N_23
REMARK    4  A    between atoms: C_11  and  N_15
REMARK    5  A    between atoms: N_15  and  C_16
REMARK                            x       y       z     vdW  Elec       q    Type
REMARK                         _______ _______ _______ _____ _____    ______ ____
ROOT
ATOM      1  N   UNL     1       3.676  -2.046   0.291  0.00  0.00    -0.249 N 
ATOM      2  C   UNL     1       4.868  -2.725   0.069  0.00  0.00    +0.161 A 
ATOM      3  C   UNL     1       4.906  -4.121   0.104  0.00  0.00    +0.105 A 
ATOM      4  C   UNL     1       6.129  -4.753  -0.126  0.00  0.00    +0.126 A 
ATOM      5  N   UNL     1       7.205  -4.006  -0.367  0.00  0.00    -0.333 N 
ATOM      6  C   UNL     1       7.126  -2.692  -0.390  0.00  0.00    +0.200 A 
ATOM      7  N   UNL     1       5.990  -2.056  -0.185  0.00  0.00    -0.219 NA
ATOM      8  H   UNL     1       2.863  -2.542   0.476  0.00  0.00    +0.172 HD
ATOM      9  H   UNL     1       8.059  -4.437  -0.528  0.00  0.00    +0.168 HD
ENDROOT
BRANCH   3  10
ATOM     10  N   UNL     1       3.746  -4.868   0.363  0.00  0.00    -0.353 N 
ATOM     11  H   UNL     1       2.903  -4.415   0.521  0.00  0.00    +0.143 HD
ATOM     12  H   UNL     1       3.787  -5.837   0.383  0.00  0.00    +0.143 HD
ENDBRANCH   3  10
BRANCH   1  13
ATOM     13  N   UNL     1       3.649  -0.646   0.248  0.00  0.00    -0.265 N 
ATOM     14  H   UNL     1       4.462  -0.151   0.064  0.00  0.00    +0.170 HD
BRANCH  13  18
ATOM     15  C   UNL     1       0.077   1.388   0.912  0.00  0.00    +0.000 A 
ATOM     16  C   UNL     1       1.236   2.096   0.650  0.00  0.00    +0.002 A 
ATOM     17  C   UNL     1       2.422   1.425   0.429  0.00  0.00    +0.024 A 
ATOM     18  C   UNL     1       2.451   0.036   0.471  0.00  0.00    +0.044 A 
ATOM     19  C   UNL     1       1.285  -0.672   0.735  0.00  0.00    +0.024 A 
ATOM     20  C   UNL     1       0.102   0.006   0.955  0.00  0.00    +0.002 A 
ENDBRANCH  13  18
ENDBRANCH   1  13
BRANCH   4  21
ATOM     21  N   UNL     1       6.223  -6.140  -0.103  0.00  0.00    -0.298 N 
ATOM     22  H   UNL     1       5.422  -6.678  -0.002  0.00  0.00    +0.154 HD
BRANCH  21  23
ATOM     23  C   UNL     1       7.471  -6.758  -0.224  0.00  0.00    +0.047 A 
ATOM     24  C   UNL     1       7.845  -7.341  -1.427  0.00  0.00    +0.024 A 
ATOM     25  C   UNL     1       9.079  -7.951  -1.544  0.00  0.00    +0.002 A 
ATOM     26  C   UNL     1       9.941  -7.982  -0.463  0.00  0.00    +0.001 A 
ATOM     27  C   UNL     1       9.572  -7.404   0.737  0.00  0.00    +0.017 A 
ATOM     28  C   UNL     1       8.342  -6.786   0.859  0.00  0.00    +0.039 A 
ATOM     29 BR   UNL     1       7.841  -5.988   2.498  0.00  0.00    -0.048 Br
ENDBRANCH  21  23
ENDBRANCH   4  21
TORSDOF 5
