REMARK  Name = ZINC02610841
REMARK  12 active torsions:
REMARK  status: ('A' for Active; 'I' for Inactive)
REMARK    1  A    between atoms: C_1  and  C_2
REMARK    2  A    between atoms: C_2  and  C_3
REMARK    3  A    between atoms: C_3  and  C_4
REMARK    4  A    between atoms: C_7  and  S_22
REMARK    5  A    between atoms: N_8  and  N_9
REMARK    6  A    between atoms: C_10  and  C_11
REMARK    7  A    between atoms: C_13  and  O_19
REMARK    8  A    between atoms: C_14  and  O_18
REMARK    9  A    between atoms: O_19  and  C_20
REMARK   10  A    between atoms: C_20  and  C_21
REMARK   11  A    between atoms: S_22  and  C_23
REMARK   12  A    between atoms: C_23  and  C_24
REMARK                            x       y       z     vdW  Elec       q    Type
REMARK                         _______ _______ _______ _____ _____    ______ ____
ROOT
ATOM      1  C   UNL     1       1.272  -6.685  -1.720  0.00  0.00    +0.156 A 
ATOM      2  N   UNL     1       1.279  -6.397  -0.448  0.00  0.00    -0.132 NA
ATOM      3  N   UNL     1       1.264  -5.123  -0.282  0.00  0.00    -0.121 NA
ATOM      4  C   UNL     1       1.246  -4.520  -1.449  0.00  0.00    +0.212 A 
ATOM      5  N   UNL     1       1.244  -5.499  -2.405  0.00  0.00    -0.191 N 
ENDROOT
BRANCH   5   6
ATOM      6  N   UNL     1       1.222  -5.325  -3.795  0.00  0.00    -0.171 NA
ATOM      7  C   UNL     1       2.335  -5.231  -4.455  0.00  0.00    +0.141 C 
BRANCH   7   8
ATOM      8  C   UNL     1       2.312  -5.048  -5.918  0.00  0.00    -0.001 A 
ATOM      9  C   UNL     1       3.510  -4.947  -6.630  0.00  0.00    +0.059 A 
ATOM     10  C   UNL     1       3.482  -4.775  -8.001  0.00  0.00    +0.163 A 
ATOM     11  C   UNL     1       2.262  -4.705  -8.671  0.00  0.00    +0.173 A 
ATOM     12  C   UNL     1       1.072  -4.805  -7.964  0.00  0.00    +0.063 A 
ATOM     13  C   UNL     1       1.092  -4.982  -6.596  0.00  0.00    +0.028 A 
ATOM     14 BR   UNL     1      -0.580  -4.707  -8.879  0.00  0.00    -0.046 Br
BRANCH  11  15
ATOM     15  O   UNL     1       2.238  -4.536 -10.020  0.00  0.00    -0.503 OA
ATOM     16  H   UNL     1       2.240  -5.364 -10.519  0.00  0.00    +0.292 HD
ENDBRANCH  11  15
BRANCH  10  17
ATOM     17  O   UNL     1       4.646  -4.676  -8.697  0.00  0.00    -0.489 OA
BRANCH  17  18
ATOM     18  C   UNL     1       5.860  -4.757  -7.947  0.00  0.00    +0.226 C 
ATOM     19  C   UNL     1       7.054  -4.626  -8.894  0.00  0.00    +0.048 C 
ENDBRANCH  17  18
ENDBRANCH  10  17
ENDBRANCH   7   8
ENDBRANCH   5   6
BRANCH   1  20
ATOM     20  C   UNL     1       1.285  -8.066  -2.323  0.00  0.00    +0.078 C 
BRANCH  20  22
ATOM     21  C   UNL     1      -0.140  -9.954  -3.127  0.00  0.00    +0.004 C 
ATOM     22  C   UNL     1      -0.153  -8.552  -2.514  0.00  0.00    +0.004 C 
ENDBRANCH  20  22
ENDBRANCH   1  20
BRANCH   4  23
ATOM     23  S   UNL     1       1.220  -2.781  -1.730  0.00  0.00    -0.080 S 
BRANCH  23  24
ATOM     24  C   UNL     1       1.228  -2.186  -0.020  0.00  0.00    +0.112 C 
BRANCH  24  25
ATOM     25  C   UNL     1       1.208  -0.679  -0.013  0.00  0.00    -0.037 A 
ATOM     26  C   UNL     1       0.002  -0.004   0.002  0.00  0.00    +0.006 A 
ATOM     27  C   UNL     1      -0.017   1.378   0.010  0.00  0.00    +0.020 A 
ATOM     28  C   UNL     1       1.172   2.086   0.002  0.00  0.00    +0.041 A 
ATOM     29  C   UNL     1       2.379   1.409  -0.013  0.00  0.00    +0.020 A 
ATOM     30  C   UNL     1       2.397   0.027  -0.021  0.00  0.00    +0.006 A 
ATOM     31 CL   UNL     1       1.149   3.821   0.011  0.00  0.00    -0.084 Cl
ENDBRANCH  24  25
ENDBRANCH  23  24
ENDBRANCH   4  23
TORSDOF 10
