REMARK  Name = ZINC26992308
REMARK  13 active torsions:
REMARK  status: ('A' for Active; 'I' for Inactive)
REMARK    1  A    between atoms: C_1  and  C_2
REMARK    2  A    between atoms: C_3  and  C_30
REMARK    3  A    between atoms: C_4  and  O_24
REMARK    4  A    between atoms: C_5  and  C_23
REMARK    5  A    between atoms: C_9  and  C_12
REMARK    6  A    between atoms: C_12  and  C_13
REMARK    7  A    between atoms: C_13  and  N_14
REMARK    8  A    between atoms: C_19  and  O_22
REMARK    9  A    between atoms: C_20  and  C_21
REMARK   10  A    between atoms: O_24  and  C_25
REMARK   11  A    between atoms: C_25  and  C_27
REMARK   12  A    between atoms: C_27  and  C_28
REMARK   13  A    between atoms: C_28  and  N_29
REMARK                            x       y       z     vdW  Elec       q    Type
REMARK                         _______ _______ _______ _____ _____    ______ ____
ROOT
ATOM      1  C   UNL     1      -2.856   1.536  -0.044  0.00  0.00    +0.048 C 
ATOM      2  C   UNL     1      -2.080   1.788   1.223  0.00  0.00    -0.002 A 
ATOM      3  C   UNL     1      -0.718   1.572   1.248  0.00  0.00    -0.001 A 
ATOM      4  C   UNL     1       0.006   1.805   2.407  0.00  0.00    +0.138 A 
ATOM      5  C   UNL     1      -0.649   2.250   3.548  0.00  0.00    -0.001 A 
ATOM      6  C   UNL     1      -2.009   2.457   3.523  0.00  0.00    +0.004 A 
ATOM      7  C   UNL     1      -2.742   2.232   2.364  0.00  0.00    +0.128 A 
ATOM      8  O   UNL     1      -4.062   2.513   2.554  0.00  0.00    -0.488 OA
ATOM      9  C   UNL     1      -4.347   2.520   3.963  0.00  0.00    +0.180 C 
ATOM     10  C   UNL     1      -2.988   2.918   4.585  0.00  0.00    +0.083 C 
ATOM     11  C   UNL     1       0.130   2.505   4.813  0.00  0.00    +0.048 C 
ATOM     12  C   UNL     1      -0.013   1.086   0.008  0.00  0.00    +0.048 C 
ENDROOT
BRANCH   9  13
ATOM     13  C   UNL     1      -5.420   3.560   4.293  0.00  0.00    +0.066 C 
BRANCH  13  14
ATOM     14  C   UNL     1      -6.775   3.078   3.772  0.00  0.00    +0.125 C 
BRANCH  14  15
ATOM     15  N   UNL     1      -7.802   4.074   4.088  0.00  0.00    -0.347 N 
ATOM     16  C   UNL     1      -8.542   3.927   5.213  0.00  0.00    +0.090 A 
ATOM     17  C   UNL     1      -9.498   4.828   5.535  0.00  0.00    +0.072 A 
ATOM     18  C   UNL     1      -9.723   5.932   4.683  0.00  0.00    +0.223 A 
ATOM     19  O   UNL     1     -10.580   6.762   4.950  0.00  0.00    -0.284 OA
ATOM     20  C   UNL     1      -8.933   6.059   3.512  0.00  0.00    +0.183 A 
ATOM     21  C   UNL     1      -7.988   5.126   3.248  0.00  0.00    +0.061 A 
ATOM     22  C   UNL     1      -7.138   5.252   2.010  0.00  0.00    +0.067 C 
BRANCH  20  23
ATOM     23  O   UNL     1      -9.119   7.109   2.666  0.00  0.00    -0.502 OA
ATOM     24  H   UNL     1      -8.503   7.201   1.759  0.00  0.00    +0.292 HD
ENDBRANCH  20  23
ENDBRANCH  14  15
ENDBRANCH  13  14
ENDBRANCH   9  13
BRANCH   4  25
ATOM     25  O   UNL     1       1.350   1.600   2.427  0.00  0.00    -0.425 OA
BRANCH  25  26
ATOM     26  C   UNL     1       2.131   2.641   2.096  0.00  0.00    +0.311 C 
ATOM     27  O   UNL     1       1.631   3.700   1.799  0.00  0.00    -0.250 OA
BRANCH  26  28
ATOM     28  C   UNL     1       3.630   2.488   2.095  0.00  0.00    +0.101 C 
BRANCH  28  29
ATOM     29  C   UNL     1       4.277   3.813   1.685  0.00  0.00    -0.075 C 
BRANCH  29  30
ATOM     30  N   UNL     1       5.739   3.664   1.684  0.00  0.00    +0.378 N 
ATOM     31  H   UNL     1       6.204   4.616   1.389  0.00  0.00    -0.090 HD
ATOM     32  H   UNL     1       6.027   2.878   0.970  0.00  0.00    -0.090 HD
ATOM     33  H   UNL     1       6.079   3.386   2.693  0.00  0.00    -0.090 HD
ENDBRANCH  29  30
ENDBRANCH  28  29
ENDBRANCH  26  28
ENDBRANCH  25  26
ENDBRANCH   4  25
TORSDOF 9
