REMARK  Name = ZINC62038817
REMARK  10 active torsions:
REMARK  status: ('A' for Active; 'I' for Inactive)
REMARK    1  A    between atoms: C_1  and  C_2
REMARK    2  A    between atoms: C_2  and  C_4
REMARK    3  A    between atoms: C_2  and  S_16
REMARK    4  A    between atoms: N_6  and  C_7
REMARK    5  A    between atoms: C_9  and  C_14
REMARK    6  A    between atoms: C_12  and  O_13
REMARK    7  A    between atoms: S_16  and  C_17
REMARK    8  A    between atoms: C_21  and  C_24
REMARK    9  A    between atoms: N_32  and  C_33
REMARK   10  A    between atoms: C_33  and  C_34
REMARK                            x       y       z     vdW  Elec       q    Type
REMARK                         _______ _______ _______ _____ _____    ______ ____
ROOT
ATOM      1  C   UNL     1      -2.363  -0.131  -1.534  0.00  0.00    +0.174 A 
ATOM      2  N   UNL     1      -1.608   0.557  -2.366  0.00  0.00    -0.216 NA
ATOM      3  C   UNL     1      -2.083   0.967  -3.537  0.00  0.00    +0.117 A 
ATOM      4  C   UNL     1      -3.399   0.691  -3.946  0.00  0.00    +0.080 A 
ATOM      5  C   UNL     1      -3.759   1.214  -5.260  0.00  0.00    +0.004 A 
ATOM      6  C   UNL     1      -2.831   1.902  -5.965  0.00  0.00    +0.056 A 
ATOM      7  S   UNL     1      -1.406   1.888  -4.894  0.00  0.00    -0.076 S 
ATOM      8  C   UNL     1      -4.194  -0.057  -3.023  0.00  0.00    +0.264 A 
ATOM      9  O   UNL     1      -5.348  -0.343  -3.293  0.00  0.00    -0.267 OA
ATOM     10  N   UNL     1      -3.651  -0.447  -1.855  0.00  0.00    -0.283 N 
ENDROOT
BRANCH   5  11
ATOM     11  C   UNL     1      -5.117   0.994  -5.814  0.00  0.00    -0.017 A 
ATOM     12  C   UNL     1      -5.671  -0.285  -5.821  0.00  0.00    +0.008 A 
ATOM     13  C   UNL     1      -6.936  -0.483  -6.337  0.00  0.00    +0.001 A 
ATOM     14  C   UNL     1      -7.653   0.584  -6.846  0.00  0.00    +0.000 A 
ATOM     15  C   UNL     1      -7.108   1.856  -6.842  0.00  0.00    +0.001 A 
ATOM     16  C   UNL     1      -5.847   2.067  -6.323  0.00  0.00    +0.008 A 
ENDBRANCH   5  11
BRANCH   1  17
ATOM     17  S   UNL     1      -1.698  -0.657   0.011  0.00  0.00    -0.075 S 
BRANCH  17  19
ATOM     18  C   UNL     1      -0.026   1.508  -0.005  0.00  0.00    +0.029 C 
ATOM     19  C   UNL     1       0.002  -0.021  -0.004  0.00  0.00    +0.137 C 
BRANCH  19  20
ATOM     20  C   UNL     1       0.731  -0.509   1.221  0.00  0.00    +0.230 C 
ATOM     21  O   UNL     1       0.105  -0.894   2.186  0.00  0.00    -0.274 OA
ATOM     22  N   UNL     1       2.079  -0.519   1.244  0.00  0.00    -0.282 N 
ATOM     23  H   UNL     1       2.579  -0.273   0.450  0.00  0.00    +0.155 HD
BRANCH  22  24
ATOM     24  C   UNL     1       2.757  -0.883   2.415  0.00  0.00    +0.076 A 
ATOM     25  C   UNL     1       2.229  -1.853   3.246  0.00  0.00    +0.038 A 
ATOM     26  C   UNL     1       2.910  -2.214   4.414  0.00  0.00    +0.016 A 
ATOM     27  C   UNL     1       4.122  -1.590   4.735  0.00  0.00    +0.015 A 
ATOM     28  C   UNL     1       4.641  -0.625   3.902  0.00  0.00    +0.048 A 
ATOM     29  C   UNL     1       3.969  -0.270   2.739  0.00  0.00    +0.138 A 
BRANCH  29  30
ATOM     30  O   UNL     1       4.488   0.678   1.919  0.00  0.00    -0.505 OA
ATOM     31  H   UNL     1       4.203   1.578   2.129  0.00  0.00    +0.292 HD
ENDBRANCH  29  30
BRANCH  26  32
ATOM     32  C   UNL     1       2.355  -3.244   5.302  0.00  0.00    +0.258 C 
ATOM     33  O   UNL     1       2.947  -3.555   6.314  0.00  0.00    -0.296 OA
ENDBRANCH  26  32
ENDBRANCH  22  24
ENDBRANCH  19  20
ENDBRANCH  17  19
ENDBRANCH   1  17
BRANCH  10  34
ATOM     34  C   UNL     1      -4.460  -1.219  -0.909  0.00  0.00    +0.154 C 
BRANCH  34  35
ATOM     35  C   UNL     1      -5.183  -0.277   0.019  0.00  0.00    -0.013 C 
ATOM     36  C   UNL     1      -6.486  -0.346   0.137  0.00  0.00    +0.005 C 
ENDBRANCH  34  35
ENDBRANCH  10  34
TORSDOF 9
