REMARK  Name = ZINC49931106
REMARK  6 active torsions:
REMARK  status: ('A' for Active; 'I' for Inactive)
REMARK    1  A    between atoms: C_1  and  C_2
REMARK    2  A    between atoms: C_2  and  C_3
REMARK    3  A    between atoms: C_2  and  N_4
REMARK    4  A    between atoms: C_14  and  N_15
REMARK    5  A    between atoms: N_15  and  C_16
REMARK    6  A    between atoms: N_20  and  C_22
REMARK                            x       y       z     vdW  Elec       q    Type
REMARK                         _______ _______ _______ _____ _____    ______ ____
ROOT
ATOM      1  N   UNL     1      -1.387  -0.517   0.013  0.00  0.00    +0.381 N 
ATOM      2  C   UNL     1      -1.334  -1.974   0.079  0.00  0.00    -0.077 C 
ATOM      3  C   UNL     1      -2.689  -2.632  -0.130  0.00  0.00    -0.042 C 
ATOM      4  C   UNL     1      -3.647  -2.309   1.011  0.00  0.00    +0.000 C 
ATOM      5  C   UNL     1      -4.046  -0.845   1.056  0.00  0.00    +0.000 C 
ATOM      6  C   UNL     1      -4.410  -0.263  -0.300  0.00  0.00    +0.000 C 
ATOM      7  C   UNL     1      -3.430  -0.653  -1.400  0.00  0.00    -0.042 C 
ATOM      8  C   UNL     1      -2.065  -0.017  -1.179  0.00  0.00    -0.077 C 
ATOM      9  C   UNL     1      -3.307  -2.176  -1.453  0.00  0.00    -0.069 C 
ATOM     10  H   UNL     1      -1.823  -0.145   0.842  0.00  0.00    -0.081 HD
ENDROOT
BRANCH   1  12
ATOM     11  C   UNL     1      -0.019   1.526   0.010  0.00  0.00    -0.014 C 
ATOM     12  C   UNL     1       0.002  -0.004   0.002  0.00  0.00    -0.075 C 
ATOM     13  C   UNL     1       0.742  -0.511   1.242  0.00  0.00    -0.014 C 
ENDBRANCH   1  12
BRANCH   9  14
ATOM     14  N   UNL     1      -2.472  -2.590  -2.583  0.00  0.00    +0.382 N 
ATOM     15  H   UNL     1      -1.584  -2.114  -2.537  0.00  0.00    -0.085 HD
ATOM     16  H   UNL     1      -2.323  -3.587  -2.544  0.00  0.00    -0.085 HD
BRANCH  14  17
ATOM     17  C   UNL     1      -3.147  -2.244  -3.842  0.00  0.00    -0.090 C 
ATOM     18  C   UNL     1      -4.416  -3.108  -4.025  0.00  0.00    -0.036 C 
ATOM     19  C   UNL     1      -4.404  -3.426  -5.541  0.00  0.00    -0.080 C 
ATOM     20  N   UNL     1      -2.961  -3.616  -5.837  0.00  0.00    +0.381 N 
ATOM     21  C   UNL     1      -2.247  -2.589  -5.043  0.00  0.00    -0.095 C 
ATOM     22  H   UNL     1      -2.667  -4.540  -5.557  0.00  0.00    -0.082 HD
BRANCH  20  23
ATOM     23  C   UNL     1      -2.706  -3.414  -7.269  0.00  0.00    -0.069 C 
ATOM     24  C   UNL     1      -2.276  -4.632  -8.089  0.00  0.00    -0.017 C 
ATOM     25  C   UNL     1      -1.260  -3.538  -7.755  0.00  0.00    -0.017 C 
ENDBRANCH  20  23
ENDBRANCH  14  17
ENDBRANCH   9  14
TORSDOF 4
