REMARK  Name = ZINC23955927
REMARK  5 active torsions:
REMARK  status: ('A' for Active; 'I' for Inactive)
REMARK    1  A    between atoms: C_1  and  C_2
REMARK    2  A    between atoms: C_9  and  C_11
REMARK    3  A    between atoms: C_14  and  S_16
REMARK    4  A    between atoms: S_16  and  C_17
REMARK    5  A    between atoms: C_17  and  C_18
REMARK                            x       y       z     vdW  Elec       q    Type
REMARK                         _______ _______ _______ _____ _____    ______ ____
ROOT
ATOM      1  S   UNL     1      -0.885   3.119   8.744  0.00  0.00    -0.056 S 
ENDROOT
BRANCH   1   5
ATOM      2  C   UNL     1      -0.438   2.221   4.995  0.00  0.00    +0.256 A 
ATOM      3  N   UNL     1       0.738   1.911   5.490  0.00  0.00    -0.106 NA
ATOM      4  N   UNL     1       0.751   2.163   6.752  0.00  0.00    -0.101 NA
ATOM      5  C   UNL     1      -0.417   2.635   7.116  0.00  0.00    +0.278 A 
ATOM      6  O   UNL     1      -1.195   2.683   6.016  0.00  0.00    -0.410 OA
BRANCH   2  14
ATOM      7  C   UNL     1      -0.149   0.967  -2.482  0.00  0.00    +0.008 C 
ATOM      8  C   UNL     1      -0.758   1.595  -1.226  0.00  0.00    -0.009 C 
ATOM      9  C   UNL     1      -2.239   1.218  -1.137  0.00  0.00    +0.009 C 
ATOM     10  C   UNL     1      -2.897   2.062  -0.035  0.00  0.00    +0.043 C 
ATOM     11  C   UNL     1      -2.029   2.007   1.181  0.00  0.00    -0.006 A 
ATOM     12  C   UNL     1      -0.733   1.581   1.260  0.00  0.00    -0.036 A 
ATOM     13  C   UNL     1      -0.136   1.624   2.510  0.00  0.00    +0.024 A 
ATOM     14  C   UNL     1      -0.856   2.086   3.592  0.00  0.00    +0.076 A 
ATOM     15  S   UNL     1      -2.430   2.476   2.843  0.00  0.00    -0.088 S 
ATOM     16  C   UNL     1      -0.013   1.086   0.008  0.00  0.00    +0.039 C 
ENDBRANCH   2  14
ENDBRANCH   1   5
BRANCH   1  17
ATOM     17  C   UNL     1       0.654   2.767   9.630  0.00  0.00    +0.175 C 
BRANCH  17  18
ATOM     18  C   UNL     1       0.486   3.115  11.087  0.00  0.00    +0.231 C 
ATOM     19  O   UNL     1      -0.571   3.556  11.487  0.00  0.00    -0.274 OA
ATOM     20  N   UNL     1       1.509   2.934  11.945  0.00  0.00    -0.260 N 
ATOM     21  C   UNL     1       2.800   2.401  11.486  0.00  0.00    +0.209 C 
ATOM     22  C   UNL     1       3.307   1.403  12.496  0.00  0.00    +0.235 C 
ATOM     23  O   UNL     1       4.015   0.488  12.131  0.00  0.00    -0.274 OA
ATOM     24  N   UNL     1       2.983   1.515  13.798  0.00  0.00    -0.283 N 
ATOM     25  C   UNL     1       2.128   2.531  14.238  0.00  0.00    +0.055 A 
ATOM     26  C   UNL     1       1.379   3.256  13.305  0.00  0.00    +0.058 A 
ATOM     27  C   UNL     1       0.528   4.263  13.723  0.00  0.00    +0.025 A 
ATOM     28  C   UNL     1       0.424   4.559  15.071  0.00  0.00    +0.002 A 
ATOM     29  C   UNL     1       1.169   3.852  15.997  0.00  0.00    +0.002 A 
ATOM     30  C   UNL     1       2.018   2.831  15.586  0.00  0.00    +0.025 A 
ATOM     31  H   UNL     1       3.392   0.803  14.529  0.00  0.00    +0.155 HD
ENDBRANCH  17  18
ENDBRANCH   1  17
TORSDOF 4
