REMARK  Name = ZINC39673981
REMARK  6 active torsions:
REMARK  status: ('A' for Active; 'I' for Inactive)
REMARK    1  A    between atoms: C_1  and  C_2
REMARK    2  A    between atoms: C_4  and  C_12
REMARK    3  A    between atoms: C_12  and  C_13
REMARK    4  A    between atoms: C_13  and  N_14
REMARK    5  A    between atoms: C_15  and  C_17
REMARK    6  A    between atoms: C_28  and  C_30
REMARK                            x       y       z     vdW  Elec       q    Type
REMARK                         _______ _______ _______ _____ _____    ______ ____
ROOT
ATOM      1  C   UNL     1      -5.889   3.295   4.053  0.00  0.00    +0.100 C 
ATOM      2  C   UNL     1      -5.144   2.183   4.824  0.00  0.00    +0.121 C 
ATOM      3  N   UNL     1      -4.382   2.900   5.873  0.00  0.00    -0.296 N 
ATOM      4  C   UNL     1      -5.304   3.965   6.335  0.00  0.00    +0.115 C 
ATOM      5  C   UNL     1      -5.996   4.462   5.050  0.00  0.00    -0.004 C 
ATOM      6  C   UNL     1      -7.460   4.786   5.330  0.00  0.00    -0.010 C 
ATOM      7  C   UNL     1      -7.541   5.987   6.277  0.00  0.00    -0.082 C 
ATOM      8  N   UNL     1      -6.872   7.141   5.665  0.00  0.00    +0.379 N 
ATOM      9  C   UNL     1      -5.443   6.854   5.485  0.00  0.00    -0.082 C 
ATOM     10  C   UNL     1      -5.274   5.690   4.504  0.00  0.00    -0.010 C 
ATOM     11  C   UNL     1      -3.134   2.641   6.310  0.00  0.00    +0.247 C 
ATOM     12  O   UNL     1      -2.452   1.809   5.745  0.00  0.00    -0.270 OA
ATOM     13  H   UNL     1      -7.291   7.334   4.768  0.00  0.00    -0.086 HD
ATOM     14  H   UNL     1      -6.979   7.946   6.263  0.00  0.00    -0.086 HD
ENDROOT
BRANCH  11  15
ATOM     15  C   UNL     1      -2.593   3.370   7.477  0.00  0.00    +0.037 A 
ATOM     16  C   UNL     1      -3.460   3.982   8.384  0.00  0.00    +0.014 A 
ATOM     17  C   UNL     1      -2.950   4.660   9.471  0.00  0.00    +0.021 A 
ATOM     18  C   UNL     1      -1.581   4.735   9.663  0.00  0.00    +0.041 A 
ATOM     19  C   UNL     1      -0.715   4.130   8.767  0.00  0.00    +0.021 A 
ATOM     20  C   UNL     1      -1.214   3.444   7.679  0.00  0.00    +0.014 A 
ATOM     21 CL   UNL     1      -0.946   5.592  11.033  0.00  0.00    -0.084 Cl
ENDBRANCH  11  15
BRANCH   1  23
ATOM     22  N   UNL     1      -5.727   4.286   1.793  0.00  0.00    -0.315 N 
ATOM     23  C   UNL     1      -5.100   3.712   2.839  0.00  0.00    +0.218 C 
ATOM     24  O   UNL     1      -3.901   3.532   2.804  0.00  0.00    -0.275 OA
ATOM     25  H   UNL     1      -6.686   4.430   1.821  0.00  0.00    +0.149 HD
BRANCH  22  26
ATOM     26  C   UNL     1      -4.960   4.691   0.612  0.00  0.00    +0.109 C 
BRANCH  26  27
ATOM     27  C   UNL     1      -5.903   5.311  -0.421  0.00  0.00    +0.056 C 
BRANCH  27  31
ATOM     28  C   UNL     1      -5.316   3.554  -2.912  0.00  0.00    +0.063 C 
ATOM     29  C   UNL     1      -4.855   4.976  -2.716  0.00  0.00    +0.017 A 
ATOM     30  H   UNL     1      -3.793   5.354  -4.468  0.00  0.00    +0.166 HD
ATOM     31  C   UNL     1      -5.114   5.728  -1.635  0.00  0.00    -0.018 A 
ATOM     32  C   UNL     1      -4.484   7.031  -1.859  0.00  0.00    +0.003 A 
ATOM     33  C   UNL     1      -4.400   8.209  -1.115  0.00  0.00    +0.010 A 
ATOM     34  C   UNL     1      -3.719   9.282  -1.618  0.00  0.00    +0.001 A 
ATOM     35  C   UNL     1      -3.108   9.209  -2.862  0.00  0.00    +0.002 A 
ATOM     36  C   UNL     1      -3.178   8.056  -3.613  0.00  0.00    +0.026 A 
ATOM     37  C   UNL     1      -3.867   6.952  -3.122  0.00  0.00    +0.047 A 
ATOM     38  N   UNL     1      -4.106   5.689  -3.613  0.00  0.00    -0.358 N 
ENDBRANCH  27  31
ENDBRANCH  26  27
ENDBRANCH  22  26
ENDBRANCH   1  23
TORSDOF 5
