REMARK  Name = ZINC33740735
REMARK  9 active torsions:
REMARK  status: ('A' for Active; 'I' for Inactive)
REMARK    1  A    between atoms: C_1  and  O_2
REMARK    2  A    between atoms: O_2  and  C_3
REMARK    3  A    between atoms: C_3  and  C_5
REMARK    4  A    between atoms: C_6  and  C_7
REMARK    5  A    between atoms: N_9  and  C_10
REMARK    6  A    between atoms: C_14  and  O_36
REMARK    7  A    between atoms: C_21  and  O_35
REMARK    8  A    between atoms: N_30  and  C_31
REMARK    9  A    between atoms: C_31  and  C_32
REMARK                            x       y       z     vdW  Elec       q    Type
REMARK                         _______ _______ _______ _____ _____    ______ ____
ROOT
ATOM      1  C   UNL     1      -1.644   1.955  -0.081  0.00  0.00    +0.115 C 
ATOM      2  C   UNL     1      -2.000   2.218   1.363  0.00  0.00    +0.029 C 
ATOM      3  C   UNL     1      -2.311   0.927   2.111  0.00  0.00    +0.036 C 
ATOM      4  C   UNL     1      -3.544   0.299   1.468  0.00  0.00    +0.068 C 
ATOM      5  C   UNL     1      -3.923  -1.008   2.163  0.00  0.00    -0.031 C 
ATOM      6  C   UNL     1      -2.822  -2.055   2.177  0.00  0.00    +0.023 C 
ATOM      7  C   UNL     1      -1.970  -2.031   0.949  0.00  0.00    -0.041 A 
ATOM      8  C   UNL     1      -0.934  -2.911   0.688  0.00  0.00    +0.007 A 
ATOM      9  C   UNL     1      -0.162  -2.761  -0.452  0.00  0.00    +0.049 A 
ATOM     10  C   UNL     1      -0.354  -1.734  -1.375  0.00  0.00    +0.159 A 
ATOM     11  C   UNL     1      -1.405  -0.846  -1.127  0.00  0.00    +0.166 A 
ATOM     12  C   UNL     1      -2.197  -1.071  -0.009  0.00  0.00    +0.013 A 
ATOM     13  C   UNL     1      -3.269  -0.007   0.007  0.00  0.00    +0.064 C 
ATOM     14  C   UNL     1      -2.614   1.071  -0.839  0.00  0.00    +0.207 C 
ATOM     15  O   UNL     1      -1.813   0.271  -1.768  0.00  0.00    -0.482 OA
ATOM     16  C   UNL     1      -4.536  -0.564  -0.644  0.00  0.00    -0.001 C 
ATOM     17  C   UNL     1      -4.936  -1.841   0.107  0.00  0.00    -0.077 C 
ATOM     18  N   UNL     1      -5.134  -1.549   1.530  0.00  0.00    +0.384 N 
ATOM     19  H   UNL     1      -5.906  -0.768   1.591  0.00  0.00    -0.081 HD
ENDROOT
BRANCH   1  22
ATOM     20  C   UNL     1       0.688   1.921  -0.787  0.00  0.00    +0.237 C 
ATOM     21  O   UNL     1       0.502   2.981  -1.351  0.00  0.00    -0.271 OA
ATOM     22  N   UNL     1      -0.322   1.326  -0.121  0.00  0.00    -0.305 N 
ATOM     23  H   UNL     1      -0.152   0.368   0.393  0.00  0.00    +0.149 HD
BRANCH  20  25
ATOM     24  C   UNL     1       3.025   1.876  -1.496  0.00  0.00    +0.096 C 
ATOM     25  C   UNL     1       2.019   1.283  -0.833  0.00  0.00    +0.074 C 
BRANCH  24  26
ATOM     26  C   UNL     1       4.355   1.240  -1.541  0.00  0.00    +0.332 C 
ATOM     27  O   UNL     1       4.540   0.179  -0.978  0.00  0.00    -0.246 OA
BRANCH  26  29
ATOM     28  C   UNL     1       6.645   1.151  -2.210  0.00  0.00    +0.280 C 
ATOM     29  O   UNL     1       5.364   1.834  -2.208  0.00  0.00    -0.465 OA
ENDBRANCH  26  29
ENDBRANCH  24  26
ENDBRANCH  20  25
ENDBRANCH   1  22
BRANCH  10  30
ATOM     30  O   UNL     1       0.445  -1.603  -2.467  0.00  0.00    -0.503 OA
ATOM     31  H   UNL     1       0.271  -0.783  -3.180  0.00  0.00    +0.292 HD
ENDBRANCH  10  30
BRANCH   4  32
ATOM     32  O   UNL     1      -4.635   1.218   1.561  0.00  0.00    -0.389 OA
ATOM     33  H   UNL     1      -5.619   0.947   1.151  0.00  0.00    +0.210 HD
ENDBRANCH   4  32
BRANCH  18  34
ATOM     34  C   UNL     1      -5.617  -2.736   2.248  0.00  0.00    -0.075 C 
BRANCH  34  35
ATOM     35  C   UNL     1      -5.707  -2.426   3.744  0.00  0.00    -0.028 C 
ATOM     36  C   UNL     1      -4.787  -3.207   4.684  0.00  0.00    +0.002 C 
ATOM     37  C   UNL     1      -6.287  -3.509   4.656  0.00  0.00    +0.002 C 
ENDBRANCH  34  35
ENDBRANCH  18  34
TORSDOF 8
