REMARK  Name = ZINC06288385
REMARK  9 active torsions:
REMARK  status: ('A' for Active; 'I' for Inactive)
REMARK    1  A    between atoms: C_1  and  C_2
REMARK    2  A    between atoms: C_6  and  N_9
REMARK    3  A    between atoms: C_7  and  C_8
REMARK    4  A    between atoms: N_9  and  C_10
REMARK    5  A    between atoms: C_10  and  N_12
REMARK    6  A    between atoms: N_12  and  N_13
REMARK    7  A    between atoms: C_14  and  C_15
REMARK    8  A    between atoms: C_18  and  O_22
REMARK    9  A    between atoms: C_20  and  O_21
REMARK                            x       y       z     vdW  Elec       q    Type
REMARK                         _______ _______ _______ _____ _____    ______ ____
ROOT
ATOM      1  N   UNL     1      -0.018   5.491  -0.170  0.00  0.00    -0.218 N 
ATOM      2  H   UNL     1      -0.861   5.967  -0.233  0.00  0.00    +0.176 HD
ENDROOT
BRANCH   1   3
ATOM      3  C   UNL     1      -0.009   4.146  -0.076  0.00  0.00    +0.154 C 
ATOM      4  S   UNL     1      -1.485   3.279  -0.067  0.00  0.00    -0.017 S 
BRANCH   3   5
ATOM      5  N   UNL     1       1.162   3.485   0.010  0.00  0.00    -0.295 N 
ATOM      6  H   UNL     1       1.993   3.978   0.085  0.00  0.00    +0.154 HD
BRANCH   5  12
ATOM      7  C   UNL     1       2.850  -0.751   1.846  0.00  0.00    +0.044 C 
ATOM      8  C   UNL     1       1.987   0.007   0.871  0.00  0.00    -0.046 A 
ATOM      9  C   UNL     1       1.210  -0.680  -0.043  0.00  0.00    +0.004 A 
ATOM     10  C   UNL     1       0.416   0.012  -0.939  0.00  0.00    +0.002 A 
ATOM     11  C   UNL     1       0.398   1.393  -0.924  0.00  0.00    +0.023 A 
ATOM     12  C   UNL     1       1.178   2.086  -0.008  0.00  0.00    +0.036 A 
ATOM     13  C   UNL     1       1.974   1.388   0.891  0.00  0.00    -0.026 A 
ATOM     14  C   UNL     1       2.821   2.136   1.888  0.00  0.00    +0.046 C 
ENDBRANCH   5  12
ENDBRANCH   3   5
ENDBRANCH   1   3
BRANCH   1  15
ATOM     15  N   UNL     1       1.189   6.201  -0.178  0.00  0.00    -0.188 NA
ATOM     16  C   UNL     1       1.181   7.496  -0.268  0.00  0.00    +0.141 C 
BRANCH  16  17
ATOM     17  C   UNL     1       2.451   8.242  -0.276  0.00  0.00    +0.036 A 
ATOM     18  C   UNL     1       2.444   9.636  -0.373  0.00  0.00    +0.016 A 
ATOM     19  C   UNL     1       3.634  10.331  -0.380  0.00  0.00    +0.046 A 
ATOM     20  C   UNL     1       4.842   9.649  -0.291  0.00  0.00    +0.120 A 
ATOM     21  C   UNL     1       4.859   8.265  -0.194  0.00  0.00    +0.091 A 
ATOM     22  C   UNL     1       3.670   7.557  -0.180  0.00  0.00    +0.129 A 
BRANCH  22  23
ATOM     23  O   UNL     1       3.685   6.203  -0.080  0.00  0.00    -0.506 OA
ATOM     24  H   UNL     1       3.722   5.746  -0.931  0.00  0.00    +0.292 HD
ENDBRANCH  22  23
BRANCH  20  25
ATOM     25  O   UNL     1       6.011  10.341  -0.299  0.00  0.00    -0.507 OA
ATOM     26  H   UNL     1       6.319  10.603   0.580  0.00  0.00    +0.292 HD
ENDBRANCH  20  25
ENDBRANCH  16  17
ENDBRANCH   1  15
TORSDOF 7
