REMARK  Name = ZINC38858098
REMARK  6 active torsions:
REMARK  status: ('A' for Active; 'I' for Inactive)
REMARK    1  A    between atoms: C_4  and  C_7
REMARK    2  A    between atoms: C_7  and  C_8
REMARK    3  A    between atoms: C_7  and  N_14
REMARK    4  A    between atoms: C_20  and  C_22
REMARK    5  A    between atoms: N_27  and  C_29
REMARK    6  A    between atoms: C_29  and  C_30
REMARK                            x       y       z     vdW  Elec       q    Type
REMARK                         _______ _______ _______ _____ _____    ______ ____
ROOT
ATOM      1  N   UNL     1       4.473  -0.839  -1.312  0.00  0.00    -0.289 NA
ATOM      2  C   UNL     1       3.917  -0.635  -2.656  0.00  0.00    +0.104 C 
ATOM      3  C   UNL     1       3.439  -1.979  -3.216  0.00  0.00    +0.123 C 
ATOM      4  N   UNL     1       4.551  -2.939  -3.142  0.00  0.00    -0.299 N 
ATOM      5  C   UNL     1       5.250  -3.096  -1.858  0.00  0.00    +0.123 C 
ATOM      6  C   UNL     1       5.656  -1.709  -1.351  0.00  0.00    +0.104 C 
ATOM      7  C   UNL     1       4.920  -3.655  -4.223  0.00  0.00    +0.217 C 
ATOM      8  O   UNL     1       4.270  -3.590  -5.245  0.00  0.00    -0.275 OA
ENDROOT
BRANCH   7   9
ATOM      9  C   UNL     1       6.141  -4.536  -4.162  0.00  0.00    +0.059 C 
ATOM     10  C   UNL     1       5.818  -5.802  -3.364  0.00  0.00    +0.009 C 
ATOM     11  C   UNL     1       7.040  -6.726  -3.374  0.00  0.00    -0.018 C 
ATOM     12  C   UNL     1       7.427  -7.035  -4.822  0.00  0.00    -0.078 C 
ATOM     13  N   UNL     1       7.749  -5.787  -5.524  0.00  0.00    +0.383 N 
ATOM     14  C   UNL     1       6.562  -4.925  -5.581  0.00  0.00    -0.066 C 
ATOM     15  H   UNL     1       8.488  -5.307  -5.032  0.00  0.00    -0.081 HD
BRANCH  13  16
ATOM     16  C   UNL     1       8.194  -6.095  -6.889  0.00  0.00    -0.042 C 
BRANCH  16  17
ATOM     17  C   UNL     1       9.484  -6.873  -6.834  0.00  0.00    -0.056 A 
ATOM     18  C   UNL     1       9.485  -8.213  -7.072  0.00  0.00    +0.002 A 
ATOM     19  C   UNL     1      10.668  -8.949  -7.025  0.00  0.00    +0.001 A 
ATOM     20  C   UNL     1      11.856  -8.348  -6.739  0.00  0.00    +0.008 A 
ATOM     21  C   UNL     1      11.894  -6.967  -6.488  0.00  0.00    -0.018 A 
ATOM     22  C   UNL     1      10.692  -6.217  -6.542  0.00  0.00    -0.017 A 
ATOM     23  C   UNL     1      10.731  -4.834  -6.296  0.00  0.00    +0.009 A 
ATOM     24  C   UNL     1      11.919  -4.233  -6.016  0.00  0.00    +0.001 A 
ATOM     25  C   UNL     1      13.102  -4.969  -5.970  0.00  0.00    +0.001 A 
ATOM     26  C   UNL     1      13.101  -6.312  -6.189  0.00  0.00    +0.008 A 
ENDBRANCH  16  17
ENDBRANCH  13  16
ENDBRANCH   7   9
BRANCH   1  27
ATOM     27  C   UNL     1       4.785   0.446  -0.672  0.00  0.00    +0.117 C 
BRANCH  27  31
ATOM     28  C   UNL     1       1.284   2.893  -0.613  0.00  0.00    +0.000 A 
ATOM     29  C   UNL     1       2.517   3.456  -0.886  0.00  0.00    +0.000 A 
ATOM     30  C   UNL     1       3.650   2.664  -0.905  0.00  0.00    +0.005 A 
ATOM     31  C   UNL     1       3.550   1.309  -0.650  0.00  0.00    -0.026 A 
ATOM     32  C   UNL     1       2.318   0.746  -0.376  0.00  0.00    +0.005 A 
ATOM     33  C   UNL     1       1.185   1.538  -0.358  0.00  0.00    +0.000 A 
ENDBRANCH  27  31
BRANCH  27  34
ATOM     34  C   UNL     1       5.253   0.203   0.740  0.00  0.00    -0.026 A 
ATOM     35  C   UNL     1       4.639  -0.764   1.515  0.00  0.00    +0.005 A 
ATOM     36  C   UNL     1       5.068  -0.987   2.810  0.00  0.00    +0.000 A 
ATOM     37  C   UNL     1       6.111  -0.244   3.330  0.00  0.00    +0.000 A 
ATOM     38  C   UNL     1       6.726   0.722   2.555  0.00  0.00    +0.000 A 
ATOM     39  C   UNL     1       6.299   0.942   1.259  0.00  0.00    +0.005 A 
ENDBRANCH  27  34
ENDBRANCH   1  27
TORSDOF 6
