REMARK  Name = ZINC36728343
REMARK  10 active torsions:
REMARK  status: ('A' for Active; 'I' for Inactive)
REMARK    1  A    between atoms: C_1  and  O_2
REMARK    2  A    between atoms: O_2  and  C_3
REMARK    3  A    between atoms: C_3  and  C_4
REMARK    4  A    between atoms: C_4  and  N_5
REMARK    5  A    between atoms: N_5  and  C_6
REMARK    6  A    between atoms: C_6  and  C_7
REMARK    7  A    between atoms: C_19  and  C_21
REMARK    8  A    between atoms: C_24  and  C_26
REMARK    9  A    between atoms: C_26  and  O_27
REMARK   10  A    between atoms: O_27  and  C_28
REMARK                            x       y       z     vdW  Elec       q    Type
REMARK                         _______ _______ _______ _____ _____    ______ ____
ROOT
ATOM      1  N   UNL     1       1.401  -2.538  -0.200  0.00  0.00    -0.286 N 
ATOM      2  C   UNL     1       0.609  -2.717  -1.276  0.00  0.00    +0.282 C 
ATOM      3  O   UNL     1      -0.575  -2.440  -1.213  0.00  0.00    -0.267 OA
ENDROOT
BRANCH   2   4
ATOM      4  C   UNL     1       1.173  -3.246  -2.522  0.00  0.00    +0.190 A 
ATOM      5  C   UNL     1       0.471  -3.557  -3.652  0.00  0.00    +0.055 A 
ATOM      6  C   UNL     1       1.405  -4.025  -4.590  0.00  0.00    +0.049 A 
ATOM      7  C   UNL     1       2.619  -3.979  -3.999  0.00  0.00    +0.143 A 
ATOM      8  O   UNL     1       2.476  -3.505  -2.755  0.00  0.00    -0.452 OA
BRANCH   7   9
ATOM      9  C   UNL     1       3.921  -4.391  -4.638  0.00  0.00    +0.303 C 
BRANCH   9  10
ATOM     10  O   UNL     1       4.506  -3.264  -5.294  0.00  0.00    -0.484 OA
BRANCH  10  11
ATOM     11  C   UNL     1       5.693  -3.466  -5.924  0.00  0.00    +0.122 A 
ATOM     12  C   UNL     1       6.275  -4.737  -5.910  0.00  0.00    +0.046 A 
ATOM     13  C   UNL     1       7.462  -4.970  -6.532  0.00  0.00    +0.012 A 
ATOM     14  C   UNL     1       8.117  -3.920  -7.200  0.00  0.00    -0.018 A 
ATOM     15  C   UNL     1       9.344  -4.126  -7.853  0.00  0.00    +0.008 A 
ATOM     16  C   UNL     1       9.950  -3.087  -8.491  0.00  0.00    +0.001 A 
ATOM     17  C   UNL     1       9.371  -1.819  -8.507  0.00  0.00    +0.001 A 
ATOM     18  C   UNL     1       8.184  -1.583  -7.886  0.00  0.00    +0.008 A 
ATOM     19  C   UNL     1       7.528  -2.631  -7.216  0.00  0.00    -0.014 A 
ATOM     20  C   UNL     1       6.299  -2.425  -6.568  0.00  0.00    +0.054 A 
ENDBRANCH  10  11
ENDBRANCH   9  10
ENDBRANCH   7   9
ENDBRANCH   2   4
BRANCH   1  21
ATOM     21  C   UNL     1       0.817  -2.126   1.079  0.00  0.00    +0.136 C 
BRANCH  21  22
ATOM     22  C   UNL     1       0.909  -0.605   1.215  0.00  0.00    +0.178 C 
BRANCH  22  24
ATOM     23  C   UNL     1       0.114   1.441   0.253  0.00  0.00    +0.194 C 
ATOM     24  O   UNL     1       0.098   0.013   0.214  0.00  0.00    -0.381 OA
ENDBRANCH  22  24
ENDBRANCH  21  22
ENDBRANCH   1  21
BRANCH   1  25
ATOM     25  C   UNL     1       2.845  -2.754  -0.310  0.00  0.00    +0.182 C 
BRANCH  25  26
ATOM     26  C   UNL     1       3.150  -4.218  -0.122  0.00  0.00    +0.128 A 
ATOM     27  N   UNL     1       4.446  -4.620  -0.184  0.00  0.00    -0.309 N 
ATOM     28  H   UNL     1       5.144  -3.967  -0.346  0.00  0.00    +0.170 HD
ATOM     29  C   UNL     1       4.772  -5.924  -0.020  0.00  0.00    +0.259 A 
ATOM     30  O   UNL     1       5.929  -6.298  -0.073  0.00  0.00    -0.267 OA
ATOM     31  C   UNL     1       3.673  -6.870   0.224  0.00  0.00    +0.065 A 
ATOM     32  C   UNL     1       3.901  -8.233   0.405  0.00  0.00    +0.015 A 
ATOM     33  C   UNL     1       2.835  -9.076   0.630  0.00  0.00    +0.001 A 
ATOM     34  C   UNL     1       1.539  -8.578   0.677  0.00  0.00    +0.002 A 
ATOM     35  C   UNL     1       1.292  -7.235   0.500  0.00  0.00    +0.028 A 
ATOM     36  C   UNL     1       2.357  -6.361   0.271  0.00  0.00    +0.078 A 
ATOM     37  N   UNL     1       2.160  -5.030   0.097  0.00  0.00    -0.232 NA
ENDBRANCH  25  26
ENDBRANCH   1  25
TORSDOF 9
