REMARK  Name = ZINC06922854
REMARK  7 active torsions:
REMARK  status: ('A' for Active; 'I' for Inactive)
REMARK    1  A    between atoms: C_1  and  C_2
REMARK    2  A    between atoms: C_5  and  C_8
REMARK    3  A    between atoms: C_8  and  O_9
REMARK    4  A    between atoms: O_9  and  C_10
REMARK    5  A    between atoms: C_13  and  C_16
REMARK    6  A    between atoms: N_17  and  N_18
REMARK    7  A    between atoms: C_19  and  C_25
REMARK                            x       y       z     vdW  Elec       q    Type
REMARK                         _______ _______ _______ _____ _____    ______ ____
ROOT
ATOM      1  C   UNL     1      -3.645  -2.176   0.026  0.00  0.00    +0.121 A 
ATOM      2  C   UNL     1      -2.434  -2.857   0.010  0.00  0.00    +0.046 A 
ATOM      3  C   UNL     1      -1.248  -2.156   0.002  0.00  0.00    +0.013 A 
ATOM      4  C   UNL     1      -1.264  -0.758   0.010  0.00  0.00    -0.005 A 
ATOM      5  C   UNL     1      -2.485  -0.078   0.031  0.00  0.00    +0.013 A 
ATOM      6  C   UNL     1      -3.666  -0.787   0.034  0.00  0.00    +0.046 A 
ENDROOT
BRANCH   4   7
ATOM      7  C   UNL     1       0.002  -0.004   0.002  0.00  0.00    +0.141 C 
ATOM      8  N   UNL     1      -0.015   1.294   0.009  0.00  0.00    -0.171 NA
BRANCH   8   9
ATOM      9  N   UNL     1       1.188   2.011   0.002  0.00  0.00    -0.188 N 
ATOM     10  C   UNL     1       1.873   2.432  -1.123  0.00  0.00    +0.184 A 
ATOM     11  N   UNL     1       2.946   3.067  -0.740  0.00  0.00    -0.152 NA
ATOM     12  N   UNL     1       2.973   3.068   0.661  0.00  0.00    -0.253 N 
ATOM     13  H   UNL     1       3.804   3.554   1.194  0.00  0.00    +0.191 HD
ATOM     14  C   UNL     1       1.874   2.414   1.089  0.00  0.00    +0.197 A 
ATOM     15  S   UNL     1       1.432   2.143   2.721  0.00  0.00    -0.010 S 
BRANCH  10  16
ATOM     16  C   UNL     1       1.459   2.199  -2.524  0.00  0.00    +0.021 A 
ATOM     17  C   UNL     1       0.481   1.248  -2.817  0.00  0.00    +0.011 A 
ATOM     18  C   UNL     1       0.096   1.041  -4.126  0.00  0.00    +0.001 A 
ATOM     19  C   UNL     1       0.685   1.764  -5.147  0.00  0.00    +0.000 A 
ATOM     20  C   UNL     1       1.659   2.705  -4.863  0.00  0.00    +0.001 A 
ATOM     21  C   UNL     1       2.050   2.926  -3.558  0.00  0.00    +0.011 A 
ENDBRANCH  10  16
ENDBRANCH   8   9
ENDBRANCH   4   7
BRANCH   1  22
ATOM     22  O   UNL     1      -4.812  -2.872   0.033  0.00  0.00    -0.487 OA
BRANCH  22  23
ATOM     23  C   UNL     1      -6.021  -2.110   0.049  0.00  0.00    +0.264 C 
BRANCH  23  28
ATOM     24  C   UNL     1     -10.556  -5.691   0.073  0.00  0.00    +0.044 C 
ATOM     25  C   UNL     1      -9.373  -4.757   0.067  0.00  0.00    -0.050 A 
ATOM     26  C   UNL     1      -8.819  -4.336   1.261  0.00  0.00    +0.004 A 
ATOM     27  C   UNL     1      -7.734  -3.479   1.255  0.00  0.00    +0.007 A 
ATOM     28  C   UNL     1      -7.203  -3.044   0.055  0.00  0.00    -0.010 A 
ATOM     29  C   UNL     1      -7.761  -3.461  -1.139  0.00  0.00    +0.007 A 
ATOM     30  C   UNL     1      -8.843  -4.322  -1.133  0.00  0.00    +0.004 A 
ENDBRANCH  23  28
ENDBRANCH  22  23
ENDBRANCH   1  22
TORSDOF 6
