REMARK  Name = ZINC59305563
REMARK  7 active torsions:
REMARK  status: ('A' for Active; 'I' for Inactive)
REMARK    1  A    between atoms: C_1  and  C_2
REMARK    2  A    between atoms: C_5  and  C_8
REMARK    3  A    between atoms: C_10  and  C_28
REMARK    4  A    between atoms: C_11  and  C_27
REMARK    5  A    between atoms: C_18  and  C_19
REMARK    6  A    between atoms: C_22  and  O_25
REMARK    7  A    between atoms: N_30  and  C_31
REMARK                            x       y       z     vdW  Elec       q    Type
REMARK                         _______ _______ _______ _____ _____    ______ ____
ROOT
ATOM      1  C   UNL     1       0.627  -4.154   0.345  0.00  0.00    +0.160 C 
ATOM      2  C   UNL     1       2.057  -4.308   0.810  0.00  0.00    +0.063 C 
ATOM      3  C   UNL     1       2.307  -5.152   1.854  0.00  0.00    +0.051 C 
ATOM      4  N   UNL     1       1.316  -5.815   2.438  0.00  0.00    -0.228 NA
ATOM      5  C   UNL     1       0.056  -5.733   2.092  0.00  0.00    +0.178 A 
ATOM      6  N   UNL     1      -0.410  -4.942   1.068  0.00  0.00    -0.275 N 
ATOM      7  C   UNL     1      -1.724  -4.941   0.806  0.00  0.00    +0.268 A 
ATOM      8  O   UNL     1      -2.183  -4.258  -0.091  0.00  0.00    -0.266 OA
ATOM      9  C   UNL     1      -2.593  -5.788   1.633  0.00  0.00    +0.081 A 
ATOM     10  C   UNL     1      -3.939  -5.964   1.573  0.00  0.00    +0.028 C 
ATOM     11  S   UNL     1      -1.403  -6.527   2.737  0.00  0.00    -0.046 S 
ATOM     12  C   UNL     1       3.719  -5.332   2.347  0.00  0.00    +0.066 C 
ENDROOT
BRANCH   1  17
ATOM     13  C   UNL     1      -0.786   1.434   0.748  0.00  0.00    +0.044 C 
ATOM     14  C   UNL     1      -0.417  -0.023   0.643  0.00  0.00    -0.050 A 
ATOM     15  C   UNL     1      -0.044  -0.556  -0.577  0.00  0.00    +0.004 A 
ATOM     16  C   UNL     1       0.294  -1.893  -0.674  0.00  0.00    +0.006 A 
ATOM     17  C   UNL     1       0.260  -2.697   0.450  0.00  0.00    -0.020 A 
ATOM     18  C   UNL     1      -0.112  -2.164   1.670  0.00  0.00    +0.006 A 
ATOM     19  C   UNL     1      -0.446  -0.826   1.768  0.00  0.00    +0.004 A 
ENDBRANCH   1  17
BRANCH  10  20
ATOM     20  C   UNL     1      -4.703  -5.397   0.455  0.00  0.00    -0.024 A 
ATOM     21  C   UNL     1      -4.213  -5.496  -0.853  0.00  0.00    +0.011 A 
ATOM     22  C   UNL     1      -4.935  -4.963  -1.898  0.00  0.00    +0.046 A 
ATOM     23  C   UNL     1      -6.147  -4.327  -1.656  0.00  0.00    +0.117 A 
ATOM     24  C   UNL     1      -6.638  -4.226  -0.359  0.00  0.00    +0.046 A 
ATOM     25  C   UNL     1      -5.928  -4.761   0.692  0.00  0.00    +0.011 A 
BRANCH  23  26
ATOM     26  O   UNL     1      -6.854  -3.804  -2.689  0.00  0.00    -0.507 OA
ATOM     27  H   UNL     1      -7.482  -4.421  -3.089  0.00  0.00    +0.292 HD
ENDBRANCH  23  26
ENDBRANCH  10  20
BRANCH   2  28
ATOM     28  C   UNL     1       3.101  -3.602   0.184  0.00  0.00    +0.248 C 
ATOM     29  O   UNL     1       3.521  -3.969  -0.900  0.00  0.00    -0.270 OA
ATOM     30  N   UNL     1       3.637  -2.521   0.784  0.00  0.00    -0.282 N 
ATOM     31  H   UNL     1       3.364  -2.279   1.682  0.00  0.00    +0.155 HD
BRANCH  30  32
ATOM     32  C   UNL     1       4.589  -1.748   0.111  0.00  0.00    +0.034 A 
ATOM     33  C   UNL     1       4.509  -1.590  -1.267  0.00  0.00    +0.023 A 
ATOM     34  C   UNL     1       5.450  -0.826  -1.929  0.00  0.00    +0.002 A 
ATOM     35  C   UNL     1       6.471  -0.219  -1.221  0.00  0.00    +0.000 A 
ATOM     36  C   UNL     1       6.554  -0.374   0.150  0.00  0.00    +0.002 A 
ATOM     37  C   UNL     1       5.612  -1.131   0.819  0.00  0.00    +0.023 A 
ENDBRANCH  30  32
ENDBRANCH   2  28
TORSDOF 5
