REMARK  Name = ZINC36313544
REMARK  10 active torsions:
REMARK  status: ('A' for Active; 'I' for Inactive)
REMARK    1  A    between atoms: C_3  and  C_6
REMARK    2  A    between atoms: C_6  and  N_7
REMARK    3  A    between atoms: N_7  and  C_8
REMARK    4  A    between atoms: N_7  and  C_25
REMARK    5  A    between atoms: C_8  and  C_9
REMARK    6  A    between atoms: C_25  and  C_26
REMARK    7  A    between atoms: C_26  and  C_28
REMARK    8  A    between atoms: C_26  and  O_37
REMARK    9  A    between atoms: C_28  and  O_29
REMARK   10  A    between atoms: O_29  and  C_30
REMARK                            x       y       z     vdW  Elec       q    Type
REMARK                         _______ _______ _______ _____ _____    ______ ____
ROOT
ATOM      1  N   UNL     1       3.775   0.851   1.415  0.00  0.00    +0.391 N 
ATOM      2  H   UNL     1       3.351   1.440   2.116  0.00  0.00    -0.080 HD
ENDROOT
BRANCH   1   3
ATOM      3  C   UNL     1       2.923   0.821   0.219  0.00  0.00    -0.002 C 
BRANCH   3   6
ATOM      4  C   UNL     1      -0.578   0.433   1.304  0.00  0.00    +0.041 A 
ATOM      5  C   UNL     1       0.564   1.232   1.067  0.00  0.00    +0.042 A 
ATOM      6  C   UNL     1       1.526   0.411   0.609  0.00  0.00    +0.089 A 
ATOM      7  O   UNL     1       1.030  -0.836   0.556  0.00  0.00    -0.470 OA
ATOM      8  C   UNL     1      -0.245  -0.829   0.977  0.00  0.00    +0.195 A 
ENDBRANCH   3   6
ENDBRANCH   1   3
BRANCH   1   9
ATOM      9  C   UNL     1       5.097   1.386   1.061  0.00  0.00    -0.003 C 
BRANCH   9  10
ATOM     10  C   UNL     1       4.960   2.826   0.637  0.00  0.00    +0.094 A 
ATOM     11  N   UNL     1       6.065   3.518   0.260  0.00  0.00    -0.312 N 
ATOM     12  H   UNL     1       6.928   3.075   0.267  0.00  0.00    +0.170 HD
ATOM     13  C   UNL     1       5.987   4.806  -0.125  0.00  0.00    +0.260 A 
ATOM     14  O   UNL     1       6.989   5.414  -0.462  0.00  0.00    -0.267 OA
ATOM     15  C   UNL     1       4.707   5.449  -0.132  0.00  0.00    +0.075 A 
ATOM     16  C   UNL     1       4.389   6.830  -0.510  0.00  0.00    -0.023 A 
ATOM     17  C   UNL     1       3.095   7.199  -0.425  0.00  0.00    -0.004 A 
ATOM     18  S   UNL     1       2.237   5.752   0.141  0.00  0.00    -0.073 S 
ATOM     19  C   UNL     1       3.624   4.654   0.273  0.00  0.00    +0.116 A 
ATOM     20  N   UNL     1       3.779   3.384   0.635  0.00  0.00    -0.229 NA
ATOM     21  C   UNL     1       2.500   8.539  -0.727  0.00  0.00    +0.043 C 
ATOM     22  C   UNL     1       3.005   9.020  -2.094  0.00  0.00    +0.005 C 
ATOM     23  C   UNL     1       4.294   9.806  -1.881  0.00  0.00    +0.001 C 
ATOM     24  C   UNL     1       5.071   9.226  -0.700  0.00  0.00    +0.005 C 
ATOM     25  C   UNL     1       5.480   7.786  -0.984  0.00  0.00    +0.037 C 
ENDBRANCH   9  10
ENDBRANCH   1   9
BRANCH   1  26
ATOM     26  C   UNL     1       3.924  -0.511   1.945  0.00  0.00    -0.043 C 
BRANCH  26  27
ATOM     27  C   UNL     1       4.634  -0.456   3.299  0.00  0.00    +0.135 C 
BRANCH  27  28
ATOM     28  O   UNL     1       5.994  -0.062   3.108  0.00  0.00    -0.390 OA
ATOM     29  H   UNL     1       6.502  -0.660   2.544  0.00  0.00    +0.210 HD
ENDBRANCH  27  28
BRANCH  27  30
ATOM     30  C   UNL     1       4.591  -1.839   3.953  0.00  0.00    +0.258 C 
BRANCH  30  31
ATOM     31  O   UNL     1       5.150  -1.762   5.266  0.00  0.00    -0.489 OA
BRANCH  31  32
ATOM     32  C   UNL     1       5.188  -2.913   5.989  0.00  0.00    +0.121 A 
ATOM     33  C   UNL     1       4.702  -4.092   5.443  0.00  0.00    +0.047 A 
ATOM     34  C   UNL     1       4.741  -5.261   6.179  0.00  0.00    +0.023 A 
ATOM     35  C   UNL     1       5.264  -5.255   7.460  0.00  0.00    +0.041 A 
ATOM     36  C   UNL     1       5.748  -4.080   8.006  0.00  0.00    +0.023 A 
ATOM     37  C   UNL     1       5.717  -2.911   7.271  0.00  0.00    +0.047 A 
ATOM     38 CL   UNL     1       5.312  -6.724   8.383  0.00  0.00    -0.084 Cl
ENDBRANCH  31  32
ENDBRANCH  30  31
ENDBRANCH  27  30
ENDBRANCH  26  27
ENDBRANCH   1  26
TORSDOF 10
