REMARK  Name = ZINC10463815
REMARK  7 active torsions:
REMARK  status: ('A' for Active; 'I' for Inactive)
REMARK    1  A    between atoms: C_3  and  C_6
REMARK    2  A    between atoms: C_6  and  C_8
REMARK    3  A    between atoms: C_6  and  N_23
REMARK    4  A    between atoms: C_8  and  C_9
REMARK    5  A    between atoms: N_11  and  C_12
REMARK    6  A    between atoms: C_12  and  C_13
REMARK    7  A    between atoms: C_16  and  C_19
REMARK                            x       y       z     vdW  Elec       q    Type
REMARK                         _______ _______ _______ _____ _____    ______ ____
ROOT
ATOM      1  C   UNL     1       1.147   1.655   0.000  0.00  0.00    +0.215 C 
ATOM      2  O   UNL     1       1.130   2.868   0.007  0.00  0.00    -0.276 OA
ATOM      3  N   UNL     1      -0.011   0.966   0.007  0.00  0.00    -0.311 N 
ATOM      4  H   UNL     1       0.002  -0.004   0.002  0.00  0.00    +0.149 HD
ENDROOT
BRANCH   1   5
ATOM      5  C   UNL     1       2.462   0.920  -0.017  0.00  0.00    +0.123 C 
BRANCH   5   6
ATOM      6  C   UNL     1       3.611   1.930  -0.022  0.00  0.00    +0.120 C 
BRANCH   6   7
ATOM      7  N   UNL     1       3.605   2.684   1.234  0.00  0.00    -0.292 N 
ATOM      8  C   UNL     1       3.745   2.038   2.409  0.00  0.00    +0.298 C 
ATOM      9  O   UNL     1       3.876   0.829   2.426  0.00  0.00    -0.253 OA
ATOM     10  N   UNL     1       3.739   2.732   3.564  0.00  0.00    -0.313 N 
ATOM     11  H   UNL     1       3.500   3.648   1.220  0.00  0.00    +0.151 HD
ATOM     12  H   UNL     1       3.634   3.696   3.550  0.00  0.00    +0.146 HD
ATOM     13  H   UNL     1       3.839   2.267   4.409  0.00  0.00    +0.146 HD
ENDBRANCH   6   7
BRANCH   6  16
ATOM     14  C   UNL     1       6.863   0.304  -1.161  0.00  0.00    +0.008 A 
ATOM     15  C   UNL     1       5.681   1.013  -1.270  0.00  0.00    +0.013 A 
ATOM     16  C   UNL     1       4.922   1.199  -0.162  0.00  0.00    +0.010 A 
ATOM     17  S   UNL     1       5.873   0.346   1.085  0.00  0.00    -0.100 S 
ATOM     18  C   UNL     1       7.222  -0.194   0.048  0.00  0.00    +0.045 A 
ENDBRANCH   6  16
ENDBRANCH   5   6
ENDBRANCH   1   5
BRANCH   3  19
ATOM     19  C   UNL     1      -1.290   1.681   0.017  0.00  0.00    +0.139 C 
BRANCH  19  20
ATOM     20  C   UNL     1      -2.422   0.686   0.017  0.00  0.00    -0.030 A 
ATOM     21  C   UNL     1      -2.950   0.241  -1.180  0.00  0.00    +0.006 A 
ATOM     22  C   UNL     1      -3.986  -0.675  -1.180  0.00  0.00    +0.013 A 
ATOM     23  C   UNL     1      -4.499  -1.138   0.017  0.00  0.00    +0.055 A 
ATOM     24  C   UNL     1      -3.974  -0.689   1.214  0.00  0.00    +0.013 A 
ATOM     25  C   UNL     1      -2.935   0.224   1.214  0.00  0.00    +0.006 A 
BRANCH  23  26
ATOM     26  C   UNL     1      -5.631  -2.133   0.017  0.00  0.00    +0.417 C 
ATOM     27  F   UNL     1      -6.852  -1.450   0.028  0.00  0.00    -0.166 F 
ATOM     28  F   UNL     1      -5.552  -2.929  -1.130  0.00  0.00    -0.166 F 
ATOM     29  F   UNL     1      -5.540  -2.943   1.154  0.00  0.00    -0.166 F 
ENDBRANCH  23  26
ENDBRANCH  19  20
ENDBRANCH   3  19
TORSDOF 7
