REMARK  Name = ZINC39297275
REMARK  5 active torsions:
REMARK  status: ('A' for Active; 'I' for Inactive)
REMARK    1  A    between atoms: C_4  and  C_7
REMARK    2  A    between atoms: C_9  and  C_18
REMARK    3  A    between atoms: C_10  and  C_14
REMARK    4  A    between atoms: C_11  and  O_13
REMARK    5  A    between atoms: N_16  and  N_17
REMARK                            x       y       z     vdW  Elec       q    Type
REMARK                         _______ _______ _______ _____ _____    ______ ____
ROOT
ATOM      1  C   UNL     1       3.698  -0.688  -0.037  0.00  0.00    -0.014 A 
ATOM      2  C   UNL     1       3.717  -2.082  -0.051  0.00  0.00    +0.018 A 
ATOM      3  C   UNL     1       4.927  -2.761  -0.066  0.00  0.00    -0.002 A 
ATOM      4  C   UNL     1       6.135  -2.036  -0.069  0.00  0.00    +0.087 A 
ATOM      5  C   UNL     1       6.106  -0.635  -0.055  0.00  0.00    +0.130 A 
ATOM      6  C   UNL     1       4.892   0.030  -0.045  0.00  0.00    +0.054 A 
ENDROOT
BRANCH   3   7
ATOM      7  C   UNL     1       4.949  -4.242  -0.080  0.00  0.00    -0.017 A 
ATOM      8  C   UNL     1       5.731  -4.922  -1.012  0.00  0.00    +0.010 A 
ATOM      9  C   UNL     1       5.748  -6.302  -1.020  0.00  0.00    +0.020 A 
ATOM     10  C   UNL     1       4.989  -7.011  -0.104  0.00  0.00    +0.041 A 
ATOM     11  C   UNL     1       4.209  -6.341   0.824  0.00  0.00    +0.020 A 
ATOM     12  C   UNL     1       4.190  -4.961   0.844  0.00  0.00    +0.010 A 
ATOM     13 CL   UNL     1       5.014  -8.747  -0.120  0.00  0.00    -0.084 Cl
ENDBRANCH   3   7
BRANCH   1  17
ATOM     14  C   UNL     1      -0.017   1.379   0.010  0.00  0.00    +0.000 A 
ATOM     15  C   UNL     1       1.169   2.092   0.002  0.00  0.00    +0.001 A 
ATOM     16  C   UNL     1       2.377   1.427  -0.013  0.00  0.00    +0.008 A 
ATOM     17  C   UNL     1       2.402   0.033  -0.021  0.00  0.00    -0.018 A 
ATOM     18  C   UNL     1       1.205  -0.680  -0.013  0.00  0.00    +0.008 A 
ATOM     19  C   UNL     1       0.002  -0.004   0.002  0.00  0.00    +0.001 A 
ENDBRANCH   1  17
BRANCH   4  20
ATOM     20  C   UNL     1       7.424  -2.748  -0.084  0.00  0.00    +0.261 C 
ATOM     21  O   UNL     1       7.948  -3.033  -1.144  0.00  0.00    -0.269 OA
ATOM     22  N   UNL     1       8.022  -3.084   1.076  0.00  0.00    -0.249 N 
ATOM     23  H   UNL     1       7.604  -2.857   1.921  0.00  0.00    +0.169 HD
BRANCH  22  24
ATOM     24  N   UNL     1       9.217  -3.745   1.061  0.00  0.00    -0.254 NA
ATOM     25  H   UNL     1       9.541  -3.928   1.999  0.00  0.00    +0.140 HD
ATOM     26  H   UNL     1       9.152  -4.599   0.528  0.00  0.00    +0.140 HD
ENDBRANCH  22  24
ENDBRANCH   4  20
BRANCH   5  27
ATOM     27  O   UNL     1       7.266   0.069  -0.057  0.00  0.00    -0.506 OA
ATOM     28  H   UNL     1       7.596   0.281  -0.941  0.00  0.00    +0.292 HD
ENDBRANCH   5  27
TORSDOF 5
