REMARK  Name = ZINC44932533
REMARK  9 active torsions:
REMARK  status: ('A' for Active; 'I' for Inactive)
REMARK    1  A    between atoms: C_1  and  C_2
REMARK    2  A    between atoms: N_6  and  C_7
REMARK    3  A    between atoms: C_12  and  C_13
REMARK    4  A    between atoms: C_13  and  N_14
REMARK    5  A    between atoms: C_15  and  C_17
REMARK    6  A    between atoms: C_21  and  C_23
REMARK    7  A    between atoms: C_23  and  N_24
REMARK    8  A    between atoms: N_27  and  S_30
REMARK    9  A    between atoms: S_30  and  C_33
REMARK                            x       y       z     vdW  Elec       q    Type
REMARK                         _______ _______ _______ _____ _____    ______ ____
ROOT
ATOM      1  C   UNL     1      -5.068  -1.812   1.176  0.00  0.00    +0.037 A 
ATOM      2  C   UNL     1      -4.697  -2.976   1.851  0.00  0.00    +0.013 A 
ATOM      3  C   UNL     1      -5.488  -4.102   1.763  0.00  0.00    +0.001 A 
ATOM      4  C   UNL     1      -6.646  -4.081   1.006  0.00  0.00    +0.005 A 
ATOM      5  C   UNL     1      -7.019  -2.931   0.334  0.00  0.00    -0.033 A 
ATOM      6  C   UNL     1      -6.240  -1.795   0.419  0.00  0.00    +0.018 A 
ENDROOT
BRANCH   1   8
ATOM      7  N   UNL     1      -3.094  -0.619   1.998  0.00  0.00    -0.307 N 
ATOM      8  C   UNL     1      -4.226  -0.600   1.266  0.00  0.00    +0.244 C 
ATOM      9  O   UNL     1      -4.554   0.413   0.681  0.00  0.00    -0.270 OA
ATOM     10  H   UNL     1      -2.832  -1.428   2.465  0.00  0.00    +0.149 HD
BRANCH   7  11
ATOM     11  C   UNL     1      -2.259   0.581   2.088  0.00  0.00    +0.142 C 
BRANCH  11  17
ATOM     12  C   UNL     1       0.030  -0.381   2.438  0.00  0.00    +0.052 A 
ATOM     13  C   UNL     1       1.133  -0.636   3.242  0.00  0.00    +0.026 A 
ATOM     14  C   UNL     1       1.137  -0.220   4.559  0.00  0.00    +0.002 A 
ATOM     15  C   UNL     1       0.044   0.452   5.076  0.00  0.00    +0.000 A 
ATOM     16  C   UNL     1      -1.055   0.707   4.278  0.00  0.00    +0.007 A 
ATOM     17  C   UNL     1      -1.063   0.297   2.959  0.00  0.00    -0.006 A 
BRANCH  12  23
ATOM     18  C   UNL     1      -0.018   1.503   0.010  0.00  0.00    +0.084 C 
ATOM     19  C   UNL     1       0.002  -0.004   0.002  0.00  0.00    +0.088 A 
ATOM     20  N   UNL     1       0.008  -0.760  -1.062  0.00  0.00    -0.350 N 
ATOM     21  C   UNL     1       0.027  -2.049  -0.691  0.00  0.00    +0.102 A 
ATOM     22  C   UNL     1       0.033  -2.099   0.655  0.00  0.00    +0.110 A 
ATOM     23  N   UNL     1       0.023  -0.803   1.100  0.00  0.00    -0.305 N 
ATOM     24  H   UNL     1      -0.000  -0.440  -1.978  0.00  0.00    +0.166 HD
ENDBRANCH  12  23
ENDBRANCH  11  17
ENDBRANCH   7  11
ENDBRANCH   1   8
BRANCH   5  25
ATOM     25  C   UNL     1      -8.282  -2.917  -0.488  0.00  0.00    +0.119 C 
BRANCH  25  26
ATOM     26  N   UNL     1      -9.410  -2.497   0.355  0.00  0.00    -0.296 NA
ATOM     27  C   UNL     1      -9.252  -1.103   0.789  0.00  0.00    +0.102 C 
ATOM     28  C   UNL     1     -10.347  -0.761   1.806  0.00  0.00    +0.125 C 
ATOM     29  N   UNL     1     -11.653  -1.083   1.212  0.00  0.00    -0.174 NA
ATOM     30  C   UNL     1     -11.842  -2.421   0.630  0.00  0.00    +0.125 C 
ATOM     31  C   UNL     1     -10.689  -2.697  -0.340  0.00  0.00    +0.102 C 
BRANCH  29  32
ATOM     32  S   UNL     1     -12.879   0.030   1.200  0.00  0.00    +0.061 S 
ATOM     33  O   UNL     1     -14.092  -0.702   1.104  0.00  0.00    -0.153 OA
ATOM     34  O   UNL     1     -12.617   0.935   2.264  0.00  0.00    -0.153 OA
BRANCH  32  35
ATOM     35  C   UNL     1     -12.728   0.954  -0.294  0.00  0.00    +0.105 A 
ATOM     36  C   UNL     1     -11.956   2.099  -0.323  0.00  0.00    +0.028 A 
ATOM     37  C   UNL     1     -11.838   2.823  -1.495  0.00  0.00    +0.002 A 
ATOM     38  C   UNL     1     -12.492   2.401  -2.637  0.00  0.00    +0.000 A 
ATOM     39  C   UNL     1     -13.264   1.255  -2.608  0.00  0.00    +0.002 A 
ATOM     40  C   UNL     1     -13.379   0.529  -1.437  0.00  0.00    +0.028 A 
ENDBRANCH  32  35
ENDBRANCH  29  32
ENDBRANCH  25  26
ENDBRANCH   5  25
TORSDOF 8
