REMARK  Name = ZINC18276209
REMARK  6 active torsions:
REMARK  status: ('A' for Active; 'I' for Inactive)
REMARK    1  A    between atoms: C_1  and  C_2
REMARK    2  A    between atoms: C_2  and  C_3
REMARK    3  A    between atoms: C_3  and  C_17
REMARK    4  A    between atoms: N_7  and  C_9
REMARK    5  A    between atoms: C_13  and  C_16
REMARK    6  A    between atoms: C_14  and  C_15
REMARK                            x       y       z     vdW  Elec       q    Type
REMARK                         _______ _______ _______ _____ _____    ______ ____
ROOT
ATOM      1  C   UNL     1      -1.833  -0.380  -0.509  0.00  0.00    +0.126 C 
ATOM      2  N   UNL     1      -2.922  -0.024  -1.433  0.00  0.00    -0.302 N 
ATOM      3  C   UNL     1      -3.829   0.668  -0.719  0.00  0.00    +0.153 C 
ATOM      4  S   UNL     1      -5.283   1.300  -1.365  0.00  0.00    -0.017 S 
ATOM      5  N   UNL     1      -3.454   0.802   0.560  0.00  0.00    -0.214 N 
ATOM      6  N   UNL     1      -2.251   0.196   0.784  0.00  0.00    -0.207 NA
ATOM      7  H   UNL     1      -2.977  -0.245  -2.376  0.00  0.00    +0.150 HD
ATOM      8  H   UNL     1      -2.333  -0.521   1.490  0.00  0.00    +0.148 HD
ENDROOT
BRANCH   5   9
ATOM      9  C   UNL     1      -4.196   1.474   1.537  0.00  0.00    +0.055 A 
ATOM     10  C   UNL     1      -4.076   2.850   1.679  0.00  0.00    +0.025 A 
ATOM     11  C   UNL     1      -4.810   3.510   2.644  0.00  0.00    +0.002 A 
ATOM     12  C   UNL     1      -5.665   2.802   3.469  0.00  0.00    +0.004 A 
ATOM     13  C   UNL     1      -5.787   1.432   3.331  0.00  0.00    -0.046 A 
ATOM     14  C   UNL     1      -5.059   0.766   2.364  0.00  0.00    -0.025 A 
ATOM     15  C   UNL     1      -5.197  -0.726   2.209  0.00  0.00    +0.046 C 
ATOM     16  C   UNL     1      -6.720   0.665   4.232  0.00  0.00    +0.044 C 
ENDBRANCH   5   9
BRANCH   1  17
ATOM     17  C   UNL     1      -1.699  -1.877  -0.401  0.00  0.00    -0.008 A 
ATOM     18  C   UNL     1      -1.978  -2.677  -1.493  0.00  0.00    +0.007 A 
ATOM     19  C   UNL     1      -1.855  -4.051  -1.394  0.00  0.00    +0.000 A 
ATOM     20  C   UNL     1      -1.453  -4.624  -0.202  0.00  0.00    +0.000 A 
ATOM     21  C   UNL     1      -1.172  -3.824   0.890  0.00  0.00    +0.000 A 
ATOM     22  C   UNL     1      -1.291  -2.450   0.789  0.00  0.00    +0.007 A 
ENDBRANCH   1  17
BRANCH   1  24
ATOM     23  C   UNL     1      -0.675   1.760  -1.076  0.00  0.00    +0.008 C 
ATOM     24  C   UNL     1      -0.514   0.242  -0.972  0.00  0.00    +0.045 C 
ENDBRANCH   1  24
TORSDOF 3
