REMARK  Name = ZINC37552340
REMARK  6 active torsions:
REMARK  status: ('A' for Active; 'I' for Inactive)
REMARK    1  A    between atoms: C_4  and  S_8
REMARK    2  A    between atoms: S_8  and  N_11
REMARK    3  A    between atoms: N_11  and  C_12
REMARK    4  A    between atoms: C_15  and  C_17
REMARK    5  A    between atoms: C_18  and  C_19
REMARK    6  A    between atoms: C_19  and  O_20
REMARK                            x       y       z     vdW  Elec       q    Type
REMARK                         _______ _______ _______ _____ _____    ______ ____
ROOT
ATOM      1  S   UNL     1       3.935  -0.833  -0.041  0.00  0.00    +0.096 S 
ATOM      2  O   UNL     1       4.737  -0.255   0.980  0.00  0.00    -0.148 OA
ATOM      3  O   UNL     1       3.625  -2.219  -0.072  0.00  0.00    -0.148 OA
ENDROOT
BRANCH   1   7
ATOM      4  C   UNL     1      -0.017   1.380   0.010  0.00  0.00    +0.041 A 
ATOM      5  C   UNL     1       1.171   2.087   0.002  0.00  0.00    +0.043 A 
ATOM      6  C   UNL     1       2.379   1.412  -0.013  0.00  0.00    +0.150 A 
ATOM      7  C   UNL     1       2.397   0.027  -0.021  0.00  0.00    +0.148 A 
ATOM      8  C   UNL     1       1.210  -0.680  -0.013  0.00  0.00    +0.070 A 
ATOM      9  C   UNL     1       0.002  -0.004   0.002  0.00  0.00    +0.125 A 
ATOM     10  F   UNL     1      -1.159  -0.695   0.009  0.00  0.00    -0.205 F 
ATOM     11  F   UNL     1       3.539   2.103  -0.021  0.00  0.00    -0.203 F 
ENDBRANCH   1   7
BRANCH   1  12
ATOM     12  N   UNL     1       4.675  -0.481  -1.480  0.00  0.00    -0.070 NA
BRANCH  12  13
ATOM     13  C   UNL     1       5.912  -1.025  -1.773  0.00  0.00    +0.202 A 
ATOM     14  N   UNL     1       6.642  -1.840  -1.037  0.00  0.00    -0.229 NA
ATOM     15  C   UNL     1       7.811  -2.277  -1.456  0.00  0.00    +0.137 A 
ATOM     16  C   UNL     1       8.225  -1.842  -2.689  0.00  0.00    +0.083 A 
ATOM     17  S   UNL     1       6.845  -0.811  -3.158  0.00  0.00    -0.041 S 
BRANCH  16  18
ATOM     18  C   UNL     1       9.429  -2.138  -3.405  0.00  0.00    -0.055 C 
ATOM     19  C   UNL     1      10.417  -2.380  -3.992  0.00  0.00    -0.068 C 
BRANCH  19  20
ATOM     20  C   UNL     1      11.655  -2.684  -4.728  0.00  0.00    +0.244 C 
BRANCH  20  21
ATOM     21  O   UNL     1      11.645  -1.997  -5.981  0.00  0.00    -0.383 OA
ATOM     22  H   UNL     1      12.432  -2.152  -6.521  0.00  0.00    +0.211 HD
ENDBRANCH  20  21
ENDBRANCH  19  20
ENDBRANCH  16  18
ENDBRANCH  12  13
ENDBRANCH   1  12
TORSDOF 6
