REMARK  Name = ZINC66153635
REMARK  10 active torsions:
REMARK  status: ('A' for Active; 'I' for Inactive)
REMARK    1  A    between atoms: C_1  and  C_2
REMARK    2  A    between atoms: C_2  and  C_3
REMARK    3  A    between atoms: C_2  and  C_4
REMARK    4  A    between atoms: C_2  and  C_5
REMARK    5  A    between atoms: N_7  and  C_8
REMARK    6  A    between atoms: C_12  and  N_14
REMARK    7  A    between atoms: C_15  and  C_17
REMARK    8  A    between atoms: C_17  and  C_18
REMARK    9  A    between atoms: C_18  and  C_19
REMARK   10  A    between atoms: C_23  and  N_25
REMARK                            x       y       z     vdW  Elec       q    Type
REMARK                         _______ _______ _______ _____ _____    ______ ____
ROOT
ATOM      1  N   UNL     1       2.647  -5.307  -4.262  0.00  0.00    -0.285 N 
ATOM      2  C   UNL     1       3.802  -5.747  -4.799  0.00  0.00    +0.218 C 
ATOM      3  O   UNL     1       4.664  -4.954  -5.115  0.00  0.00    -0.275 OA
ATOM      4  H   UNL     1       1.931  -5.934  -4.071  0.00  0.00    +0.155 HD
ENDROOT
BRANCH   1   9
ATOM      5  C   UNL     1       1.584  -2.203  -2.593  0.00  0.00    +0.035 A 
ATOM      6  C   UNL     1       2.152  -1.250  -3.430  0.00  0.00    +0.023 A 
ATOM      7  C   UNL     1       2.880  -1.646  -4.535  0.00  0.00    +0.004 A 
ATOM      8  C   UNL     1       3.045  -2.990  -4.812  0.00  0.00    +0.023 A 
ATOM      9  C   UNL     1       2.479  -3.947  -3.980  0.00  0.00    +0.035 A 
ATOM     10  C   UNL     1       1.752  -3.552  -2.866  0.00  0.00    +0.046 A 
BRANCH   5  13
ATOM     11  C   UNL     1       0.895  -2.527  -0.339  0.00  0.00    +0.223 C 
ATOM     12  O   UNL     1       1.509  -3.573  -0.314  0.00  0.00    -0.275 OA
ATOM     13  N   UNL     1       0.847  -1.801  -1.473  0.00  0.00    -0.285 N 
ATOM     14  H   UNL     1       0.301  -1.000  -1.514  0.00  0.00    +0.155 HD
BRANCH  11  16
ATOM     15  C   UNL     1       0.396  -3.042   2.035  0.00  0.00    +0.020 C 
ATOM     16  C   UNL     1       0.185  -2.040   0.898  0.00  0.00    +0.039 C 
ATOM     17  C   UNL     1      -1.311  -1.906   0.608  0.00  0.00    +0.020 C 
ATOM     18  C   UNL     1       0.750  -0.678   1.307  0.00  0.00    +0.020 C 
ENDBRANCH  11  16
ENDBRANCH   5  13
ENDBRANCH   1   9
BRANCH   2  19
ATOM     19  C   UNL     1       4.023  -7.223  -5.006  0.00  0.00    +0.101 C 
BRANCH  19  20
ATOM     20  C   UNL     1       5.403  -7.450  -5.625  0.00  0.00    +0.044 C 
BRANCH  20  21
ATOM     21  C   UNL     1       5.624  -8.927  -5.832  0.00  0.00    -0.045 A 
ATOM     22  C   UNL     1       6.198  -9.687  -4.829  0.00  0.00    +0.004 A 
ATOM     23  C   UNL     1       6.403 -11.041  -5.015  0.00  0.00    +0.002 A 
ATOM     24  C   UNL     1       6.034 -11.640  -6.204  0.00  0.00    +0.023 A 
ATOM     25  C   UNL     1       5.457 -10.880  -7.213  0.00  0.00    +0.025 A 
ATOM     26  C   UNL     1       5.248  -9.520  -7.021  0.00  0.00    +0.026 A 
BRANCH  25  27
ATOM     27  N   UNL     1       5.083 -11.483  -8.416  0.00  0.00    -0.358 N 
ATOM     28  H   UNL     1       5.226 -12.433  -8.547  0.00  0.00    +0.142 HD
ATOM     29  H   UNL     1       4.680 -10.951  -9.120  0.00  0.00    +0.142 HD
ENDBRANCH  25  27
ENDBRANCH  20  21
ENDBRANCH  19  20
ENDBRANCH   2  19
TORSDOF 7
