REMARK  Name = ZINC01504771
REMARK  2 active torsions:
REMARK  status: ('A' for Active; 'I' for Inactive)
REMARK    1  A    between atoms: C_8  and  N_9
REMARK    2  A    between atoms: N_9  and  C_10
REMARK                            x       y       z     vdW  Elec       q    Type
REMARK                         _______ _______ _______ _____ _____    ______ ____
ROOT
ATOM      1  N   UNL     1       1.316  -4.445  -0.035  0.00  0.00    -0.320 N 
ATOM      2  H   UNL     1       2.280  -4.561  -0.044  0.00  0.00    +0.152 HD
ENDROOT
BRANCH   1   3
ATOM      3  C   UNL     1       0.478  -5.565  -0.033  0.00  0.00    +0.036 A 
ATOM      4  C   UNL     1       1.023  -6.842  -0.039  0.00  0.00    +0.072 A 
ATOM      5  C   UNL     1       0.192  -7.951  -0.037  0.00  0.00    +0.165 A 
ATOM      6  C   UNL     1      -1.188  -7.783  -0.026  0.00  0.00    +0.176 A 
ATOM      7  C   UNL     1      -1.730  -6.506  -0.021  0.00  0.00    +0.065 A 
ATOM      8  C   UNL     1      -0.901  -5.400  -0.018  0.00  0.00    +0.042 A 
ATOM      9 BR   UNL     1      -3.607  -6.278  -0.010  0.00  0.00    -0.046 Br
ATOM     10  O   UNL     1      -2.020  -8.861  -0.016  0.00  0.00    -0.484 OA
ATOM     11  C   UNL     1      -1.450 -10.118  -0.397  0.00  0.00    +0.270 C 
ATOM     12  C   UNL     1      -0.111 -10.280   0.335  0.00  0.00    +0.270 C 
ATOM     13  O   UNL     1       0.743  -9.196  -0.047  0.00  0.00    -0.485 OA
ENDBRANCH   1   3
BRANCH   1  21
ATOM     14  C   UNL     1      -0.017   1.374   0.010  0.00  0.00    +0.001 A 
ATOM     15  C   UNL     1       1.172   2.092   0.002  0.00  0.00    +0.002 A 
ATOM     16  C   UNL     1       2.386   1.446  -0.013  0.00  0.00    +0.028 A 
ATOM     17  C   UNL     1       2.431   0.046  -0.021  0.00  0.00    +0.072 A 
ATOM     18  C   UNL     1       1.218  -0.675  -0.013  0.00  0.00    +0.010 A 
ATOM     19  C   UNL     1       0.002  -0.004   0.002  0.00  0.00    +0.011 A 
ATOM     20  C   UNL     1       1.615  -2.097  -0.025  0.00  0.00    +0.016 C 
ATOM     21  C   UNL     1       0.786  -3.204  -0.023  0.00  0.00    +0.082 C 
ATOM     22  C   UNL     1       3.033  -2.079  -0.039  0.00  0.00    +0.121 C 
ATOM     23  N   UNL     1       3.452  -0.843  -0.036  0.00  0.00    -0.254 NA
ENDBRANCH   1  21
TORSDOF 2
