REMARK  Name = ZINC49236174
REMARK  6 active torsions:
REMARK  status: ('A' for Active; 'I' for Inactive)
REMARK    1  A    between atoms: C_1  and  C_2
REMARK    2  A    between atoms: C_3  and  N_13
REMARK    3  A    between atoms: C_5  and  C_11
REMARK    4  A    between atoms: C_7  and  N_8
REMARK    5  A    between atoms: N_13  and  C_14
REMARK    6  A    between atoms: C_14  and  C_15
REMARK                            x       y       z     vdW  Elec       q    Type
REMARK                         _______ _______ _______ _____ _____    ______ ____
ROOT
ATOM      1  C   UNL     1      -0.539   1.447   0.089  0.00  0.00    +0.048 C 
ATOM      2  C   UNL     1      -0.248  -0.031   0.040  0.00  0.00    +0.001 A 
ATOM      3  C   UNL     1      -0.351  -0.718  -1.165  0.00  0.00    +0.034 A 
ATOM      4  C   UNL     1      -0.083  -2.077  -1.213  0.00  0.00    +0.042 A 
ATOM      5  C   UNL     1       0.291  -2.751  -0.049  0.00  0.00    +0.056 A 
ATOM      6  C   UNL     1       0.392  -2.052   1.155  0.00  0.00    +0.052 A 
ATOM      7  C   UNL     1       0.127  -0.698   1.191  0.00  0.00    +0.132 A 
ENDROOT
BRANCH   7   8
ATOM      8  N   UNL     1       0.240   0.042   2.468  0.00  0.00    +0.057 N 
ATOM      9  O   UNL     1       0.674   1.171   2.476  0.00  0.00    -0.126 OA
ATOM     10  O   UNL     1      -0.101  -0.482   3.502  0.00  0.00    -0.126 OA
ENDBRANCH   7   8
BRANCH   5  11
ATOM     11  C   UNL     1       0.569  -4.155  -0.090  0.00  0.00    +0.099 C 
ATOM     12  N   UNL     1       0.790  -5.269  -0.123  0.00  0.00    -0.191 NA
ENDBRANCH   5  11
BRANCH   3  13
ATOM     13  N   UNL     1      -0.726  -0.038  -2.326  0.00  0.00    -0.339 N 
ATOM     14  H   UNL     1      -0.914   0.913  -2.293  0.00  0.00    +0.146 HD
BRANCH  13  15
ATOM     15  C   UNL     1      -0.835  -0.762  -3.595  0.00  0.00    +0.144 C 
BRANCH  15  16
ATOM     16  C   UNL     1      -1.251   0.193  -4.684  0.00  0.00    +0.008 A 
ATOM     17  C   UNL     1      -0.475   0.937  -5.509  0.00  0.00    +0.014 A 
ATOM     18  C   UNL     1      -1.082   1.754  -6.446  0.00  0.00    +0.023 A 
ATOM     19  C   UNL     1      -2.436   1.786  -6.510  0.00  0.00    +0.055 A 
ATOM     20  S   UNL     1      -2.894   0.632  -5.227  0.00  0.00    -0.085 S 
ATOM     21 BR   UNL     1      -3.550   2.787  -7.664  0.00  0.00    -0.043 Br
ENDBRANCH  15  16
ENDBRANCH  13  15
ENDBRANCH   3  13
TORSDOF 5
