REMARK  Name = ZINC12364804
REMARK  10 active torsions:
REMARK  status: ('A' for Active; 'I' for Inactive)
REMARK    1  A    between atoms: C_1  and  C_2
REMARK    2  A    between atoms: C_2  and  C_4
REMARK    3  A    between atoms: C_2  and  N_21
REMARK    4  A    between atoms: N_6  and  N_7
REMARK    5  A    between atoms: C_8  and  C_9
REMARK    6  A    between atoms: C_11  and  O_19
REMARK    7  A    between atoms: C_13  and  N_16
REMARK    8  A    between atoms: C_14  and  O_15
REMARK    9  A    between atoms: O_19  and  C_20
REMARK   10  A    between atoms: N_21  and  C_22
REMARK                            x       y       z     vdW  Elec       q    Type
REMARK                         _______ _______ _______ _____ _____    ______ ____
ROOT
ATOM      1  C   UNL     1       0.707  -0.490  -1.238  0.00  0.00    +0.252 C 
ATOM      2  O   UNL     1       0.120  -1.191  -2.035  0.00  0.00    -0.272 OA
ATOM      3  N   UNL     1       1.991  -0.146  -1.462  0.00  0.00    -0.205 N 
ATOM      4  H   UNL     1       2.461   0.415  -0.825  0.00  0.00    +0.177 HD
ENDROOT
BRANCH   1   6
ATOM      5  C   UNL     1      -0.019   1.526   0.010  0.00  0.00    +0.038 C 
ATOM      6  C   UNL     1       0.002  -0.004   0.002  0.00  0.00    +0.155 C 
BRANCH   6   7
ATOM      7  N   UNL     1      -1.372  -0.511   0.012  0.00  0.00    -0.333 N 
ATOM      8  H   UNL     1      -1.810  -0.743  -0.822  0.00  0.00    +0.147 HD
BRANCH   7   9
ATOM      9  C   UNL     1      -2.052  -0.660   1.223  0.00  0.00    +0.028 A 
ATOM     10  C   UNL     1      -1.416  -0.318   2.422  0.00  0.00    +0.023 A 
ATOM     11  C   UNL     1      -2.053  -0.453   3.615  0.00  0.00    +0.010 A 
ATOM     12  C   UNL     1      -3.371  -0.942   3.653  0.00  0.00    -0.018 A 
ATOM     13  C   UNL     1      -4.055  -1.091   4.872  0.00  0.00    +0.008 A 
ATOM     14  C   UNL     1      -5.330  -1.568   4.875  0.00  0.00    +0.001 A 
ATOM     15  C   UNL     1      -5.971  -1.911   3.686  0.00  0.00    +0.001 A 
ATOM     16  C   UNL     1      -5.341  -1.780   2.487  0.00  0.00    +0.008 A 
ATOM     17  C   UNL     1      -4.023  -1.291   2.444  0.00  0.00    -0.016 A 
ATOM     18  C   UNL     1      -3.344  -1.138   1.224  0.00  0.00    +0.031 A 
ENDBRANCH   7   9
ENDBRANCH   6   7
ENDBRANCH   1   6
BRANCH   3  19
ATOM     19  N   UNL     1       2.647  -0.598  -2.614  0.00  0.00    -0.188 NA
ATOM     20  C   UNL     1       3.883  -0.266  -2.830  0.00  0.00    +0.142 C 
BRANCH  20  21
ATOM     21  C   UNL     1       4.573  -0.741  -4.042  0.00  0.00    +0.042 A 
ATOM     22  C   UNL     1       5.905  -0.391  -4.274  0.00  0.00    +0.058 A 
ATOM     23  C   UNL     1       6.546  -0.841  -5.415  0.00  0.00    +0.123 A 
ATOM     24  C   UNL     1       5.869  -1.639  -6.328  0.00  0.00    +0.082 A 
ATOM     25  C   UNL     1       4.551  -1.989  -6.105  0.00  0.00    +0.171 A 
ATOM     26  C   UNL     1       3.897  -1.551  -4.965  0.00  0.00    +0.156 A 
BRANCH  25  27
ATOM     27  N   UNL     1       3.837  -2.840  -7.084  0.00  0.00    +0.060 N 
ATOM     28  O   UNL     1       4.407  -3.227  -8.077  0.00  0.00    -0.126 OA
ATOM     29  O   UNL     1       2.684  -3.147  -6.890  0.00  0.00    -0.126 OA
ENDBRANCH  25  27
BRANCH  26  30
ATOM     30  O   UNL     1       2.603  -1.901  -4.744  0.00  0.00    -0.504 OA
ATOM     31  H   UNL     1       1.960  -1.283  -5.116  0.00  0.00    +0.292 HD
ENDBRANCH  26  30
BRANCH  23  32
ATOM     32  O   UNL     1       7.843  -0.501  -5.643  0.00  0.00    -0.495 OA
ATOM     33  C   UNL     1       8.444  -1.000  -6.840  0.00  0.00    +0.277 C 
ENDBRANCH  23  32
ENDBRANCH  20  21
ENDBRANCH   3  19
TORSDOF 8
