REMARK  Name = ZINC03645181
REMARK  5 active torsions:
REMARK  status: ('A' for Active; 'I' for Inactive)
REMARK    1  A    between atoms: C_5  and  C_7
REMARK    2  A    between atoms: C_7  and  N_8
REMARK    3  A    between atoms: C_9  and  C_11
REMARK    4  A    between atoms: C_16  and  C_27
REMARK    5  A    between atoms: C_19  and  C_22
REMARK                            x       y       z     vdW  Elec       q    Type
REMARK                         _______ _______ _______ _____ _____    ______ ____
ROOT
ATOM      1  C   UNL     1       1.812  -4.502   2.934  0.00  0.00    +0.149 A 
ATOM      2  C   UNL     1       1.909  -5.858   3.318  0.00  0.00    +0.078 A 
ATOM      3  C   UNL     1       2.156  -5.889   4.643  0.00  0.00    +0.119 A 
ATOM      4  N   UNL     1       2.213  -4.601   5.095  0.00  0.00    -0.238 N 
ATOM      5  N   UNL     1       2.002  -3.755   4.007  0.00  0.00    -0.164 NA
ATOM      6  C   UNL     1       2.460  -4.241   6.494  0.00  0.00    +0.215 C 
ATOM      7  C   UNL     1       2.157  -5.455   7.380  0.00  0.00    +0.066 C 
ATOM      8  C   UNL     1       2.873  -6.694   6.830  0.00  0.00    +0.140 C 
ATOM      9  N   UNL     1       2.336  -6.989   5.487  0.00  0.00    -0.319 N 
ATOM     10  H   UNL     1       2.121  -7.892   5.207  0.00  0.00    +0.148 HD
ENDROOT
BRANCH   8  11
ATOM     11  C   UNL     1       2.630  -7.866   7.745  0.00  0.00    +0.125 A 
ATOM     12  C   UNL     1       3.484  -8.328   8.676  0.00  0.00    +0.046 A 
ATOM     13  C   UNL     1       2.855  -9.432   9.297  0.00  0.00    +0.041 A 
ATOM     14  C   UNL     1       1.655  -9.579   8.708  0.00  0.00    +0.195 A 
ATOM     15  O   UNL     1       1.521  -8.624   7.773  0.00  0.00    -0.466 OA
ENDBRANCH   8  11
BRANCH   1  17
ATOM     16  N   UNL     1       1.488  -2.679   1.333  0.00  0.00    -0.306 N 
ATOM     17  C   UNL     1       1.550  -4.005   1.567  0.00  0.00    +0.264 C 
ATOM     18  O   UNL     1       1.392  -4.792   0.654  0.00  0.00    -0.268 OA
ATOM     19  H   UNL     1       1.614  -2.051   2.062  0.00  0.00    +0.149 HD
BRANCH  16  20
ATOM     20  C   UNL     1       1.228  -2.186  -0.022  0.00  0.00    +0.142 C 
BRANCH  20  25
ATOM     21  C   UNL     1      -0.017   1.378   0.010  0.00  0.00    +0.000 A 
ATOM     22  C   UNL     1       1.171   2.087   0.002  0.00  0.00    +0.003 A 
ATOM     23  C   UNL     1       2.377   1.414  -0.013  0.00  0.00    +0.038 A 
ATOM     24  C   UNL     1       2.397   0.029  -0.021  0.00  0.00    +0.128 A 
ATOM     25  C   UNL     1       1.208  -0.679  -0.013  0.00  0.00    +0.005 A 
ATOM     26  C   UNL     1       0.002  -0.004   0.002  0.00  0.00    +0.008 A 
ATOM     27  F   UNL     1       3.577  -0.630  -0.036  0.00  0.00    -0.205 F 
ENDBRANCH  20  25
ENDBRANCH  16  20
ENDBRANCH   1  17
BRANCH   6  28
ATOM     28  C   UNL     1       1.553  -3.075   6.891  0.00  0.00    +0.412 C 
ATOM     29  F   UNL     1       0.215  -3.452   6.737  0.00  0.00    -0.168 F 
ATOM     30  F   UNL     1       1.791  -2.733   8.227  0.00  0.00    -0.168 F 
ATOM     31  F   UNL     1       1.824  -1.973   6.072  0.00  0.00    -0.168 F 
ENDBRANCH   6  28
TORSDOF 5
