REMARK  Name = ZINC61678364
REMARK  12 active torsions:
REMARK  status: ('A' for Active; 'I' for Inactive)
REMARK    1  A    between atoms: C_1  and  C_2
REMARK    2  A    between atoms: C_2  and  C_3
REMARK    3  A    between atoms: C_3  and  C_5
REMARK    4  A    between atoms: C_3  and  N_23
REMARK    5  A    between atoms: C_5  and  C_6
REMARK    6  A    between atoms: C_8  and  O_21
REMARK    7  A    between atoms: C_9  and  O_13
REMARK    8  A    between atoms: O_13  and  C_14
REMARK    9  A    between atoms: C_14  and  C_16
REMARK   10  A    between atoms: C_14  and  C_18
REMARK   11  A    between atoms: C_16  and  C_17
REMARK   12  A    between atoms: O_21  and  C_22
REMARK                            x       y       z     vdW  Elec       q    Type
REMARK                         _______ _______ _______ _____ _____    ______ ____
ROOT
ATOM      1  C   UNL     1      -2.824  -2.571   0.265  0.00  0.00    -0.044 A 
ATOM      2  C   UNL     1      -3.392  -2.707   1.518  0.00  0.00    +0.053 A 
ATOM      3  C   UNL     1      -4.689  -3.178   1.643  0.00  0.00    +0.163 A 
ATOM      4  C   UNL     1      -5.418  -3.512   0.506  0.00  0.00    +0.177 A 
ATOM      5  C   UNL     1      -4.843  -3.373  -0.747  0.00  0.00    +0.063 A 
ATOM      6  C   UNL     1      -3.549  -2.898  -0.866  0.00  0.00    +0.022 A 
ATOM      7 BR   UNL     1      -5.830  -3.826  -2.296  0.00  0.00    -0.046 Br
ENDROOT
BRANCH   3   8
ATOM      8  O   UNL     1      -5.249  -3.313   2.876  0.00  0.00    -0.491 OA
ATOM      9  C   UNL     1      -4.441  -2.951   3.998  0.00  0.00    +0.277 C 
ENDBRANCH   3   8
BRANCH   1  10
ATOM     10  C   UNL     1      -1.413  -2.059   0.130  0.00  0.00    +0.019 C 
BRANCH  10  11
ATOM     11  C   UNL     1      -1.433  -0.534   0.013  0.00  0.00    -0.071 C 
BRANCH  11  12
ATOM     12  N   UNL     1      -2.107  -0.147  -1.234  0.00  0.00    +0.380 N 
ATOM     13  H   UNL     1      -1.610  -0.539  -2.020  0.00  0.00    -0.090 HD
ATOM     14  H   UNL     1      -3.054  -0.496  -1.227  0.00  0.00    -0.090 HD
ATOM     15  H   UNL     1      -2.120   0.859  -1.311  0.00  0.00    -0.090 HD
ENDBRANCH  11  12
BRANCH  11  17
ATOM     16  C   UNL     1      -0.019   1.526   0.010  0.00  0.00    +0.002 C 
ATOM     17  C   UNL     1       0.002  -0.004   0.002  0.00  0.00    -0.019 C 
ENDBRANCH  11  17
ENDBRANCH  10  11
ENDBRANCH   1  10
BRANCH   4  18
ATOM     18  O   UNL     1      -6.692  -3.975   0.625  0.00  0.00    -0.475 OA
BRANCH  18  19
ATOM     19  C   UNL     1      -7.739  -3.003   0.612  0.00  0.00    +0.258 C 
BRANCH  19  20
ATOM     20  C   UNL     1      -8.018  -2.547   2.021  0.00  0.00    +0.251 C 
ATOM     21  O   UNL     1      -7.382  -3.009   2.945  0.00  0.00    -0.272 OA
ATOM     22  N   UNL     1      -8.973  -1.625   2.255  0.00  0.00    -0.326 N 
ATOM     23  H   UNL     1      -9.482  -1.256   1.516  0.00  0.00    +0.145 HD
ATOM     24  H   UNL     1      -9.152  -1.332   3.162  0.00  0.00    +0.145 HD
ENDBRANCH  19  20
BRANCH  19  25
ATOM     25  C   UNL     1      -9.005  -3.624   0.018  0.00  0.00    +0.051 C 
ATOM     26  C   UNL     1      -8.759  -3.974  -1.451  0.00  0.00    +0.008 C 
ENDBRANCH  19  25
ENDBRANCH  18  19
ENDBRANCH   4  18
TORSDOF 9
