REMARK  Name = ZINC19201511
REMARK  4 active torsions:
REMARK  status: ('A' for Active; 'I' for Inactive)
REMARK    1  A    between atoms: C_4  and  C_7
REMARK    2  A    between atoms: C_8  and  C_25
REMARK    3  A    between atoms: C_13  and  C_15
REMARK    4  A    between atoms: C_15  and  C_16
REMARK                            x       y       z     vdW  Elec       q    Type
REMARK                         _______ _______ _______ _____ _____    ______ ____
ROOT
ATOM      1  C   UNL     1       3.876   3.529  -0.110  0.00  0.00    +0.088 A 
ATOM      2  C   UNL     1       4.330   3.102   1.134  0.00  0.00    +0.048 A 
ATOM      3  S   UNL     1       5.672   2.027   0.643  0.00  0.00    -0.051 S 
ATOM      4  C   UNL     1       5.495   2.238  -1.123  0.00  0.00    +0.165 A 
ATOM      5  N   UNL     1       4.480   3.078  -1.195  0.00  0.00    -0.224 NA
ATOM      6  N   UNL     1       6.237   1.670  -2.150  0.00  0.00    -0.264 N 
ATOM      7  C   UNL     1       7.247   0.826  -1.865  0.00  0.00    +0.225 C 
ATOM      8  O   UNL     1       7.509   0.561  -0.710  0.00  0.00    -0.275 OA
ATOM      9  H   UNL     1       5.999   1.910  -3.197  0.00  0.00    +0.157 HD
ENDROOT
BRANCH   1  13
ATOM     10  C   UNL     1       0.612   6.234  -0.412  0.00  0.00    +0.000 A 
ATOM     11  C   UNL     1       0.569   5.203   0.509  0.00  0.00    +0.001 A 
ATOM     12  C   UNL     1       1.626   4.321   0.612  0.00  0.00    +0.010 A 
ATOM     13  C   UNL     1       2.739   4.472  -0.215  0.00  0.00    +0.002 A 
ATOM     14  C   UNL     1       2.778   5.517  -1.139  0.00  0.00    +0.010 A 
ATOM     15  C   UNL     1       1.713   6.389  -1.235  0.00  0.00    +0.001 A 
ENDBRANCH   1  13
BRANCH   2  16
ATOM     16  C   UNL     1       3.844   3.447   2.484  0.00  0.00    -0.009 A 
ATOM     17  C   UNL     1       3.638   2.443   3.433  0.00  0.00    +0.009 A 
ATOM     18  C   UNL     1       3.184   2.772   4.693  0.00  0.00    +0.001 A 
ATOM     19  C   UNL     1       2.932   4.093   5.018  0.00  0.00    +0.000 A 
ATOM     20  C   UNL     1       3.134   5.093   4.083  0.00  0.00    +0.001 A 
ATOM     21  C   UNL     1       3.588   4.779   2.819  0.00  0.00    +0.009 A 
ENDBRANCH   2  16
BRANCH   7  22
ATOM     22  C   UNL     1       8.052   0.210  -2.980  0.00  0.00    +0.155 C 
BRANCH  22  23
ATOM     23  C   UNL     1       9.113  -0.689  -2.397  0.00  0.00    +0.100 A 
ATOM     24  C   UNL     1       8.972  -2.117  -2.100  0.00  0.00    +0.045 A 
ATOM     25  C   UNL     1       7.927  -3.034  -2.238  0.00  0.00    +0.013 A 
ATOM     26  C   UNL     1       8.111  -4.334  -1.861  0.00  0.00    +0.001 A 
ATOM     27  C   UNL     1       9.328  -4.752  -1.341  0.00  0.00    +0.004 A 
ATOM     28  C   UNL     1      10.371  -3.863  -1.197  0.00  0.00    +0.049 A 
ATOM     29  C   UNL     1      10.205  -2.536  -1.575  0.00  0.00    +0.168 A 
ATOM     30  O   UNL     1      11.015  -1.459  -1.556  0.00  0.00    -0.354 OA
ATOM     31  N   UNL     1      10.319  -0.341  -2.071  0.00  0.00    -0.082 NA
ENDBRANCH  22  23
ENDBRANCH   7  22
TORSDOF 4
