REMARK  Name = ZINC63515220
REMARK  7 active torsions:
REMARK  status: ('A' for Active; 'I' for Inactive)
REMARK    1  A    between atoms: C_1  and  C_2
REMARK    2  A    between atoms: C_7  and  S_12
REMARK    3  A    between atoms: S_12  and  C_13
REMARK    4  A    between atoms: C_13  and  C_14
REMARK    5  A    between atoms: C_20  and  S_22
REMARK    6  A    between atoms: S_22  and  C_25
REMARK    7  A    between atoms: C_28  and  N_31
REMARK                            x       y       z     vdW  Elec       q    Type
REMARK                         _______ _______ _______ _____ _____    ______ ____
ROOT
ATOM      1  C   UNL     1      -4.091  -4.910   1.844  0.00  0.00    +0.229 C 
ATOM      2  O   UNL     1      -4.084  -5.978   2.419  0.00  0.00    -0.275 OA
ATOM      3  N   UNL     1      -5.261  -4.324   1.526  0.00  0.00    -0.264 N 
ATOM      4  C   UNL     1      -6.462  -4.942   1.857  0.00  0.00    +0.166 A 
ATOM      5  N   UNL     1      -6.647  -6.086   2.479  0.00  0.00    -0.231 NA
ATOM      6  C   UNL     1      -7.862  -6.542   2.721  0.00  0.00    +0.148 A 
ATOM      7  C   UNL     1      -8.901  -5.780   2.300  0.00  0.00    +0.152 A 
ATOM      8  S   UNL     1      -8.030  -4.406   1.565  0.00  0.00    -0.033 S 
ATOM      9  H   UNL     1      -5.267  -3.470   1.066  0.00  0.00    +0.157 HD
ENDROOT
BRANCH   7  10
ATOM     10  S   UNL     1     -10.634  -6.064   2.445  0.00  0.00    +0.033 S 
ATOM     11  O   UNL     1     -11.256  -5.317   1.408  0.00  0.00    -0.164 OA
ATOM     12  O   UNL     1     -10.806  -7.468   2.581  0.00  0.00    -0.164 OA
BRANCH  10  13
ATOM     13  C   UNL     1     -11.155  -5.343   3.966  0.00  0.00    +0.094 A 
ATOM     14  C   UNL     1     -11.138  -6.092   5.128  0.00  0.00    +0.029 A 
ATOM     15  C   UNL     1     -11.546  -5.526   6.321  0.00  0.00    +0.034 A 
ATOM     16  C   UNL     1     -11.972  -4.211   6.353  0.00  0.00    +0.126 A 
ATOM     17  C   UNL     1     -11.988  -3.462   5.191  0.00  0.00    +0.034 A 
ATOM     18  C   UNL     1     -11.576  -4.026   3.999  0.00  0.00    +0.029 A 
BRANCH  16  19
ATOM     19  N   UNL     1     -12.410  -3.606   7.631  0.00  0.00    +0.056 N 
ATOM     20  O   UNL     1     -12.396  -4.262   8.646  0.00  0.00    -0.126 OA
ATOM     21  O   UNL     1     -12.782  -2.456   7.658  0.00  0.00    -0.126 OA
ENDBRANCH  16  19
ENDBRANCH  10  13
ENDBRANCH   7  10
BRANCH   1  22
ATOM     22  C   UNL     1      -2.790  -4.240   1.485  0.00  0.00    +0.169 C 
BRANCH  22  23
ATOM     23  S   UNL     1      -1.405  -5.270   2.043  0.00  0.00    -0.106 S 
BRANCH  23  30
ATOM     24  C   UNL     1      -0.018   1.503   0.010  0.00  0.00    +0.044 C 
ATOM     25  C   UNL     1       0.002  -0.004   0.002  0.00  0.00    -0.048 A 
ATOM     26  C   UNL     1       0.005  -0.672  -1.235  0.00  0.00    +0.005 A 
ATOM     27  C   UNL     1       0.022  -2.017  -1.335  0.00  0.00    +0.028 A 
ATOM     28  C   UNL     1       0.040  -2.834  -0.114  0.00  0.00    +0.061 A 
ATOM     29  N   UNL     1       0.057  -4.120   0.090  0.00  0.00    -0.355 N 
ATOM     30  C   UNL     1       0.067  -4.335   1.542  0.00  0.00    +0.236 C 
ATOM     31  N   UNL     1       0.053  -3.002   2.159  0.00  0.00    -0.355 N 
ATOM     32  C   UNL     1       0.037  -2.127   1.195  0.00  0.00    +0.061 A 
ATOM     33  C   UNL     1       0.022  -0.657   1.181  0.00  0.00    +0.030 A 
ATOM     34  H   UNL     1       0.062  -4.809  -0.593  0.00  0.00    +0.162 HD
ATOM     35  H   UNL     1       0.055  -2.810   3.109  0.00  0.00    +0.162 HD
ENDBRANCH  23  30
ENDBRANCH  22  23
ENDBRANCH   1  22
TORSDOF 6
