REMARK  Name = ZINC38905667
REMARK  10 active torsions:
REMARK  status: ('A' for Active; 'I' for Inactive)
REMARK    1  A    between atoms: C_1  and  C_2
REMARK    2  A    between atoms: C_2  and  C_3
REMARK    3  A    between atoms: C_3  and  C_5
REMARK    4  A    between atoms: C_3  and  N_13
REMARK    5  A    between atoms: C_8  and  O_11
REMARK    6  A    between atoms: O_11  and  C_12
REMARK    7  A    between atoms: C_14  and  C_16
REMARK    8  A    between atoms: N_21  and  C_23
REMARK    9  A    between atoms: C_23  and  C_24
REMARK   10  A    between atoms: C_26  and  C_29
REMARK                            x       y       z     vdW  Elec       q    Type
REMARK                         _______ _______ _______ _____ _____    ______ ____
ROOT
ATOM      1  C   UNL     1      -3.330   1.430   2.696  0.00  0.00    +0.058 C 
ATOM      2  C   UNL     1      -4.462   0.443   3.000  0.00  0.00    +0.009 C 
ATOM      3  C   UNL     1      -5.182   0.885   4.277  0.00  0.00    -0.018 C 
ATOM      4  C   UNL     1      -5.694   2.316   4.098  0.00  0.00    -0.078 C 
ATOM      5  N   UNL     1      -4.563   3.215   3.836  0.00  0.00    +0.386 N 
ATOM      6  C   UNL     1      -3.910   2.841   2.576  0.00  0.00    -0.065 C 
ATOM      7  H   UNL     1      -3.897   3.145   4.592  0.00  0.00    -0.081 HD
ENDROOT
BRANCH   1   9
ATOM      8  N   UNL     1      -2.082  -0.162   1.273  0.00  0.00    -0.308 N 
ATOM      9  C   UNL     1      -2.664   1.047   1.400  0.00  0.00    +0.215 C 
ATOM     10  O   UNL     1      -2.651   1.827   0.471  0.00  0.00    -0.276 OA
ATOM     11  H   UNL     1      -2.092  -0.785   2.016  0.00  0.00    +0.149 HD
BRANCH   8  12
ATOM     12  C   UNL     1      -1.433  -0.534   0.013  0.00  0.00    +0.103 C 
BRANCH  12  13
ATOM     13  C   UNL     1      -1.416  -2.035  -0.119  0.00  0.00    -0.027 A 
ATOM     14  C   UNL     1      -1.159  -2.822   0.988  0.00  0.00    +0.009 A 
ATOM     15  C   UNL     1      -1.142  -4.198   0.870  0.00  0.00    +0.046 A 
ATOM     16  C   UNL     1      -1.384  -4.790  -0.362  0.00  0.00    +0.120 A 
ATOM     17  C   UNL     1      -1.642  -3.998  -1.471  0.00  0.00    +0.046 A 
ATOM     18  C   UNL     1      -1.663  -2.623  -1.346  0.00  0.00    +0.009 A 
BRANCH  16  19
ATOM     19  O   UNL     1      -1.367  -6.144  -0.481  0.00  0.00    -0.495 OA
ATOM     20  C   UNL     1      -1.624  -6.684  -1.779  0.00  0.00    +0.277 C 
ENDBRANCH  16  19
ENDBRANCH  12  13
BRANCH  12  22
ATOM     21  C   UNL     1      -0.019   1.526   0.010  0.00  0.00    +0.006 C 
ATOM     22  C   UNL     1       0.002  -0.004   0.002  0.00  0.00    +0.024 C 
ENDBRANCH  12  22
ENDBRANCH   8  12
ENDBRANCH   1   9
BRANCH   5  23
ATOM     23  C   UNL     1      -5.050   4.598   3.742  0.00  0.00    +0.022 C 
BRANCH  23  24
ATOM     24  C   UNL     1      -5.601   5.028   5.077  0.00  0.00    +0.211 A 
ATOM     25  N   UNL     1      -4.925   5.605   6.029  0.00  0.00    -0.193 NA
ATOM     26  C   UNL     1      -5.728   5.851   7.080  0.00  0.00    +0.202 A 
ATOM     27  N   UNL     1      -6.934   5.425   6.794  0.00  0.00    -0.056 NA
ATOM     28  O   UNL     1      -6.870   4.886   5.482  0.00  0.00    -0.340 OA
BRANCH  26  29
ATOM     29  C   UNL     1      -5.317   6.497   8.351  0.00  0.00    +0.023 A 
ATOM     30  C   UNL     1      -3.999   6.912   8.530  0.00  0.00    +0.013 A 
ATOM     31  C   UNL     1      -3.622   7.512   9.714  0.00  0.00    +0.016 A 
ATOM     32  C   UNL     1      -4.550   7.702  10.723  0.00  0.00    +0.018 A 
ATOM     33  C   UNL     1      -5.861   7.291  10.551  0.00  0.00    +0.016 A 
ATOM     34  C   UNL     1      -6.250   6.696   9.368  0.00  0.00    +0.013 A 
ATOM     35 BR   UNL     1      -4.027   8.524  12.343  0.00  0.00    -0.050 Br
ENDBRANCH  26  29
ENDBRANCH  23  24
ENDBRANCH   5  23
TORSDOF 8
