REMARK  Name = ZINC38361494
REMARK  9 active torsions:
REMARK  status: ('A' for Active; 'I' for Inactive)
REMARK    1  A    between atoms: C_1  and  C_2
REMARK    2  A    between atoms: C_2  and  C_4
REMARK    3  A    between atoms: C_2  and  N_10
REMARK    4  A    between atoms: N_10  and  C_11
REMARK    5  A    between atoms: C_11  and  C_13
REMARK    6  A    between atoms: C_11  and  C_25
REMARK    7  A    between atoms: C_16  and  C_19
REMARK    8  A    between atoms: C_25  and  C_26
REMARK    9  A    between atoms: C_25  and  C_27
REMARK                            x       y       z     vdW  Elec       q    Type
REMARK                         _______ _______ _______ _____ _____    ______ ____
ROOT
ATOM      1  C   UNL     1      -1.785  -0.590   1.422  0.00  0.00    +0.087 C 
ENDROOT
BRANCH   1   2
ATOM      2  C   UNL     1      -3.283  -0.691   1.298  0.00  0.00    -0.030 A 
ATOM      3  C   UNL     1      -3.845  -1.399   0.252  0.00  0.00    +0.005 A 
ATOM      4  C   UNL     1      -5.219  -1.491   0.139  0.00  0.00    +0.004 A 
ATOM      5  C   UNL     1      -6.033  -0.876   1.072  0.00  0.00    -0.044 A 
ATOM      6  C   UNL     1      -5.471  -0.169   2.119  0.00  0.00    +0.004 A 
ATOM      7  C   UNL     1      -4.097  -0.080   2.235  0.00  0.00    +0.005 A 
BRANCH   5   8
ATOM      8  C   UNL     1      -7.531  -0.976   0.948  0.00  0.00    +0.019 C 
ATOM      9  C   UNL     1      -8.126   0.426   0.808  0.00  0.00    +0.008 C 
ATOM     10  C   UNL     1      -9.648   0.325   0.683  0.00  0.00    +0.001 C 
ATOM     11  C   UNL     1     -10.219  -0.349   1.932  0.00  0.00    +0.000 C 
ATOM     12  C   UNL     1      -9.624  -1.752   2.072  0.00  0.00    +0.001 C 
ATOM     13  C   UNL     1      -8.102  -1.650   2.197  0.00  0.00    +0.008 C 
ENDBRANCH   5   8
ENDBRANCH   1   2
BRANCH   1  14
ATOM     14  C   UNL     1      -1.236  -1.877   2.041  0.00  0.00    +0.004 C 
ATOM     15  C   UNL     1       0.292  -1.820   2.066  0.00  0.00    +0.009 C 
ATOM     16  C   UNL     1      -1.764  -2.021   3.470  0.00  0.00    +0.009 C 
ENDBRANCH   1  14
BRANCH   1  17
ATOM     17  N   UNL     1      -1.196  -0.398   0.090  0.00  0.00    -0.299 NA
ATOM     18  H   UNL     1      -1.708  -0.912  -0.610  0.00  0.00    +0.123 HD
BRANCH  17  20
ATOM     19  C   UNL     1      -2.434   1.461  -0.915  0.00  0.00    +0.034 C 
ATOM     20  C   UNL     1      -1.124   1.029  -0.253  0.00  0.00    +0.138 C 
BRANCH  20  21
ATOM     21  C   UNL     1       0.020   1.260  -1.206  0.00  0.00    +0.237 C 
ATOM     22  O   UNL     1       0.708   0.328  -1.564  0.00  0.00    -0.274 OA
ATOM     23  N   UNL     1       0.279   2.502  -1.660  0.00  0.00    -0.239 N 
ATOM     24  C   UNL     1       1.303   2.708  -2.512  0.00  0.00    +0.303 C 
ATOM     25  O   UNL     1       1.992   1.774  -2.871  0.00  0.00    -0.253 OA
ATOM     26  N   UNL     1       1.562   3.951  -2.966  0.00  0.00    -0.313 N 
ATOM     27  H   UNL     1      -0.271   3.248  -1.373  0.00  0.00    +0.159 HD
ATOM     28  H   UNL     1       1.011   4.696  -2.679  0.00  0.00    +0.146 HD
ATOM     29  H   UNL     1       2.298   4.099  -3.579  0.00  0.00    +0.146 HD
ENDBRANCH  20  21
ENDBRANCH  17  20
ENDBRANCH   1  17
TORSDOF 6
