REMARK  Name = ZINC29939083
REMARK  8 active torsions:
REMARK  status: ('A' for Active; 'I' for Inactive)
REMARK    1  A    between atoms: C_1  and  C_2
REMARK    2  A    between atoms: N_4  and  C_5
REMARK    3  A    between atoms: C_14  and  C_17
REMARK    4  A    between atoms: C_18  and  C_19
REMARK    5  A    between atoms: N_21  and  C_22
REMARK    6  A    between atoms: C_22  and  C_23
REMARK    7  A    between atoms: C_23  and  C_25
REMARK    8  A    between atoms: C_23  and  N_30
REMARK                            x       y       z     vdW  Elec       q    Type
REMARK                         _______ _______ _______ _____ _____    ______ ____
ROOT
ATOM      1  C   UNL     1      -5.074   0.667   3.253  0.00  0.00    +0.033 C 
ATOM      2  C   UNL     1      -3.766   0.774   2.924  0.00  0.00    +0.069 C 
ENDROOT
BRANCH   1   9
ATOM      3  C   UNL     1      -2.336   4.056   8.323  0.00  0.00    +0.110 C 
ATOM      4  C   UNL     1      -3.114   3.307   7.272  0.00  0.00    +0.223 C 
ATOM      5  O   UNL     1      -2.549   2.887   6.284  0.00  0.00    -0.275 OA
ATOM      6  N   UNL     1      -4.436   3.103   7.430  0.00  0.00    -0.216 N 
ATOM      7  C   UNL     1      -5.154   2.413   6.460  0.00  0.00    +0.172 A 
ATOM      8  N   UNL     1      -4.728   1.880   5.333  0.00  0.00    -0.225 NA
ATOM      9  C   UNL     1      -5.564   1.249   4.507  0.00  0.00    +0.073 A 
ATOM     10  C   UNL     1      -6.892   1.147   4.853  0.00  0.00    +0.076 A 
ATOM     11  S   UNL     1      -6.894   2.008   6.420  0.00  0.00    -0.059 S 
BRANCH   6  12
ATOM     12  C   UNL     1      -5.089   3.589   8.572  0.00  0.00    +0.078 A 
ATOM     13  C   UNL     1      -5.186   2.796   9.707  0.00  0.00    +0.027 A 
ATOM     14  C   UNL     1      -5.829   3.276  10.831  0.00  0.00    +0.002 A 
ATOM     15  C   UNL     1      -6.376   4.546  10.828  0.00  0.00    +0.003 A 
ATOM     16  C   UNL     1      -6.281   5.340   9.700  0.00  0.00    +0.040 A 
ATOM     17  C   UNL     1      -5.635   4.867   8.572  0.00  0.00    +0.145 A 
ATOM     18  F   UNL     1      -5.538   5.644   7.471  0.00  0.00    -0.204 F 
ENDBRANCH   6  12
ENDBRANCH   1   9
BRANCH   2  19
ATOM     19  C   UNL     1      -3.292   0.212   1.712  0.00  0.00    +0.237 C 
ATOM     20  O   UNL     1      -4.063  -0.366   0.968  0.00  0.00    -0.271 OA
ATOM     21  N   UNL     1      -1.990   0.318   1.384  0.00  0.00    -0.313 N 
ATOM     22  H   UNL     1      -1.294   0.841   2.057  0.00  0.00    +0.149 HD
BRANCH  21  23
ATOM     23  C   UNL     1      -1.500  -0.263   0.132  0.00  0.00    +0.097 C 
BRANCH  23  24
ATOM     24  C   UNL     1       0.002  -0.004   0.002  0.00  0.00    +0.016 C 
BRANCH  24  25
ATOM     25  N   UNL     1       0.263   1.437   0.121  0.00  0.00    +0.387 N 
ATOM     26  C   UNL     1      -0.497   2.193  -0.883  0.00  0.00    -0.078 C 
ATOM     27  C   UNL     1      -0.316   3.693  -0.637  0.00  0.00    -0.019 C 
ATOM     28  C   UNL     1       1.172   4.044  -0.726  0.00  0.00    -0.004 C 
ATOM     29  C   UNL     1       1.947   3.207   0.296  0.00  0.00    -0.019 C 
ATOM     30  C   UNL     1       1.700   1.721   0.024  0.00  0.00    -0.078 C 
ATOM     31  H   UNL     1      -0.077   1.763   1.115  0.00  0.00    -0.081 HD
ENDBRANCH  24  25
BRANCH  24  32
ATOM     32  C   UNL     1       0.482  -0.493  -1.340  0.00  0.00    +0.093 A 
ATOM     33  C   UNL     1       1.239  -1.583  -1.556  0.00  0.00    +0.043 A 
ATOM     34  C   UNL     1       1.450  -1.667  -2.951  0.00  0.00    +0.041 A 
ATOM     35  C   UNL     1       0.816  -0.617  -3.505  0.00  0.00    +0.195 A 
ATOM     36  O   UNL     1       0.231   0.090  -2.524  0.00  0.00    -0.469 OA
ENDBRANCH  24  32
ENDBRANCH  23  24
ENDBRANCH  21  23
ENDBRANCH   2  19
TORSDOF 7
