REMARK  Name = ZINC02735264
REMARK  13 active torsions:
REMARK  status: ('A' for Active; 'I' for Inactive)
REMARK    1  A    between atoms: C_1  and  C_2
REMARK    2  A    between atoms: C_2  and  S_3
REMARK    3  A    between atoms: S_3  and  C_4
REMARK    4  A    between atoms: C_4  and  C_5
REMARK    5  A    between atoms: C_5  and  O_6
REMARK    6  A    between atoms: O_6  and  C_7
REMARK    7  A    between atoms: C_7  and  C_9
REMARK    8  A    between atoms: C_10  and  C_39
REMARK    9  A    between atoms: C_14  and  C_16
REMARK   10  A    between atoms: C_20  and  N_22
REMARK   11  A    between atoms: C_28  and  C_31
REMARK   12  A    between atoms: C_36  and  O_37
REMARK   13  A    between atoms: O_37  and  C_38
REMARK                            x       y       z     vdW  Elec       q    Type
REMARK                         _______ _______ _______ _____ _____    ______ ____
ROOT
ATOM      1  C   UNL     1      -0.849   2.892   1.467  0.00  0.00    +0.065 C 
ATOM      2  C   UNL     1      -0.718   1.572   1.248  0.00  0.00    +0.016 C 
ATOM      3  N   UNL     1      -1.215   0.668   2.145  0.00  0.00    -0.321 N 
ATOM      4  C   UNL     1      -1.496   1.042   3.431  0.00  0.00    +0.016 C 
ATOM      5  C   UNL     1      -1.659   2.345   3.745  0.00  0.00    +0.024 C 
ATOM      6  C   UNL     1      -1.556   3.412   2.684  0.00  0.00    +0.092 C 
ATOM      7  C   UNL     1      -1.932   2.744   5.065  0.00  0.00    +0.162 C 
ATOM      8  O   UNL     1      -2.082   3.925   5.312  0.00  0.00    -0.292 OA
ATOM      9  C   UNL     1      -2.042   1.738   6.177  0.00  0.00    +0.088 C 
ATOM     10  C   UNL     1      -1.174   0.522   5.838  0.00  0.00    +0.035 C 
ATOM     11  C   UNL     1      -1.622  -0.032   4.483  0.00  0.00    +0.060 C 
ATOM     12  C   UNL     1      -0.013   1.086   0.008  0.00  0.00    +0.061 C 
ATOM     13  H   UNL     1      -1.393  -0.373   1.835  0.00  0.00    +0.152 HD
ENDROOT
BRANCH   6  14
ATOM     14  C   UNL     1      -2.942   3.864   2.300  0.00  0.00    -0.033 A 
ATOM     15  C   UNL     1      -3.844   2.957   1.776  0.00  0.00    +0.005 A 
ATOM     16  C   UNL     1      -5.116   3.370   1.428  0.00  0.00    +0.003 A 
ATOM     17  C   UNL     1      -5.484   4.692   1.596  0.00  0.00    +0.033 A 
ATOM     18  C   UNL     1      -4.580   5.600   2.116  0.00  0.00    +0.126 A 
ATOM     19  C   UNL     1      -3.309   5.186   2.468  0.00  0.00    +0.037 A 
BRANCH  18  20
ATOM     20  N   UNL     1      -4.973   7.016   2.296  0.00  0.00    +0.056 N 
ATOM     21  O   UNL     1      -4.177   7.815   2.753  0.00  0.00    -0.126 OA
ATOM     22  O   UNL     1      -6.093   7.381   1.986  0.00  0.00    -0.126 OA
ENDBRANCH  18  20
ENDBRANCH   6  14
BRANCH  10  23
ATOM     23  C   UNL     1      -1.346  -0.535   6.898  0.00  0.00    -0.002 A 
ATOM     24  C   UNL     1      -2.598  -1.058   7.157  0.00  0.00    +0.007 A 
ATOM     25  C   UNL     1      -2.756  -2.030   8.126  0.00  0.00    +0.001 A 
ATOM     26  C   UNL     1      -1.663  -2.476   8.846  0.00  0.00    +0.004 A 
ATOM     27  C   UNL     1      -0.409  -1.953   8.595  0.00  0.00    +0.046 A 
ATOM     28  C   UNL     1      -0.248  -0.980   7.619  0.00  0.00    +0.124 A 
BRANCH  28  29
ATOM     29  O   UNL     1       0.985  -0.464   7.370  0.00  0.00    -0.495 OA
ATOM     30  C   UNL     1       2.070  -0.969   8.151  0.00  0.00    +0.277 C 
ENDBRANCH  28  29
ENDBRANCH  10  23
BRANCH   1  31
ATOM     31  C   UNL     1      -0.315   3.807   0.531  0.00  0.00    +0.338 C 
ATOM     32  O   UNL     1       0.257   3.398  -0.462  0.00  0.00    -0.245 OA
BRANCH  31  33
ATOM     33  O   UNL     1      -0.440   5.135   0.738  0.00  0.00    -0.460 OA
BRANCH  33  34
ATOM     34  C   UNL     1       0.124   6.001  -0.248  0.00  0.00    +0.243 C 
BRANCH  34  35
ATOM     35  C   UNL     1      -0.115   7.457   0.156  0.00  0.00    +0.110 C 
BRANCH  35  36
ATOM     36  S   UNL     1       0.600   8.558  -1.097  0.00  0.00    -0.158 S 
BRANCH  36  38
ATOM     37  C   UNL     1       0.793  11.263  -1.451  0.00  0.00    +0.015 C 
ATOM     38  C   UNL     1       0.237  10.223  -0.476  0.00  0.00    +0.066 C 
ENDBRANCH  36  38
ENDBRANCH  35  36
ENDBRANCH  34  35
ENDBRANCH  33  34
ENDBRANCH  31  33
ENDBRANCH   1  31
TORSDOF 10
