REMARK  Name = ZINC04163215
REMARK  6 active torsions:
REMARK  status: ('A' for Active; 'I' for Inactive)
REMARK    1  A    between atoms: C_3  and  C_6
REMARK    2  A    between atoms: C_6  and  C_8
REMARK    3  A    between atoms: C_10  and  C_22
REMARK    4  A    between atoms: C_16  and  C_17
REMARK    5  A    between atoms: C_16  and  O_21
REMARK    6  A    between atoms: C_25  and  C_28
REMARK                            x       y       z     vdW  Elec       q    Type
REMARK                         _______ _______ _______ _____ _____    ______ ____
ROOT
ATOM      1  C   UNL     1      -5.305   4.606  -1.343  0.00  0.00    +0.145 C 
ATOM      2  C   UNL     1      -5.036   4.019   0.047  0.00  0.00    +0.120 C 
ATOM      3  N   UNL     1      -4.981   5.106   1.026  0.00  0.00    -0.292 N 
ATOM      4  C   UNL     1      -4.580   6.339   0.677  0.00  0.00    +0.302 C 
ATOM      5  O   UNL     1      -4.542   7.204   1.530  0.00  0.00    -0.253 OA
ATOM      6  N   UNL     1      -4.218   6.654  -0.576  0.00  0.00    -0.264 N 
ATOM      7  C   UNL     1      -4.230   5.655  -1.646  0.00  0.00    +0.243 C 
ATOM      8  H   UNL     1      -5.240   4.932   1.944  0.00  0.00    +0.151 HD
ATOM      9  H   UNL     1      -3.943   7.562  -0.777  0.00  0.00    +0.153 HD
ENDROOT
BRANCH   2  10
ATOM     10  C   UNL     1      -3.720   3.284   0.037  0.00  0.00    -0.026 A 
ATOM     11  C   UNL     1      -3.661   1.985  -0.436  0.00  0.00    +0.006 A 
ATOM     12  C   UNL     1      -2.461   1.306  -0.448  0.00  0.00    +0.015 A 
ATOM     13  C   UNL     1      -1.304   1.932   0.019  0.00  0.00    +0.063 A 
ATOM     14  C   UNL     1      -1.371   3.241   0.500  0.00  0.00    +0.015 A 
ATOM     15  C   UNL     1      -2.578   3.910   0.502  0.00  0.00    +0.006 A 
BRANCH  13  16
ATOM     16  C   UNL     1      -0.014   1.211   0.009  0.00  0.00    +0.387 C 
ATOM     17  O   UNL     1       0.041   0.071  -0.406  0.00  0.00    -0.241 OA
ATOM     18  O   UNL     1       1.102   1.820   0.455  0.00  0.00    -0.241 OA
ENDBRANCH  13  16
ENDBRANCH   2  10
BRANCH   7  19
ATOM     19  C   UNL     1      -4.542   6.337  -2.979  0.00  0.00    +0.436 C 
ATOM     20  F   UNL     1      -5.793   6.960  -2.902  0.00  0.00    -0.166 F 
ATOM     21  F   UNL     1      -3.560   7.295  -3.255  0.00  0.00    -0.166 F 
ATOM     22  F   UNL     1      -4.560   5.380  -4.000  0.00  0.00    -0.166 F 
ENDBRANCH   7  19
BRANCH   1  23
ATOM     23  C   UNL     1      -6.665   5.254  -1.364  0.00  0.00    +0.179 C 
ATOM     24  O   UNL     1      -7.121   5.741  -0.349  0.00  0.00    -0.291 OA
BRANCH  23  27
ATOM     25  C   UNL     1      -9.162   5.743  -4.071  0.00  0.00    +0.008 A 
ATOM     26  C   UNL     1      -8.670   5.836  -2.795  0.00  0.00    +0.019 A 
ATOM     27  C   UNL     1      -7.409   5.296  -2.564  0.00  0.00    +0.055 A 
ATOM     28  S   UNL     1      -6.979   4.665  -4.176  0.00  0.00    -0.094 S 
ATOM     29  C   UNL     1      -8.415   5.131  -5.029  0.00  0.00    +0.046 A 
ENDBRANCH  23  27
ENDBRANCH   1  23
BRANCH   7  30
ATOM     30  O   UNL     1      -2.951   5.021  -1.721  0.00  0.00    -0.364 OA
ATOM     31  H   UNL     1      -2.222   5.627  -1.911  0.00  0.00    +0.212 HD
ENDBRANCH   7  30
TORSDOF 6
