REMARK  Name = ZINC18269855
REMARK  6 active torsions:
REMARK  status: ('A' for Active; 'I' for Inactive)
REMARK    1  A    between atoms: C_1  and  C_2
REMARK    2  A    between atoms: C_5  and  C_8
REMARK    3  A    between atoms: C_17  and  N_20
REMARK    4  A    between atoms: N_23  and  N_24
REMARK    5  A    between atoms: C_25  and  C_26
REMARK    6  A    between atoms: C_30  and  N_32
REMARK                            x       y       z     vdW  Elec       q    Type
REMARK                         _______ _______ _______ _____ _____    ______ ____
ROOT
ATOM      1  C   UNL     1      -6.274   9.668  -1.141  0.00  0.00    -0.002 C 
ATOM      2  C   UNL     1      -6.355  10.541   0.112  0.00  0.00    +0.015 C 
ATOM      3  C   UNL     1      -6.250   9.657   1.357  0.00  0.00    -0.008 C 
ATOM      4  C   UNL     1      -7.399   8.647   1.364  0.00  0.00    +0.007 C 
ATOM      5  C   UNL     1      -7.318   7.774   0.110  0.00  0.00    -0.008 C 
ATOM      6  C   UNL     1      -7.423   8.658  -1.135  0.00  0.00    +0.015 C 
ATOM      7  C   UNL     1      -5.983   7.027   0.093  0.00  0.00    +0.029 C 
ATOM      8  C   UNL     1      -4.834   8.037   0.087  0.00  0.00    +0.037 C 
ATOM      9  C   UNL     1      -4.915   8.910   1.341  0.00  0.00    +0.029 C 
ATOM     10  C   UNL     1      -4.939   8.921  -1.158  0.00  0.00    +0.037 C 
ENDROOT
BRANCH   1  15
ATOM     11  C   UNL     1      -6.671  13.008  -5.841  0.00  0.00    +0.044 C 
ATOM     12  C   UNL     1      -6.567  12.137  -4.615  0.00  0.00    -0.050 A 
ATOM     13  C   UNL     1      -7.599  12.112  -3.696  0.00  0.00    +0.003 A 
ATOM     14  C   UNL     1      -7.504  11.313  -2.572  0.00  0.00    +0.004 A 
ATOM     15  C   UNL     1      -6.378  10.539  -2.367  0.00  0.00    -0.041 A 
ATOM     16  C   UNL     1      -5.344  10.567  -3.284  0.00  0.00    +0.004 A 
ATOM     17  C   UNL     1      -5.441  11.362  -4.411  0.00  0.00    +0.003 A 
ENDBRANCH   1  15
BRANCH   8  18
ATOM     18  N   UNL     1      -3.555   7.322   0.071  0.00  0.00    -0.292 N 
ATOM     19  C   UNL     1      -2.397   8.012   0.063  0.00  0.00    +0.320 C 
ATOM     20  O   UNL     1      -2.414   9.228   0.068  0.00  0.00    -0.251 OA
ATOM     21  N   UNL     1      -1.221   7.354   0.049  0.00  0.00    -0.191 N 
ATOM     22  H   UNL     1      -3.541   6.222   0.066  0.00  0.00    +0.151 HD
ATOM     23  H   UNL     1      -0.276   7.917   0.042  0.00  0.00    +0.179 HD
BRANCH  21  24
ATOM     24  N   UNL     1      -1.202   5.953   0.042  0.00  0.00    -0.186 NA
ATOM     25  C   UNL     1      -0.070   5.320   0.029  0.00  0.00    +0.138 C 
BRANCH  25  26
ATOM     26  C   UNL     1      -0.050   3.845   0.022  0.00  0.00    -0.003 A 
ATOM     27  C   UNL     1      -1.248   3.127   0.030  0.00  0.00    +0.009 A 
ATOM     28  C   UNL     1      -1.222   1.748   0.017  0.00  0.00    +0.003 A 
ATOM     29  C   UNL     1      -0.013   1.076   0.008  0.00  0.00    +0.033 A 
ATOM     30  C   UNL     1       1.178   1.780   0.000  0.00  0.00    +0.127 A 
ATOM     31  C   UNL     1       1.167   3.160   0.007  0.00  0.00    +0.042 A 
BRANCH  30  32
ATOM     32  N   UNL     1       2.467   1.053  -0.015  0.00  0.00    +0.056 N 
ATOM     33  O   UNL     1       2.478  -0.165  -0.022  0.00  0.00    -0.126 OA
ATOM     34  O   UNL     1       3.516   1.672  -0.022  0.00  0.00    -0.126 OA
ENDBRANCH  30  32
ENDBRANCH  25  26
ENDBRANCH  21  24
ENDBRANCH   8  18
TORSDOF 5
