REMARK  Name = ZINC05493735
REMARK  8 active torsions:
REMARK  status: ('A' for Active; 'I' for Inactive)
REMARK    1  A    between atoms: C_1  and  C_2
REMARK    2  A    between atoms: C_2  and  N_3
REMARK    3  A    between atoms: N_3  and  C_4
REMARK    4  A    between atoms: N_3  and  S_6
REMARK    5  A    between atoms: C_4  and  C_5
REMARK    6  A    between atoms: S_6  and  C_9
REMARK    7  A    between atoms: C_12  and  C_15
REMARK    8  A    between atoms: C_18  and  C_20
REMARK                            x       y       z     vdW  Elec       q    Type
REMARK                         _______ _______ _______ _____ _____    ______ ____
ROOT
ATOM      1  C   UNL     1      -4.839   3.997   3.533  0.00  0.00    +0.135 A 
ATOM      2  C   UNL     1      -6.123   4.363   3.277  0.00  0.00    +0.050 A 
ATOM      3  C   UNL     1      -6.345   5.574   3.964  0.00  0.00    +0.049 A 
ATOM      4  C   UNL     1      -5.197   5.883   4.598  0.00  0.00    +0.147 A 
ATOM      5  O   UNL     1      -4.292   4.926   4.340  0.00  0.00    -0.456 OA
ENDROOT
BRANCH   4   6
ATOM      6  C   UNL     1      -4.970   7.099   5.460  0.00  0.00    +0.245 C 
ATOM      7  N   UNL     1      -3.613   7.629   5.236  0.00  0.00    -0.292 N 
ATOM      8  C   UNL     1      -2.546   7.066   5.883  0.00  0.00    +0.160 C 
ATOM      9  N   UNL     1      -2.680   6.506   7.073  0.00  0.00    -0.302 N 
ATOM     10  C   UNL     1      -3.916   6.444   7.620  0.00  0.00    +0.213 A 
ATOM     11  N   UNL     1      -5.053   6.732   6.879  0.00  0.00    -0.284 N 
ATOM     12  C   UNL     1      -6.129   6.597   7.704  0.00  0.00    +0.072 A 
ATOM     13  C   UNL     1      -7.494   6.774   7.516  0.00  0.00    +0.028 A 
ATOM     14  C   UNL     1      -8.318   6.541   8.606  0.00  0.00    +0.002 A 
ATOM     15  C   UNL     1      -7.817   6.150   9.835  0.00  0.00    +0.002 A 
ATOM     16  C   UNL     1      -6.462   5.967  10.049  0.00  0.00    +0.030 A 
ATOM     17  C   UNL     1      -5.610   6.197   8.963  0.00  0.00    +0.091 A 
ATOM     18  N   UNL     1      -4.265   6.113   8.841  0.00  0.00    -0.212 NA
ATOM     19  N   UNL     1      -1.315   7.083   5.286  0.00  0.00    -0.332 N 
ATOM     20  H   UNL     1      -3.476   8.375   4.631  0.00  0.00    +0.151 HD
ATOM     21  H   UNL     1      -1.205   7.490   4.412  0.00  0.00    +0.145 HD
ATOM     22  H   UNL     1      -0.552   6.687   5.736  0.00  0.00    +0.145 HD
ATOM     23  H   UNL     1      -1.911   6.148   7.543  0.00  0.00    +0.171 HD
ENDBRANCH   4   6
BRANCH   1  27
ATOM     24  C   UNL     1      -2.898   0.520   2.058  0.00  0.00    +0.106 A 
ATOM     25  C   UNL     1      -2.212   1.395   2.882  0.00  0.00    +0.029 A 
ATOM     26  C   UNL     1      -2.837   2.526   3.365  0.00  0.00    +0.013 A 
ATOM     27  C   UNL     1      -4.163   2.788   3.019  0.00  0.00    +0.017 A 
ATOM     28  C   UNL     1      -4.849   1.902   2.187  0.00  0.00    +0.013 A 
ATOM     29  C   UNL     1      -4.211   0.777   1.707  0.00  0.00    +0.029 A 
BRANCH  24  30
ATOM     30  S   UNL     1      -2.092  -0.923   1.446  0.00  0.00    +0.061 S 
ATOM     31  O   UNL     1      -3.116  -1.857   1.133  0.00  0.00    -0.153 OA
ATOM     32  O   UNL     1      -1.043  -1.219   2.357  0.00  0.00    -0.153 OA
BRANCH  30  33
ATOM     33  N   UNL     1      -1.372  -0.511   0.012  0.00  0.00    -0.177 NA
BRANCH  33  35
ATOM     34  C   UNL     1      -0.019   1.526   0.010  0.00  0.00    +0.022 C 
ATOM     35  C   UNL     1       0.002  -0.004   0.002  0.00  0.00    +0.106 C 
ENDBRANCH  33  35
BRANCH  33  36
ATOM     36  C   UNL     1      -2.110  -0.654  -1.245  0.00  0.00    +0.106 C 
ATOM     37  C   UNL     1      -1.773  -2.003  -1.884  0.00  0.00    +0.022 C 
ENDBRANCH  33  36
ENDBRANCH  30  33
ENDBRANCH  24  30
ENDBRANCH   1  27
TORSDOF 6
