REMARK  Name = ZINC40426300
REMARK  14 active torsions:
REMARK  status: ('A' for Active; 'I' for Inactive)
REMARK    1  A    between atoms: C_1  and  C_2
REMARK    2  A    between atoms: C_2  and  C_3
REMARK    3  A    between atoms: C_2  and  C_4
REMARK    4  A    between atoms: C_2  and  C_5
REMARK    5  A    between atoms: C_6  and  N_19
REMARK    6  A    between atoms: C_7  and  N_18
REMARK    7  A    between atoms: N_8  and  C_10
REMARK    8  A    between atoms: N_22  and  C_23
REMARK    9  A    between atoms: N_22  and  C_28
REMARK   10  A    between atoms: C_23  and  C_24
REMARK   11  A    between atoms: C_24  and  N_25
REMARK   12  A    between atoms: N_25  and  C_26
REMARK   13  A    between atoms: N_25  and  C_27
REMARK   14  A    between atoms: C_28  and  C_29
REMARK                            x       y       z     vdW  Elec       q    Type
REMARK                         _______ _______ _______ _____ _____    ______ ____
ROOT
ATOM      1  C   UNL     1       0.462  -0.475  -1.404  0.00  0.00    +0.092 A 
ATOM      2  C   UNL     1       0.822  -1.807  -1.644  0.00  0.00    +0.098 A 
ATOM      3  C   UNL     1       1.743  -1.815  -2.651  0.00  0.00    +0.142 A 
ATOM      4  N   UNL     1       1.948  -0.521  -3.026  0.00  0.00    -0.214 N 
ATOM      5  N   UNL     1       1.129   0.290  -2.231  0.00  0.00    -0.167 NA
ENDROOT
BRANCH   4   6
ATOM      6  C   UNL     1       2.820  -0.082  -4.032  0.00  0.00    +0.105 A 
ATOM      7  C   UNL     1       2.822  -0.705  -5.272  0.00  0.00    +0.069 A 
ATOM      8  C   UNL     1       3.683  -0.268  -6.263  0.00  0.00    +0.126 A 
ATOM      9  C   UNL     1       4.543   0.790  -6.018  0.00  0.00    +0.041 A 
ATOM     10  C   UNL     1       4.543   1.412  -4.784  0.00  0.00    +0.043 A 
ATOM     11  C   UNL     1       3.681   0.983  -3.791  0.00  0.00    +0.149 A 
ATOM     12  F   UNL     1       3.678   1.596  -2.587  0.00  0.00    -0.203 F 
ATOM     13  F   UNL     1       3.685  -0.875  -7.470  0.00  0.00    -0.205 F 
ENDBRANCH   4   6
BRANCH   2  14
ATOM     14  N   UNL     1       0.321  -2.940  -0.964  0.00  0.00    -0.265 N 
ATOM     15  C   UNL     1       0.153  -4.102  -1.625  0.00  0.00    +0.307 C 
ATOM     16  O   UNL     1       0.352  -4.155  -2.824  0.00  0.00    -0.252 OA
ATOM     17  N   UNL     1      -0.237  -5.207  -0.958  0.00  0.00    -0.283 N 
ATOM     18  H   UNL     1       0.099  -2.881  -0.022  0.00  0.00    +0.157 HD
BRANCH  17  19
ATOM     19  C   UNL     1      -0.477  -5.143   0.486  0.00  0.00    +0.091 C 
BRANCH  19  20
ATOM     20  C   UNL     1      -1.941  -4.782   0.744  0.00  0.00    -0.060 C 
BRANCH  20  21
ATOM     21  N   UNL     1      -2.182  -4.719   2.192  0.00  0.00    +0.377 N 
ATOM     22  C   UNL     1      -1.402  -3.616   2.770  0.00  0.00    -0.097 C 
ATOM     23  C   UNL     1      -3.612  -4.490   2.440  0.00  0.00    -0.097 C 
ATOM     24  H   UNL     1      -1.902  -5.589   2.618  0.00  0.00    -0.083 HD
ENDBRANCH  20  21
ENDBRANCH  19  20
ENDBRANCH  17  19
BRANCH  17  25
ATOM     25  C   UNL     1      -0.420  -6.470  -1.676  0.00  0.00    +0.144 C 
BRANCH  25  26
ATOM     26  C   UNL     1       0.877  -7.237  -1.682  0.00  0.00    -0.030 A 
ATOM     27  C   UNL     1       1.788  -7.049  -2.704  0.00  0.00    +0.005 A 
ATOM     28  C   UNL     1       2.977  -7.753  -2.709  0.00  0.00    +0.000 A 
ATOM     29  C   UNL     1       3.257  -8.645  -1.691  0.00  0.00    +0.000 A 
ATOM     30  C   UNL     1       2.346  -8.833  -0.668  0.00  0.00    +0.000 A 
ATOM     31  C   UNL     1       1.159  -8.126  -0.661  0.00  0.00    +0.005 A 
ENDBRANCH  25  26
ENDBRANCH  17  25
ENDBRANCH   2  14
BRANCH   1  33
ATOM     32  C   UNL     1      -0.644   1.522  -0.435  0.00  0.00    +0.017 C 
ATOM     33  C   UNL     1      -0.530  -0.003  -0.372  0.00  0.00    +0.008 C 
ATOM     34  C   UNL     1      -0.056  -0.422   1.021  0.00  0.00    +0.017 C 
ATOM     35  C   UNL     1      -1.897  -0.629  -0.655  0.00  0.00    +0.017 C 
ENDBRANCH   1  33
BRANCH   3  36
ATOM     36  N   UNL     1       2.360  -2.942  -3.197  0.00  0.00    -0.342 N 
ATOM     37  H   UNL     1       2.122  -3.827  -2.879  0.00  0.00    +0.144 HD
ATOM     38  H   UNL     1       3.027  -2.839  -3.893  0.00  0.00    +0.144 HD
ENDBRANCH   3  36
TORSDOF 9
