REMARK  Name = ZINC39422638
REMARK  7 active torsions:
REMARK  status: ('A' for Active; 'I' for Inactive)
REMARK    1  A    between atoms: C_1  and  C_2
REMARK    2  A    between atoms: C_2  and  C_3
REMARK    3  A    between atoms: C_2  and  C_4
REMARK    4  A    between atoms: C_4  and  N_5
REMARK    5  A    between atoms: C_6  and  S_18
REMARK    6  A    between atoms: S_18  and  C_19
REMARK    7  A    between atoms: C_19  and  C_20
REMARK                            x       y       z     vdW  Elec       q    Type
REMARK                         _______ _______ _______ _____ _____    ______ ____
ROOT
ATOM      1  N   UNL     1      -1.416  -1.993  -0.116  0.00  0.00    -0.270 N 
ATOM      2  C   UNL     1      -1.453  -2.598  -1.447  0.00  0.00    +0.222 C 
ATOM      3  N   UNL     1      -0.691  -3.852  -1.458  0.00  0.00    -0.317 N 
ATOM      4  C   UNL     1      -0.840  -4.735  -0.394  0.00  0.00    +0.041 A 
ATOM      5  C   UNL     1      -0.672  -6.100  -0.552  0.00  0.00    +0.025 A 
ATOM      6  C   UNL     1      -0.819  -6.938   0.537  0.00  0.00    +0.022 A 
ATOM      7  C   UNL     1      -1.133  -6.422   1.786  0.00  0.00    +0.042 A 
ATOM      8  C   UNL     1      -1.308  -5.064   1.958  0.00  0.00    +0.035 A 
ATOM      9  C   UNL     1      -1.167  -4.209   0.868  0.00  0.00    +0.059 A 
ATOM     10  C   UNL     1      -1.362  -2.755   0.995  0.00  0.00    +0.250 C 
ATOM     11  O   UNL     1      -1.477  -2.246   2.094  0.00  0.00    -0.270 OA
ATOM     12 CL   UNL     1      -1.307  -7.493   3.141  0.00  0.00    -0.084 Cl
ATOM     13  H   UNL     1      -0.095  -4.061  -2.194  0.00  0.00    +0.149 HD
ENDROOT
BRANCH   1  14
ATOM     14  C   UNL     1      -1.433  -0.534   0.013  0.00  0.00    +0.113 C 
BRANCH  14  16
ATOM     15  C   UNL     1      -0.019   1.526   0.010  0.00  0.00    +0.009 C 
ATOM     16  C   UNL     1       0.002  -0.004   0.002  0.00  0.00    +0.000 C 
ATOM     17  C   UNL     1       0.742  -0.511   1.242  0.00  0.00    +0.009 C 
ENDBRANCH  14  16
ENDBRANCH   1  14
BRANCH   2  18
ATOM     18  S   UNL     1      -3.174  -2.942  -1.904  0.00  0.00    -0.111 S 
BRANCH  18  19
ATOM     19  C   UNL     1      -3.750  -4.083  -0.617  0.00  0.00    +0.146 C 
BRANCH  19  20
ATOM     20  C   UNL     1      -5.186  -4.455  -0.881  0.00  0.00    +0.120 A 
ATOM     21  N   UNL     1      -5.803  -5.303  -0.017  0.00  0.00    -0.309 N 
ATOM     22  H   UNL     1      -5.324  -5.657   0.748  0.00  0.00    +0.170 HD
ATOM     23  C   UNL     1      -7.095  -5.650  -0.235  0.00  0.00    +0.266 A 
ATOM     24  O   UNL     1      -7.677  -6.409   0.521  0.00  0.00    -0.267 OA
ATOM     25  C   UNL     1      -7.740  -5.113  -1.350  0.00  0.00    +0.102 A 
ATOM     26  C   UNL     1      -7.079  -4.237  -2.228  0.00  0.00    +0.085 A 
ATOM     27  N   UNL     1      -5.774  -3.945  -1.915  0.00  0.00    -0.232 NA
ATOM     28  C   UNL     1      -7.844  -3.772  -3.306  0.00  0.00    +0.036 A 
ATOM     29  C   UNL     1      -9.127  -4.168  -3.450  0.00  0.00    +0.048 A 
ATOM     30  S   UNL     1      -9.364  -5.249  -2.049  0.00  0.00    -0.090 S 
ENDBRANCH  19  20
ENDBRANCH  18  19
ENDBRANCH   2  18
TORSDOF 5
