REMARK  Name = ZINC35694658
REMARK  10 active torsions:
REMARK  status: ('A' for Active; 'I' for Inactive)
REMARK    1  A    between atoms: C_1  and  C_2
REMARK    2  A    between atoms: C_2  and  N_3
REMARK    3  A    between atoms: N_3  and  C_4
REMARK    4  A    between atoms: C_4  and  C_5
REMARK    5  A    between atoms: C_10  and  C_20
REMARK    6  A    between atoms: N_12  and  C_13
REMARK    7  A    between atoms: C_16  and  C_19
REMARK    8  A    between atoms: C_23  and  O_26
REMARK    9  A    between atoms: O_26  and  C_27
REMARK   10  A    between atoms: C_28  and  C_30
REMARK                            x       y       z     vdW  Elec       q    Type
REMARK                         _______ _______ _______ _____ _____    ______ ____
ROOT
ATOM      1  C   UNL     1       2.925  -0.800  -0.747  0.00  0.00    +0.237 C 
ATOM      2  O   UNL     1       2.379  -1.810  -0.357  0.00  0.00    -0.274 OA
ATOM      3  N   UNL     1       4.268  -0.695  -0.688  0.00  0.00    -0.254 N 
ATOM      4  C   UNL     1       5.025  -1.743  -0.181  0.00  0.00    +0.207 A 
ATOM      5  N   UNL     1       4.553  -2.881   0.263  0.00  0.00    -0.214 NA
ATOM      6  C   UNL     1       5.577  -3.658   0.677  0.00  0.00    +0.091 A 
ATOM      7  C   UNL     1       6.731  -2.971   0.481  0.00  0.00    +0.122 A 
ATOM      8  N   UNL     1       6.384  -1.760  -0.069  0.00  0.00    -0.287 N 
ATOM      9  H   UNL     1       4.705   0.113  -1.000  0.00  0.00    +0.158 HD
ENDROOT
BRANCH   8  10
ATOM     10  C   UNL     1       7.262  -0.733  -0.441  0.00  0.00    +0.049 A 
ATOM     11  C   UNL     1       7.160  -0.152  -1.697  0.00  0.00    +0.026 A 
ATOM     12  C   UNL     1       8.027   0.860  -2.061  0.00  0.00    +0.005 A 
ATOM     13  C   UNL     1       8.996   1.294  -1.175  0.00  0.00    -0.050 A 
ATOM     14  C   UNL     1       9.100   0.717   0.077  0.00  0.00    +0.005 A 
ATOM     15  C   UNL     1       8.232  -0.291   0.449  0.00  0.00    +0.026 A 
ATOM     16  C   UNL     1       9.941   2.398  -1.575  0.00  0.00    +0.044 C 
ENDBRANCH   8  10
BRANCH   6  17
ATOM     17  C   UNL     1       5.460  -5.022   1.248  0.00  0.00    +0.002 A 
ATOM     18  C   UNL     1       6.604  -5.714   1.642  0.00  0.00    +0.013 A 
ATOM     19  C   UNL     1       6.493  -6.982   2.172  0.00  0.00    +0.046 A 
ATOM     20  C   UNL     1       5.244  -7.571   2.312  0.00  0.00    +0.120 A 
ATOM     21  C   UNL     1       4.103  -6.884   1.920  0.00  0.00    +0.046 A 
ATOM     22  C   UNL     1       4.207  -5.613   1.395  0.00  0.00    +0.013 A 
BRANCH  20  23
ATOM     23  O   UNL     1       5.137  -8.821   2.834  0.00  0.00    -0.495 OA
ATOM     24  C   UNL     1       3.821  -9.366   2.950  0.00  0.00    +0.277 C 
ENDBRANCH  20  23
ENDBRANCH   6  17
BRANCH   1  25
ATOM     25  C   UNL     1       2.104   0.337  -1.297  0.00  0.00    +0.204 C 
BRANCH  25  26
ATOM     26  N   UNL     1       0.684  -0.021  -1.254  0.00  0.00    -0.289 N 
ATOM     27  C   UNL     1       0.077  -0.506  -2.355  0.00  0.00    +0.247 C 
ATOM     28  O   UNL     1      -1.117  -0.731  -2.342  0.00  0.00    -0.270 OA
BRANCH  27  29
ATOM     29  C   UNL     1       0.863  -0.764  -3.578  0.00  0.00    +0.041 A 
ATOM     30  C   UNL     1       2.062  -1.476  -3.502  0.00  0.00    +0.017 A 
ATOM     31  C   UNL     1       2.794  -1.717  -4.644  0.00  0.00    +0.050 A 
ATOM     32  C   UNL     1       2.345  -1.253  -5.873  0.00  0.00    +0.166 A 
ATOM     33  C   UNL     1       1.148  -0.540  -5.955  0.00  0.00    +0.167 A 
ATOM     34  C   UNL     1       0.407  -0.301  -4.814  0.00  0.00    +0.062 A 
ATOM     35  O   UNL     1       0.932  -0.201  -7.260  0.00  0.00    -0.453 OA
ATOM     36  C   UNL     1       2.207  -0.356  -7.912  0.00  0.00    +0.466 C 
ATOM     37  O   UNL     1       2.875  -1.359  -7.125  0.00  0.00    -0.453 OA
ENDBRANCH  27  29
BRANCH  26  39
ATOM     38  C   UNL     1      -0.589   1.587   0.079  0.00  0.00    +0.024 C 
ATOM     39  C   UNL     1      -0.077   0.148  -0.013  0.00  0.00    +0.105 C 
ENDBRANCH  26  39
ENDBRANCH  25  26
ENDBRANCH   1  25
TORSDOF 7
