REMARK  Name = ZINC05986011
REMARK  8 active torsions:
REMARK  status: ('A' for Active; 'I' for Inactive)
REMARK    1  A    between atoms: C_1  and  N_2
REMARK    2  A    between atoms: N_2  and  C_3
REMARK    3  A    between atoms: N_2  and  C_4
REMARK    4  A    between atoms: C_7  and  C_10
REMARK    5  A    between atoms: N_18  and  C_21
REMARK    6  A    between atoms: C_27  and  C_28
REMARK    7  A    between atoms: C_27  and  C_30
REMARK    8  A    between atoms: C_28  and  O_29
REMARK                            x       y       z     vdW  Elec       q    Type
REMARK                         _______ _______ _______ _____ _____    ______ ____
ROOT
ATOM      1  C   UNL     1      -2.554   3.866   0.043  0.00  0.00    -0.027 C 
ATOM      2  C   UNL     1      -3.116   3.886   1.403  0.00  0.00    +0.077 C 
ATOM      3  C   UNL     1      -3.857   2.492   1.495  0.00  0.00    +0.088 C 
ATOM      4  C   UNL     1      -4.559   2.779   2.794  0.00  0.00    +0.225 C 
ATOM      5  O   UNL     1      -5.671   2.422   3.120  0.00  0.00    -0.275 OA
ATOM      6  N   UNL     1      -3.683   3.526   3.530  0.00  0.00    -0.239 N 
ATOM      7  C   UNL     1      -2.672   4.048   2.770  0.00  0.00    +0.225 C 
ATOM      8  O   UNL     1      -1.634   4.537   3.160  0.00  0.00    -0.275 OA
ATOM      9  C   UNL     1      -4.629   2.630   0.177  0.00  0.00    +0.071 C 
ATOM     10  N   UNL     1      -3.576   3.128  -0.755  0.00  0.00    +0.397 N 
ATOM     11  H   UNL     1      -3.135   2.336  -1.236  0.00  0.00    -0.083 HD
ATOM     12  H   UNL     1      -3.996   3.758  -1.448  0.00  0.00    -0.083 HD
ENDROOT
BRANCH   1  16
ATOM     13  C   UNL     1       1.180   1.787  -0.001  0.00  0.00    +0.029 A 
ATOM     14  C   UNL     1      -0.013   1.076  -0.008  0.00  0.00    +0.023 A 
ATOM     15  C   UNL     1      -1.218   1.751   0.000  0.00  0.00    +0.004 A 
ATOM     16  C   UNL     1      -1.237   3.133   0.027  0.00  0.00    -0.060 A 
ATOM     17  C   UNL     1      -0.051   3.845   0.035  0.00  0.00    +0.004 A 
ATOM     18  C   UNL     1       1.157   3.176   0.021  0.00  0.00    +0.023 A 
BRANCH  13  20
ATOM     19  C   UNL     1       2.427  -0.353   0.090  0.00  0.00    +0.129 C 
ATOM     20  N   UNL     1       2.401   1.108  -0.015  0.00  0.00    -0.336 N 
ATOM     21  C   UNL     1       3.654   1.857  -0.133  0.00  0.00    +0.129 C 
ENDBRANCH  13  20
ENDBRANCH   1  16
BRANCH   6  22
ATOM     22  C   UNL     1      -3.807   3.731   4.975  0.00  0.00    +0.084 C 
ATOM     23  C   UNL     1      -3.950   5.226   5.267  0.00  0.00    +0.023 C 
ATOM     24  C   UNL     1      -4.079   5.441   6.776  0.00  0.00    +0.002 C 
ATOM     25  C   UNL     1      -2.830   4.901   7.477  0.00  0.00    +0.000 C 
ATOM     26  C   UNL     1      -2.688   3.406   7.185  0.00  0.00    +0.002 C 
ATOM     27  C   UNL     1      -2.558   3.192   5.675  0.00  0.00    +0.023 C 
ENDBRANCH   6  22
BRANCH   9  28
ATOM     28  C   UNL     1      -5.746   3.632   0.313  0.00  0.00    +0.348 C 
ATOM     29  O   UNL     1      -6.224   3.858   1.399  0.00  0.00    -0.248 OA
ATOM     30  O   UNL     1      -6.209   4.272  -0.771  0.00  0.00    -0.248 OA
ENDBRANCH   9  28
BRANCH   9  31
ATOM     31  C   UNL     1      -5.171   1.274  -0.279  0.00  0.00    +0.155 C 
BRANCH  31  32
ATOM     32  O   UNL     1      -5.783   1.412  -1.563  0.00  0.00    -0.396 OA
ATOM     33  H   UNL     1      -6.150   0.590  -1.915  0.00  0.00    +0.209 HD
ENDBRANCH  31  32
ENDBRANCH   9  31
TORSDOF 6
