REMARK  Name = ZINC41022870
REMARK  10 active torsions:
REMARK  status: ('A' for Active; 'I' for Inactive)
REMARK    1  A    between atoms: C_1  and  C_2
REMARK    2  A    between atoms: C_2  and  C_3
REMARK    3  A    between atoms: C_3  and  C_4
REMARK    4  A    between atoms: C_4  and  S_5
REMARK    5  A    between atoms: S_5  and  C_6
REMARK    6  A    between atoms: C_11  and  C_27
REMARK    7  A    between atoms: C_13  and  C_17
REMARK    8  A    between atoms: C_14  and  C_16
REMARK    9  A    between atoms: N_19  and  C_20
REMARK   10  A    between atoms: C_24  and  C_26
REMARK                            x       y       z     vdW  Elec       q    Type
REMARK                         _______ _______ _______ _____ _____    ______ ____
ROOT
ATOM      1  C   UNL     1       1.466  -4.383   2.587  0.00  0.00    +0.210 A 
ATOM      2  N   UNL     1       0.950  -5.069   1.556  0.00  0.00    -0.187 NA
ATOM      3  C   UNL     1       1.115  -6.348   1.756  0.00  0.00    +0.219 A 
ATOM      4  N   UNL     1       1.757  -6.509   2.939  0.00  0.00    -0.220 N 
ATOM      5  N   UNL     1       1.973  -5.232   3.454  0.00  0.00    -0.141 NA
ATOM      6  C   UNL     1       2.122  -7.812   3.490  0.00  0.00    +0.178 C 
ATOM      7  C   UNL     1       1.426  -8.897   2.712  0.00  0.00    +0.060 C 
ATOM      8  C   UNL     1       0.802  -8.677   1.546  0.00  0.00    +0.018 C 
ATOM      9  N   UNL     1       0.741  -7.431   0.972  0.00  0.00    -0.287 N 
ATOM     10  C   UNL     1       0.147  -9.836   0.840  0.00  0.00    +0.061 C 
ATOM     11  H   UNL     1       0.448  -7.312   0.055  0.00  0.00    +0.155 HD
ENDROOT
BRANCH   6  12
ATOM     12  C   UNL     1       3.614  -8.000   3.389  0.00  0.00    -0.011 A 
ATOM     13  C   UNL     1       4.213  -8.076   2.169  0.00  0.00    +0.007 A 
ATOM     14  C   UNL     1       5.591  -8.249   2.057  0.00  0.00    +0.001 A 
ATOM     15  C   UNL     1       6.378  -8.348   3.163  0.00  0.00    +0.008 A 
ATOM     16  C   UNL     1       5.795  -8.273   4.439  0.00  0.00    -0.018 A 
ATOM     17  C   UNL     1       4.394  -8.090   4.554  0.00  0.00    -0.012 A 
ATOM     18  C   UNL     1       3.812  -8.010   5.831  0.00  0.00    +0.009 A 
ATOM     19  C   UNL     1       4.599  -8.102   6.937  0.00  0.00    +0.001 A 
ATOM     20  C   UNL     1       5.978  -8.274   6.824  0.00  0.00    +0.001 A 
ATOM     21  C   UNL     1       6.575  -8.370   5.605  0.00  0.00    +0.008 A 
ENDBRANCH   6  12
BRANCH   7  22
ATOM     22  C   UNL     1       1.431 -10.211   3.237  0.00  0.00    +0.248 C 
ATOM     23  O   UNL     1       0.593 -10.543   4.057  0.00  0.00    -0.270 OA
ATOM     24  N   UNL     1       2.362 -11.096   2.829  0.00  0.00    -0.282 N 
ATOM     25  H   UNL     1       2.975 -10.861   2.115  0.00  0.00    +0.155 HD
BRANCH  24  26
ATOM     26  C   UNL     1       2.444 -12.354   3.435  0.00  0.00    +0.034 A 
ATOM     27  C   UNL     1       2.976 -13.430   2.736  0.00  0.00    +0.023 A 
ATOM     28  C   UNL     1       3.055 -14.670   3.338  0.00  0.00    +0.002 A 
ATOM     29  C   UNL     1       2.607 -14.842   4.635  0.00  0.00    +0.003 A 
ATOM     30  C   UNL     1       2.077 -13.773   5.333  0.00  0.00    -0.049 A 
ATOM     31  C   UNL     1       2.000 -12.528   4.739  0.00  0.00    +0.026 A 
ATOM     32  C   UNL     1       1.590 -13.964   6.747  0.00  0.00    +0.044 C 
ENDBRANCH  24  26
ENDBRANCH   7  22
BRANCH   1  33
ATOM     33  S   UNL     1       1.469  -2.629   2.749  0.00  0.00    -0.084 S 
BRANCH  33  34
ATOM     34  C   UNL     1       0.633  -2.047   1.248  0.00  0.00    +0.077 C 
BRANCH  34  35
ATOM     35  C   UNL     1       0.567  -0.518   1.261  0.00  0.00    +0.011 C 
BRANCH  35  37
ATOM     36  C   UNL     1      -0.204   1.501   0.008  0.00  0.00    +0.004 C 
ATOM     37  C   UNL     1      -0.138  -0.028  -0.005  0.00  0.00    -0.003 C 
ENDBRANCH  35  37
ENDBRANCH  34  35
ENDBRANCH  33  34
ENDBRANCH   1  33
TORSDOF 7
