REMARK  Name = ZINC02410846
REMARK  11 active torsions:
REMARK  status: ('A' for Active; 'I' for Inactive)
REMARK    1  A    between atoms: C_1  and  C_2
REMARK    2  A    between atoms: C_2  and  C_3
REMARK    3  A    between atoms: C_2  and  C_4
REMARK    4  A    between atoms: C_10  and  N_16
REMARK    5  A    between atoms: C_12  and  S_14
REMARK    6  A    between atoms: S_14  and  C_15
REMARK    7  A    between atoms: C_21  and  C_22
REMARK    8  A    between atoms: C_21  and  N_66
REMARK    9  A    between atoms: C_22  and  O_23
REMARK   10  A    between atoms: C_28  and  C_31
REMARK   11  A    between atoms: C_28  and  C_32
REMARK                            x       y       z     vdW  Elec       q    Type
REMARK                         _______ _______ _______ _____ _____    ______ ____
ROOT
ATOM      1  C   UNL     1       0.498   4.379  -1.658  0.00  0.00    +0.051 A 
ATOM      2  C   UNL     1      -0.799   3.887  -1.573  0.00  0.00    +0.004 A 
ATOM      3  C   UNL     1      -1.008   2.548  -1.347  0.00  0.00    -0.026 A 
ATOM      4  C   UNL     1       0.104   1.689  -1.192  0.00  0.00    +0.037 A 
ATOM      5  C   UNL     1       0.093   0.236  -0.940  0.00  0.00    +0.094 A 
ATOM      6  C   UNL     1       1.347  -0.376  -0.831  0.00  0.00    +0.080 A 
ATOM      7  C   UNL     1       1.461  -1.739  -0.593  0.00  0.00    +0.140 A 
ATOM      8  N   UNL     1       0.346  -2.457  -0.471  0.00  0.00    -0.206 NA
ATOM      9  C   UNL     1      -0.838  -1.866  -0.577  0.00  0.00    +0.190 A 
ATOM     10  N   UNL     1      -0.980  -0.577  -0.802  0.00  0.00    -0.221 NA
ATOM     11  S   UNL     1       2.510   0.942  -1.059  0.00  0.00    -0.064 S 
ATOM     12  C   UNL     1       1.373   2.286  -1.295  0.00  0.00    +0.111 A 
ATOM     13  N   UNL     1       1.531   3.573  -1.519  0.00  0.00    -0.244 NA
ATOM     14  C   UNL     1      -2.392   1.965  -1.255  0.00  0.00    +0.070 C 
ATOM     15  C   UNL     1      -3.410   3.086  -1.033  0.00  0.00    +0.068 C 
ATOM     16  O   UNL     1      -3.158   4.124  -1.987  0.00  0.00    -0.369 OA
ATOM     17  C   UNL     1      -1.952   4.844  -1.731  0.00  0.00    +0.197 C 
ATOM     18  C   UNL     1      -3.261   3.642   0.384  0.00  0.00    +0.041 C 
ATOM     19  C   UNL     1      -4.826   2.540  -1.229  0.00  0.00    +0.041 C 
ENDROOT
BRANCH   7  20
ATOM     20  N   UNL     1       2.706  -2.338  -0.486  0.00  0.00    -0.318 N 
ATOM     21  C   UNL     1       3.517  -2.086  -1.685  0.00  0.00    +0.088 C 
ATOM     22  C   UNL     1       4.908  -2.696  -1.495  0.00  0.00    -0.059 C 
ATOM     23  C   UNL     1       3.967  -4.390  -0.045  0.00  0.00    -0.059 C 
ATOM     24  C   UNL     1       2.576  -3.781  -0.235  0.00  0.00    +0.088 C 
ATOM     25  N   UNL     1       4.764  -4.149  -1.266  0.00  0.00    +0.383 N 
ATOM     26  H   UNL     1       4.280  -4.567  -2.069  0.00  0.00    -0.082 HD
BRANCH  25  27
ATOM     27  C   UNL     1       6.098  -4.773  -1.130  0.00  0.00    -0.051 C 
BRANCH  27  28
ATOM     28  C   UNL     1       5.960  -6.280  -1.357  0.00  0.00    +0.137 C 
BRANCH  28  29
ATOM     29  O   UNL     1       5.529  -6.522  -2.698  0.00  0.00    -0.397 OA
ATOM     30  H   UNL     1       5.420  -7.459  -2.913  0.00  0.00    +0.209 HD
ENDBRANCH  28  29
ENDBRANCH  27  28
ENDBRANCH  25  27
ENDBRANCH   7  20
BRANCH   1  32
ATOM     31  C   UNL     1       1.515   6.450  -0.749  0.00  0.00    +0.014 C 
ATOM     32  C   UNL     1       0.725   5.847  -1.912  0.00  0.00    +0.032 C 
ATOM     33  C   UNL     1       1.514   6.024  -3.210  0.00  0.00    +0.014 C 
ENDBRANCH   1  32
BRANCH   9  34
ATOM     34  S   UNL     1      -2.287  -2.853  -0.409  0.00  0.00    -0.089 S 
ATOM     35  C   UNL     1      -3.559  -1.585  -0.633  0.00  0.00    +0.093 C 
ENDBRANCH   9  34
TORSDOF 6
