REMARK  Name = ZINC52773332
REMARK  7 active torsions:
REMARK  status: ('A' for Active; 'I' for Inactive)
REMARK    1  A    between atoms: C_1  and  C_2
REMARK    2  A    between atoms: C_2  and  C_3
REMARK    3  A    between atoms: C_2  and  N_4
REMARK    4  A    between atoms: C_5  and  C_7
REMARK    5  A    between atoms: N_9  and  N_10
REMARK    6  A    between atoms: C_11  and  C_13
REMARK    7  A    between atoms: C_17  and  N_18
REMARK                            x       y       z     vdW  Elec       q    Type
REMARK                         _______ _______ _______ _____ _____    ______ ____
ROOT
ATOM      1  N   UNL     1       0.792  -1.737   5.868  0.00  0.00    -0.230 N 
ATOM      2  C   UNL     1       0.133  -1.881   7.034  0.00  0.00    +0.263 C 
ATOM      3  O   UNL     1      -1.051  -1.608   7.102  0.00  0.00    -0.269 OA
ATOM      4  H   UNL     1       1.736  -1.954   5.814  0.00  0.00    +0.173 HD
ENDROOT
BRANCH   2   5
ATOM      5  C   UNL     1       0.842  -2.367   8.223  0.00  0.00    +0.073 A 
ATOM      6  C   UNL     1       1.493  -1.439   9.148  0.00  0.00    -0.021 A 
ATOM      7  C   UNL     1       2.093  -2.046  10.186  0.00  0.00    +0.006 A 
ATOM      8  S   UNL     1       1.806  -3.780   9.928  0.00  0.00    -0.074 S 
ATOM      9  C   UNL     1       0.914  -3.715   8.510  0.00  0.00    +0.097 A 
ATOM     10  C   UNL     1       2.847  -1.453  11.344  0.00  0.00    +0.111 C 
ATOM     11  S   UNL     1       3.257   0.272  10.935  0.00  0.00    -0.155 S 
ATOM     12  C   UNL     1       1.711   0.854  10.171  0.00  0.00    +0.074 C 
ATOM     13  C   UNL     1       1.464   0.059   8.895  0.00  0.00    +0.047 C 
BRANCH   9  14
ATOM     14  N   UNL     1       0.373  -4.774   7.789  0.00  0.00    -0.317 N 
ATOM     15  C   UNL     1      -0.343  -4.666   6.630  0.00  0.00    +0.092 A 
ATOM     16  C   UNL     1      -0.695  -5.906   6.236  0.00  0.00    +0.019 A 
ATOM     17  C   UNL     1      -0.179  -6.814   7.183  0.00  0.00    +0.019 A 
ATOM     18  C   UNL     1       0.474  -6.097   8.119  0.00  0.00    +0.092 A 
ENDBRANCH   9  14
ENDBRANCH   2   5
BRANCH   1  21
ATOM     19  C   UNL     1       0.774  -1.129   3.566  0.00  0.00    +0.315 C 
ATOM     20  O   UNL     1       1.955  -1.401   3.499  0.00  0.00    -0.264 OA
ATOM     21  N   UNL     1       0.115  -1.273   4.733  0.00  0.00    -0.226 N 
ATOM     22  H   UNL     1      -0.829  -1.055   4.787  0.00  0.00    +0.173 HD
BRANCH  19  24
ATOM     23  N   UNL     1       0.711  -0.489   1.189  0.00  0.00    -0.305 N 
ATOM     24  C   UNL     1       0.051  -0.633   2.355  0.00  0.00    +0.301 C 
ATOM     25  O   UNL     1      -1.129  -0.361   2.423  0.00  0.00    -0.265 OA
ATOM     26  H   UNL     1       1.654  -0.707   1.135  0.00  0.00    +0.149 HD
BRANCH  23  28
ATOM     27  C   UNL     1      -0.019   1.526   0.010  0.00  0.00    +0.027 C 
ATOM     28  C   UNL     1       0.002  -0.004   0.002  0.00  0.00    +0.067 C 
ATOM     29  C   UNL     1       0.718  -0.497  -1.257  0.00  0.00    +0.027 C 
ENDBRANCH  23  28
ENDBRANCH  19  24
ENDBRANCH   1  21
TORSDOF 5
