REMARK  Name = ZINC55198266
REMARK  8 active torsions:
REMARK  status: ('A' for Active; 'I' for Inactive)
REMARK    1  A    between atoms: C_1  and  C_2
REMARK    2  A    between atoms: C_2  and  C_4
REMARK    3  A    between atoms: C_2  and  N_14
REMARK    4  A    between atoms: N_14  and  C_15
REMARK    5  A    between atoms: C_15  and  C_16
REMARK    6  A    between atoms: N_18  and  C_25
REMARK    7  A    between atoms: C_25  and  C_26
REMARK    8  A    between atoms: C_26  and  C_27
REMARK                            x       y       z     vdW  Elec       q    Type
REMARK                         _______ _______ _______ _____ _____    ______ ____
ROOT
ATOM      1  C   UNL     1      -0.086  -0.093  -2.394  0.00  0.00    -0.044 C 
ENDROOT
BRANCH   1   2
ATOM      2  C   UNL     1       0.620  -0.579  -3.634  0.00  0.00    -0.039 A 
ATOM      3  C   UNL     1       1.399   0.151  -4.447  0.00  0.00    +0.088 A 
ATOM      4  N   UNL     1       1.866  -0.629  -5.470  0.00  0.00    -0.346 N 
ATOM      5  C   UNL     1       1.387  -1.913  -5.335  0.00  0.00    +0.049 A 
ATOM      6  C   UNL     1       0.590  -1.940  -4.176  0.00  0.00    +0.001 A 
ATOM      7  C   UNL     1      -0.029  -3.127  -3.784  0.00  0.00    +0.010 A 
ATOM      8  C   UNL     1       0.146  -4.261  -4.527  0.00  0.00    +0.001 A 
ATOM      9  C   UNL     1       0.934  -4.241  -5.669  0.00  0.00    +0.002 A 
ATOM     10  C   UNL     1       1.546  -3.077  -6.080  0.00  0.00    +0.026 A 
BRANCH   4  11
ATOM     11  C   UNL     1       2.745  -0.167  -6.546  0.00  0.00    +0.131 C 
BRANCH  11  12
ATOM     12  C   UNL     1       1.902   0.226  -7.761  0.00  0.00    +0.117 C 
BRANCH  12  13
ATOM     13  C   UNL     1       2.806   0.701  -8.868  0.00  0.00    +0.212 C 
ATOM     14  O   UNL     1       4.007   0.724  -8.703  0.00  0.00    -0.276 OA
ATOM     15  N   UNL     1       2.280   1.101 -10.043  0.00  0.00    -0.329 N 
ATOM     16  H   UNL     1       1.319   1.083 -10.175  0.00  0.00    +0.145 HD
ATOM     17  H   UNL     1       2.862   1.407 -10.756  0.00  0.00    +0.145 HD
ENDBRANCH  12  13
ENDBRANCH  11  12
ENDBRANCH   4  11
ENDBRANCH   1   2
BRANCH   1  18
ATOM     18  N   UNL     1       0.690  -0.478  -1.207  0.00  0.00    +0.388 N 
ATOM     19  H   UNL     1       1.608  -0.063  -1.256  0.00  0.00    -0.084 HD
ATOM     20  H   UNL     1       0.776  -1.482  -1.172  0.00  0.00    -0.084 HD
BRANCH  18  22
ATOM     21  C   UNL     1      -0.019   1.526   0.010  0.00  0.00    -0.006 C 
ATOM     22  C   UNL     1       0.002  -0.004   0.002  0.00  0.00    -0.007 C 
BRANCH  22  23
ATOM     23  C   UNL     1       0.731  -0.503   1.223  0.00  0.00    +0.094 A 
ATOM     24  N   UNL     1       0.165  -0.691   2.446  0.00  0.00    -0.343 N 
ATOM     25  H   UNL     1      -0.762  -0.530   2.681  0.00  0.00    +0.167 HD
ATOM     26  C   UNL     1       1.155  -1.153   3.290  0.00  0.00    +0.066 A 
ATOM     27  C   UNL     1       1.192  -1.517   4.629  0.00  0.00    +0.028 A 
ATOM     28  C   UNL     1       2.376  -1.950   5.186  0.00  0.00    +0.002 A 
ATOM     29  C   UNL     1       3.530  -2.024   4.418  0.00  0.00    +0.002 A 
ATOM     30  C   UNL     1       3.512  -1.670   3.099  0.00  0.00    +0.030 A 
ATOM     31  C   UNL     1       2.323  -1.229   2.512  0.00  0.00    +0.089 A 
ATOM     32  N   UNL     1       1.992  -0.823   1.260  0.00  0.00    -0.234 NA
ENDBRANCH  22  23
ENDBRANCH  18  22
ENDBRANCH   1  18
TORSDOF 7
