REMARK  Name = ZINC40986371
REMARK  15 active torsions:
REMARK  status: ('A' for Active; 'I' for Inactive)
REMARK    1  A    between atoms: C_1  and  C_2
REMARK    2  A    between atoms: C_5  and  C_8
REMARK    3  A    between atoms: C_8  and  S_9
REMARK    4  A    between atoms: S_9  and  C_12
REMARK    5  A    between atoms: C_15  and  C_19
REMARK    6  A    between atoms: N_21  and  C_22
REMARK    7  A    between atoms: C_22  and  C_23
REMARK    8  A    between atoms: C_23  and  C_25
REMARK    9  A    between atoms: C_23  and  N_35
REMARK   10  A    between atoms: C_28  and  C_31
REMARK   11  A    between atoms: C_31  and  C_32
REMARK   12  A    between atoms: C_31  and  C_33
REMARK   13  A    between atoms: C_31  and  C_34
REMARK   14  A    between atoms: N_35  and  C_36
REMARK   15  A    between atoms: N_35  and  C_37
REMARK                            x       y       z     vdW  Elec       q    Type
REMARK                         _______ _______ _______ _____ _____    ______ ____
ROOT
ATOM      1  C   UNL     1      -0.380 -12.957  -0.769  0.00  0.00    +0.248 C 
ATOM      2  O   UNL     1       0.349 -12.176  -1.349  0.00  0.00    -0.270 OA
ATOM      3  N   UNL     1      -0.094 -13.339   0.491  0.00  0.00    -0.312 N 
ATOM      4  H   UNL     1      -0.676 -13.962   0.953  0.00  0.00    +0.149 HD
ENDROOT
BRANCH   1   8
ATOM      5  C   UNL     1      -3.759 -14.451  -2.676  0.00  0.00    +0.272 A 
ATOM      6  N   UNL     1      -3.497 -14.838  -1.443  0.00  0.00    -0.219 NA
ATOM      7  C   UNL     1      -2.434 -14.388  -0.799  0.00  0.00    +0.130 A 
ATOM      8  C   UNL     1      -1.581 -13.488  -1.447  0.00  0.00    +0.092 A 
ATOM      9  C   UNL     1      -1.898 -13.104  -2.757  0.00  0.00    +0.146 A 
ATOM     10  N   UNL     1      -2.981 -13.609  -3.327  0.00  0.00    -0.199 NA
ATOM     11 CL   UNL     1      -0.884 -11.991  -3.621  0.00  0.00    -0.061 Cl
BRANCH   5  12
ATOM     12  S   UNL     1      -5.191 -15.085  -3.483  0.00  0.00    +0.036 S 
ATOM     13  O   UNL     1      -5.532 -14.098  -4.447  0.00  0.00    -0.166 OA
ATOM     14  O   UNL     1      -6.088 -15.409  -2.429  0.00  0.00    -0.166 OA
BRANCH  12  15
ATOM     15  C   UNL     1      -4.628 -16.598  -4.311  0.00  0.00    +0.210 C 
BRANCH  15  20
ATOM     16  C   UNL     1      -9.060 -19.029  -7.111  0.00  0.00    +0.044 C 
ATOM     17  C   UNL     1      -7.904 -18.395  -6.381  0.00  0.00    -0.050 A 
ATOM     18  C   UNL     1      -7.105 -17.468  -7.024  0.00  0.00    +0.003 A 
ATOM     19  C   UNL     1      -6.045 -16.886  -6.354  0.00  0.00    +0.005 A 
ATOM     20  C   UNL     1      -5.784 -17.231  -5.041  0.00  0.00    -0.026 A 
ATOM     21  C   UNL     1      -6.584 -18.157  -4.398  0.00  0.00    +0.005 A 
ATOM     22  C   UNL     1      -7.647 -18.736  -5.066  0.00  0.00    +0.003 A 
ENDBRANCH  15  20
ENDBRANCH  12  15
ENDBRANCH   5  12
ENDBRANCH   1   8
BRANCH   3  23
ATOM     23  C   UNL     1       1.097 -12.812   1.163  0.00  0.00    +0.094 C 
BRANCH  23  24
ATOM     24  C   UNL     1       1.129 -13.310   2.609  0.00  0.00    -0.021 C 
BRANCH  24  25
ATOM     25  C   UNL     1       1.280 -14.810   2.621  0.00  0.00    -0.059 A 
ATOM     26  C   UNL     1       2.526 -15.380   2.439  0.00  0.00    +0.002 A 
ATOM     27  C   UNL     1       2.664 -16.756   2.449  0.00  0.00    +0.004 A 
ATOM     28  C   UNL     1       1.557 -17.561   2.642  0.00  0.00    -0.042 A 
ATOM     29  C   UNL     1       0.311 -16.990   2.825  0.00  0.00    +0.004 A 
ATOM     30  C   UNL     1       0.173 -15.614   2.819  0.00  0.00    +0.002 A 
BRANCH  28  31
ATOM     31  C   UNL     1       1.708 -19.060   2.652  0.00  0.00    -0.013 C 
ATOM     32  C   UNL     1       2.662 -19.469   3.776  0.00  0.00    +0.015 C 
ATOM     33  C   UNL     1       0.341 -19.708   2.882  0.00  0.00    +0.015 C 
ATOM     34  C   UNL     1       2.273 -19.525   1.308  0.00  0.00    +0.015 C 
ENDBRANCH  28  31
ENDBRANCH  24  25
BRANCH  24  35
ATOM     35  N   UNL     1       2.263 -12.699   3.313  0.00  0.00    +0.382 N 
ATOM     36  C   UNL     1       2.115 -11.237   3.304  0.00  0.00    -0.096 C 
ATOM     37  C   UNL     1       2.295 -13.178   4.702  0.00  0.00    -0.096 C 
ATOM     38  H   UNL     1       3.123 -12.953   2.850  0.00  0.00    -0.082 HD
ENDBRANCH  24  35
ENDBRANCH  23  24
ENDBRANCH   3  23
TORSDOF 9
