REMARK  Name = ZINC61088782
REMARK  6 active torsions:
REMARK  status: ('A' for Active; 'I' for Inactive)
REMARK    1  A    between atoms: C_1  and  C_2
REMARK    2  A    between atoms: C_5  and  C_7
REMARK    3  A    between atoms: C_7  and  C_9
REMARK    4  A    between atoms: C_7  and  N_10
REMARK    5  A    between atoms: C_11  and  C_13
REMARK    6  A    between atoms: C_15  and  N_21
REMARK                            x       y       z     vdW  Elec       q    Type
REMARK                         _______ _______ _______ _____ _____    ______ ____
ROOT
ATOM      1  N   UNL     1       2.201  -4.137  -0.921  0.00  0.00    -0.304 N 
ATOM      2  C   UNL     1       2.539  -5.311  -1.489  0.00  0.00    +0.246 C 
ATOM      3  O   UNL     1       1.883  -6.309  -1.260  0.00  0.00    -0.270 OA
ATOM      4  H   UNL     1       2.725  -3.341  -1.103  0.00  0.00    +0.150 HD
ENDROOT
BRANCH   2   5
ATOM      5  C   UNL     1       3.707  -5.387  -2.390  0.00  0.00    +0.053 A 
ATOM      6  C   UNL     1       4.466  -4.244  -2.650  0.00  0.00    +0.039 A 
ATOM      7  C   UNL     1       5.560  -4.322  -3.495  0.00  0.00    +0.061 A 
ATOM      8  C   UNL     1       5.900  -5.538  -4.083  0.00  0.00    +0.145 A 
ATOM      9  C   UNL     1       5.148  -6.670  -3.826  0.00  0.00    +0.056 A 
ATOM     10  C   UNL     1       4.059  -6.603  -2.980  0.00  0.00    +0.033 A 
ATOM     11 BR   UNL     1       3.040  -8.156  -2.625  0.00  0.00    -0.049 Br
ATOM     12  F   UNL     1       6.968  -5.611  -4.907  0.00  0.00    -0.204 F 
BRANCH   7  13
ATOM     13  N   UNL     1       6.323  -3.179  -3.758  0.00  0.00    -0.356 N 
ATOM     14  H   UNL     1       6.085  -2.332  -3.349  0.00  0.00    +0.142 HD
ATOM     15  H   UNL     1       7.089  -3.233  -4.351  0.00  0.00    +0.142 HD
ENDBRANCH   7  13
ENDBRANCH   2   5
BRANCH   1  16
ATOM     16  C   UNL     1       1.043  -4.062  -0.027  0.00  0.00    +0.107 C 
ATOM     17  C   UNL     1       1.465  -4.458   1.389  0.00  0.00    +0.033 C 
BRANCH  16  22
ATOM     18  C   UNL     1      -0.018   1.503   0.010  0.00  0.00    +0.051 C 
ATOM     19  C   UNL     1       0.002  -0.004   0.002  0.00  0.00    -0.013 A 
ATOM     20  C   UNL     1      -1.039  -0.872   0.002  0.00  0.00    +0.011 A 
ATOM     21  C   UNL     1      -0.780  -2.230  -0.007  0.00  0.00    +0.013 A 
ATOM     22  C   UNL     1       0.507  -2.653  -0.016  0.00  0.00    +0.010 A 
ATOM     23  S   UNL     1       1.404  -1.109  -0.018  0.00  0.00    -0.097 S 
ENDBRANCH  16  22
ENDBRANCH   1  16
TORSDOF 4
