REMARK  Name = ZINC08681457
REMARK  11 active torsions:
REMARK  status: ('A' for Active; 'I' for Inactive)
REMARK    1  A    between atoms: C_1  and  C_2
REMARK    2  A    between atoms: C_8  and  C_28
REMARK    3  A    between atoms: C_12  and  C_14
REMARK    4  A    between atoms: C_12  and  C_17
REMARK    5  A    between atoms: C_14  and  C_15
REMARK    6  A    between atoms: C_15  and  O_16
REMARK    7  A    between atoms: C_17  and  O_18
REMARK    8  A    between atoms: C_21  and  O_27
REMARK    9  A    between atoms: C_23  and  C_24
REMARK   10  A    between atoms: C_23  and  C_25
REMARK   11  A    between atoms: C_25  and  O_26
REMARK                            x       y       z     vdW  Elec       q    Type
REMARK                         _______ _______ _______ _____ _____    ______ ____
ROOT
ATOM      1  C   UNL     1      -0.915   0.658  -0.511  0.00  0.00    +0.010 C 
ATOM      2  C   UNL     1      -0.678  -0.838  -0.338  0.00  0.00    +0.018 C 
ATOM      3  C   UNL     1      -2.023  -1.546  -0.151  0.00  0.00    +0.006 C 
ATOM      4  C   UNL     1      -1.779  -3.056  -0.146  0.00  0.00    +0.005 C 
ATOM      5  C   UNL     1      -0.814  -3.476   0.963  0.00  0.00    +0.008 C 
ATOM      6  C   UNL     1       0.458  -2.642   0.970  0.00  0.00    +0.001 C 
ATOM      7  C   UNL     1       0.163  -1.133   0.901  0.00  0.00    +0.079 C 
ATOM      8  C   UNL     1       1.479  -0.343   0.847  0.00  0.00    +0.039 C 
ATOM      9  C   UNL     1       1.283   0.813   1.852  0.00  0.00    +0.040 C 
ATOM     10  C   UNL     1       0.089   0.379   2.719  0.00  0.00    +0.095 C 
ATOM     11  O   UNL     1      -0.532  -0.740   2.085  0.00  0.00    -0.364 OA
ATOM     12  C   UNL     1       1.362  -3.019  -0.203  0.00  0.00    +0.012 C 
ATOM     13  C   UNL     1       1.729  -4.498  -0.121  0.00  0.00    +0.032 C 
ATOM     14  C   UNL     1       0.469  -5.349  -0.199  0.00  0.00    +0.123 C 
ATOM     15  C   UNL     1      -0.558  -4.977   0.862  0.00  0.00    +0.020 C 
ATOM     16  C   UNL     1      -1.873  -5.696   0.482  0.00  0.00    +0.016 C 
ATOM     17  C   UNL     1       1.227  -2.863   2.285  0.00  0.00    +0.014 C 
ENDROOT
BRANCH  14  18
ATOM     18  O   UNL     1      -0.112  -5.233  -1.502  0.00  0.00    -0.391 OA
ATOM     19  H   UNL     1       0.470  -5.522  -2.219  0.00  0.00    +0.210 HD
ENDBRANCH  14  18
BRANCH  10  20
ATOM     20  C   UNL     1       0.581  -0.006   4.120  0.00  0.00    +0.065 C 
BRANCH  20  21
ATOM     21  C   UNL     1      -0.605  -0.471   4.967  0.00  0.00    +0.158 C 
BRANCH  21  22
ATOM     22  O   UNL     1      -0.153  -0.791   6.284  0.00  0.00    -0.395 OA
ATOM     23  H   UNL     1      -0.854  -1.095   6.877  0.00  0.00    +0.209 HD
ENDBRANCH  21  22
ENDBRANCH  20  21
ENDBRANCH  10  20
BRANCH  10  24
ATOM     24  C   UNL     1      -0.907   1.538   2.848  0.00  0.00    +0.190 C 
BRANCH  24  25
ATOM     25  O   UNL     1      -0.302   2.607   3.578  0.00  0.00    -0.392 OA
ATOM     26  H   UNL     1      -0.877   3.375   3.699  0.00  0.00    +0.210 HD
ENDBRANCH  24  25
ENDBRANCH  10  24
BRANCH  15  27
ATOM     27  C   UNL     1      -0.145  -5.571   2.215  0.00  0.00    +0.165 C 
BRANCH  27  28
ATOM     28  O   UNL     1      -1.125  -5.239   3.200  0.00  0.00    -0.394 OA
ATOM     29  H   UNL     1      -0.929  -5.583   4.083  0.00  0.00    +0.209 HD
ENDBRANCH  27  28
ENDBRANCH  15  27
TORSDOF 8
