REMARK  Name = ZINC36643791
REMARK  9 active torsions:
REMARK  status: ('A' for Active; 'I' for Inactive)
REMARK    1  A    between atoms: C_1  and  N_2
REMARK    2  A    between atoms: N_2  and  C_3
REMARK    3  A    between atoms: N_2  and  C_4
REMARK    4  A    between atoms: C_4  and  C_5
REMARK    5  A    between atoms: C_5  and  C_6
REMARK    6  A    between atoms: C_6  and  N_7
REMARK    7  A    between atoms: C_19  and  C_21
REMARK    8  A    between atoms: C_24  and  S_27
REMARK    9  A    between atoms: S_27  and  N_30
REMARK                            x       y       z     vdW  Elec       q    Type
REMARK                         _______ _______ _______ _____ _____    ______ ____
ROOT
ATOM      1  N   UNL     1       0.135  -0.201   5.003  0.00  0.00    -0.246 N 
ATOM      2  C   UNL     1      -0.775  -1.030   5.637  0.00  0.00    +0.168 A 
ATOM      3  N   UNL     1      -1.032  -2.296   5.410  0.00  0.00    -0.221 NA
ATOM      4  C   UNL     1      -1.956  -2.988   6.114  0.00  0.00    +0.116 A 
ATOM      5  C   UNL     1      -2.326  -4.347   5.971  0.00  0.00    +0.152 A 
ATOM      6  C   UNL     1      -3.293  -4.899   6.773  0.00  0.00    +0.079 A 
ATOM      7  C   UNL     1      -3.939  -4.150   7.749  0.00  0.00    +0.127 A 
ATOM      8  C   UNL     1      -3.601  -2.818   7.915  0.00  0.00    +0.055 A 
ATOM      9  C   UNL     1      -2.634  -2.258   7.116  0.00  0.00    +0.046 A 
ATOM     10  S   UNL     1      -1.894  -0.649   6.978  0.00  0.00    -0.052 S 
ATOM     11  F   UNL     1      -4.889  -4.715   8.526  0.00  0.00    -0.205 F 
ATOM     12  F   UNL     1      -1.721  -5.109   5.034  0.00  0.00    -0.203 F 
ATOM     13  C   UNL     1       0.257   1.085   5.388  0.00  0.00    +0.252 C 
ATOM     14  O   UNL     1      -0.379   1.498   6.338  0.00  0.00    -0.270 OA
ENDROOT
BRANCH  13  15
ATOM     15  C   UNL     1       1.165   1.993   4.656  0.00  0.00    +0.037 A 
ATOM     16  C   UNL     1       1.325   1.861   3.275  0.00  0.00    +0.015 A 
ATOM     17  C   UNL     1       2.174   2.711   2.598  0.00  0.00    +0.029 A 
ATOM     18  C   UNL     1       2.867   3.693   3.284  0.00  0.00    +0.106 A 
ATOM     19  C   UNL     1       2.713   3.830   4.652  0.00  0.00    +0.029 A 
ATOM     20  C   UNL     1       1.862   2.990   5.341  0.00  0.00    +0.015 A 
BRANCH  18  21
ATOM     21  S   UNL     1       3.950   4.775   2.411  0.00  0.00    +0.061 S 
ATOM     22  O   UNL     1       4.895   5.254   3.358  0.00  0.00    -0.153 OA
ATOM     23  O   UNL     1       4.337   4.093   1.226  0.00  0.00    -0.153 OA
BRANCH  21  24
ATOM     24  N   UNL     1       3.054   6.083   1.933  0.00  0.00    -0.172 NA
ATOM     25  C   UNL     1       2.357   6.091   0.637  0.00  0.00    +0.137 C 
ATOM     26  C   UNL     1       0.898   6.498   0.876  0.00  0.00    +0.177 C 
ATOM     27  O   UNL     1       0.866   7.717   1.622  0.00  0.00    -0.377 OA
ATOM     28  C   UNL     1       1.446   7.622   2.925  0.00  0.00    +0.177 C 
ATOM     29  C   UNL     1       2.928   7.270   2.794  0.00  0.00    +0.137 C 
ENDBRANCH  21  24
ENDBRANCH  18  21
ENDBRANCH  13  15
BRANCH   1  30
ATOM     30  C   UNL     1       0.964  -0.721   3.913  0.00  0.00    +0.114 C 
BRANCH  30  31
ATOM     31  C   UNL     1       0.108  -0.890   2.657  0.00  0.00    +0.001 C 
BRANCH  31  32
ATOM     32  C   UNL     1       1.003  -1.284   1.480  0.00  0.00    -0.078 C 
BRANCH  32  34
ATOM     33  C   UNL     1      -0.403  -0.151  -0.100  0.00  0.00    -0.097 C 
ATOM     34  N   UNL     1       0.181  -1.446   0.273  0.00  0.00    +0.376 N 
ATOM     35  C   UNL     1       1.020  -1.939  -0.828  0.00  0.00    -0.097 C 
ATOM     36  H   UNL     1      -0.558  -2.108   0.456  0.00  0.00    -0.083 HD
ENDBRANCH  32  34
ENDBRANCH  31  32
ENDBRANCH  30  31
ENDBRANCH   1  30
TORSDOF 7
