REMARK  Name = ZINC00748427
REMARK  12 active torsions:
REMARK  status: ('A' for Active; 'I' for Inactive)
REMARK    1  A    between atoms: C_1  and  C_2
REMARK    2  A    between atoms: C_7  and  C_8
REMARK    3  A    between atoms: C_8  and  S_9
REMARK    4  A    between atoms: S_9  and  C_10
REMARK    5  A    between atoms: C_13  and  C_24
REMARK    6  A    between atoms: N_14  and  C_15
REMARK    7  A    between atoms: C_18  and  N_21
REMARK    8  A    between atoms: C_24  and  N_25
REMARK    9  A    between atoms: C_26  and  C_28
REMARK   10  A    between atoms: C_28  and  O_29
REMARK   11  A    between atoms: O_29  and  C_30
REMARK   12  A    between atoms: C_30  and  C_31
REMARK                            x       y       z     vdW  Elec       q    Type
REMARK                         _______ _______ _______ _____ _____    ______ ____
ROOT
ATOM      1  C   UNL     1      -0.546  -4.286   0.604  0.00  0.00    +0.196 A 
ATOM      2  N   UNL     1      -0.576  -4.196  -0.706  0.00  0.00    -0.122 NA
ATOM      3  N   UNL     1      -0.825  -2.984  -1.056  0.00  0.00    -0.132 NA
ATOM      4  C   UNL     1      -0.961  -2.232  -0.001  0.00  0.00    +0.156 A 
ATOM      5  N   UNL     1      -0.791  -3.034   1.097  0.00  0.00    -0.273 N 
ENDROOT
BRANCH   5   6
ATOM      6  C   UNL     1      -0.855  -2.651   2.444  0.00  0.00    +0.050 A 
ATOM      7  C   UNL     1       0.087  -1.774   2.964  0.00  0.00    +0.028 A 
ATOM      8  C   UNL     1       0.019  -1.395   4.290  0.00  0.00    +0.035 A 
ATOM      9  C   UNL     1      -0.981  -1.896   5.103  0.00  0.00    +0.126 A 
ATOM     10  C   UNL     1      -1.919  -2.773   4.590  0.00  0.00    +0.035 A 
ATOM     11  C   UNL     1      -1.858  -3.152   3.263  0.00  0.00    +0.028 A 
BRANCH   9  12
ATOM     12  N   UNL     1      -1.048  -1.493   6.526  0.00  0.00    +0.056 N 
ATOM     13  O   UNL     1      -1.928  -1.934   7.243  0.00  0.00    -0.126 OA
ATOM     14  O   UNL     1      -0.223  -0.721   6.979  0.00  0.00    -0.126 OA
ENDBRANCH   9  12
ENDBRANCH   5   6
BRANCH   1  15
ATOM     15  S   UNL     1      -0.247  -5.744   1.547  0.00  0.00    -0.081 S 
BRANCH  15  16
ATOM     16  C   UNL     1      -0.020  -6.942   0.210  0.00  0.00    +0.112 C 
BRANCH  16  23
ATOM     17  C   UNL     1      -2.209  -8.735   0.793  0.00  0.00    +0.044 C 
ATOM     18  C   UNL     1      -0.791  -9.161   1.076  0.00  0.00    -0.046 A 
ATOM     19  C   UNL     1      -0.538 -10.409   1.613  0.00  0.00    +0.003 A 
ATOM     20  C   UNL     1       0.763 -10.799   1.872  0.00  0.00    +0.000 A 
ATOM     21  C   UNL     1       1.810  -9.941   1.593  0.00  0.00    +0.000 A 
ATOM     22  C   UNL     1       1.558  -8.695   1.051  0.00  0.00    +0.005 A 
ATOM     23  C   UNL     1       0.256  -8.303   0.797  0.00  0.00    -0.034 A 
ENDBRANCH  16  23
ENDBRANCH  15  16
ENDBRANCH   1  15
BRANCH   4  24
ATOM     24  C   UNL     1      -1.256  -0.754   0.010  0.00  0.00    +0.181 C 
BRANCH  24  25
ATOM     25  N   UNL     1       0.002  -0.004   0.002  0.00  0.00    -0.306 N 
ATOM     26  C   UNL     1      -0.016   1.344   0.009  0.00  0.00    +0.239 C 
ATOM     27  O   UNL     1      -1.075   1.936   0.018  0.00  0.00    -0.273 OA
ATOM     28  H   UNL     1       0.962  -0.541  -0.010  0.00  0.00    +0.149 HD
BRANCH  26  29
ATOM     29  C   UNL     1       1.278   2.115   0.001  0.00  0.00    +0.255 C 
BRANCH  29  30
ATOM     30  O   UNL     1       0.998   3.516   0.011  0.00  0.00    -0.366 OA
BRANCH  30  31
ATOM     31  C   UNL     1       2.164   4.342   0.005  0.00  0.00    +0.195 C 
BRANCH  31  32
ATOM     32  C   UNL     1       1.753   5.792   0.016  0.00  0.00    -0.022 A 
ATOM     33  C   UNL     1       1.559   6.465  -1.175  0.00  0.00    +0.006 A 
ATOM     34  C   UNL     1       1.177   7.793  -1.165  0.00  0.00    +0.000 A 
ATOM     35  C   UNL     1       0.999   8.451   0.038  0.00  0.00    +0.000 A 
ATOM     36  C   UNL     1       1.199   7.780   1.230  0.00  0.00    +0.000 A 
ATOM     37  C   UNL     1       1.576   6.450   1.219  0.00  0.00    +0.006 A 
ENDBRANCH  31  32
ENDBRANCH  30  31
ENDBRANCH  29  30
ENDBRANCH  26  29
ENDBRANCH  24  25
ENDBRANCH   4  24
TORSDOF 11
