REMARK  Name = ZINC44772541
REMARK  6 active torsions:
REMARK  status: ('A' for Active; 'I' for Inactive)
REMARK    1  A    between atoms: C_1  and  C_2
REMARK    2  A    between atoms: C_7  and  N_12
REMARK    3  A    between atoms: C_9  and  C_11
REMARK    4  A    between atoms: C_13  and  C_15
REMARK    5  A    between atoms: C_15  and  C_22
REMARK    6  A    between atoms: C_22  and  N_24
REMARK                            x       y       z     vdW  Elec       q    Type
REMARK                         _______ _______ _______ _____ _____    ______ ____
ROOT
ATOM      1  N   UNL     1       1.266  -2.524   2.500  0.00  0.00    -0.311 N 
ATOM      2  C   UNL     1       1.204  -3.817   2.876  0.00  0.00    +0.226 C 
ATOM      3  O   UNL     1       0.499  -4.593   2.267  0.00  0.00    -0.275 OA
ATOM      4  H   UNL     1       1.778  -1.890   3.026  0.00  0.00    +0.149 HD
ENDROOT
BRANCH   1  10
ATOM      5  C   UNL     1      -0.795   1.380   0.274  0.00  0.00    +0.008 C 
ATOM      6  C   UNL     1      -0.488  -0.114   0.159  0.00  0.00    -0.009 C 
ATOM      7  C   UNL     1       0.388  -0.361  -1.071  0.00  0.00    +0.003 C 
ATOM      8  C   UNL     1       0.695  -1.855  -1.187  0.00  0.00    +0.002 C 
ATOM      9  C   UNL     1       1.434  -2.323   0.069  0.00  0.00    +0.022 C 
ATOM     10  C   UNL     1       0.558  -2.076   1.298  0.00  0.00    +0.076 C 
ATOM     11  C   UNL     1       0.251  -0.582   1.414  0.00  0.00    +0.009 C 
ATOM     12  C   UNL     1      -0.626  -0.335   2.643  0.00  0.00    +0.009 C 
ENDBRANCH   1  10
BRANCH   2  13
ATOM     13  C   UNL     1       2.012  -4.298   4.053  0.00  0.00    +0.091 C 
ATOM     14  C   UNL     1       1.788  -3.339   5.240  0.00  0.00    +0.023 C 
ATOM     15  C   UNL     1       0.331  -2.964   5.282  0.00  0.00    +0.001 C 
ATOM     16  C   UNL     1      -0.483  -3.867   6.229  0.00  0.00    +0.000 C 
ATOM     17  C   UNL     1      -0.092  -5.353   6.119  0.00  0.00    +0.000 C 
ATOM     18  C   UNL     1       0.121  -5.789   4.695  0.00  0.00    +0.001 C 
ATOM     19  C   UNL     1       1.623  -5.666   4.364  0.00  0.00    +0.023 C 
BRANCH  13  20
ATOM     20  C   UNL     1       3.473  -4.279   3.683  0.00  0.00    +0.061 C 
ATOM     21  S   UNL     1       4.279  -5.652   3.538  0.00  0.00    -0.040 S 
BRANCH  20  22
ATOM     22  N   UNL     1       4.099  -3.104   3.473  0.00  0.00    -0.355 N 
ATOM     23  H   UNL     1       3.595  -2.276   3.492  0.00  0.00    +0.143 HD
ATOM     24  H   UNL     1       5.054  -3.088   3.302  0.00  0.00    +0.143 HD
ENDBRANCH  20  22
ENDBRANCH  13  20
ENDBRANCH   2  13
TORSDOF 4
