REMARK  Name = ZINC09090579
REMARK  7 active torsions:
REMARK  status: ('A' for Active; 'I' for Inactive)
REMARK    1  A    between atoms: C_4  and  C_7
REMARK    2  A    between atoms: N_9  and  C_10
REMARK    3  A    between atoms: C_10  and  C_12
REMARK    4  A    between atoms: C_10  and  C_23
REMARK    5  A    between atoms: C_12  and  C_13
REMARK    6  A    between atoms: C_26  and  C_30
REMARK    7  A    between atoms: C_26  and  O_34
REMARK                            x       y       z     vdW  Elec       q    Type
REMARK                         _______ _______ _______ _____ _____    ______ ____
ROOT
ATOM      1  C   UNL     1       2.456  -4.277  -0.043  0.00  0.00    +0.165 C 
ENDROOT
BRANCH   1   2
ATOM      2  C   UNL     1       2.328  -4.774  -1.460  0.00  0.00    +0.258 C 
ATOM      3  O   UNL     1       2.224  -3.983  -2.374  0.00  0.00    -0.272 OA
ATOM      4  N   UNL     1       2.329  -6.098  -1.712  0.00  0.00    -0.151 N 
ATOM      5  C   UNL     1       2.206  -6.719  -3.042  0.00  0.00    +0.256 C 
ATOM      6  C   UNL     1       2.271  -8.229  -2.734  0.00  0.00    +0.115 C 
ATOM      7  C   UNL     1       2.417  -8.285  -1.230  0.00  0.00    +0.108 C 
ATOM      8  N   UNL     1       2.441  -7.107  -0.757  0.00  0.00    -0.187 NA
BRANCH   5   9
ATOM      9  C   UNL     1       3.371  -6.303  -3.942  0.00  0.00    +0.438 C 
ATOM     10  F   UNL     1       4.577  -6.712  -3.362  0.00  0.00    -0.166 F 
ATOM     11  F   UNL     1       3.229  -6.906  -5.196  0.00  0.00    -0.166 F 
ATOM     12  F   UNL     1       3.373  -4.912  -4.090  0.00  0.00    -0.166 F 
ENDBRANCH   5   9
BRANCH   5  13
ATOM     13  O   UNL     1       0.955  -6.378  -3.643  0.00  0.00    -0.363 OA
ATOM     14  H   UNL     1       0.824  -6.761  -4.521  0.00  0.00    +0.212 HD
ENDBRANCH   5  13
ENDBRANCH   1   2
BRANCH   1  17
ATOM     15  C   UNL     1       1.250  -2.160  -0.021  0.00  0.00    +0.245 C 
ATOM     16  O   UNL     1       0.208  -2.788  -0.014  0.00  0.00    -0.270 OA
ATOM     17  N   UNL     1       2.429  -2.812  -0.036  0.00  0.00    -0.300 N 
ATOM     18  H   UNL     1       3.260  -2.312  -0.041  0.00  0.00    +0.150 HD
BRANCH  15  22
ATOM     19  C   UNL     1       1.170   2.086   0.002  0.00  0.00    +0.000 A 
ATOM     20  C   UNL     1      -0.017   1.375   0.010  0.00  0.00    +0.001 A 
ATOM     21  C   UNL     1       0.002  -0.004   0.002  0.00  0.00    +0.013 A 
ATOM     22  C   UNL     1       1.222  -0.682  -0.013  0.00  0.00    +0.037 A 
ATOM     23  C   UNL     1       2.416   0.041  -0.021  0.00  0.00    +0.013 A 
ATOM     24  C   UNL     1       2.383   1.420  -0.013  0.00  0.00    +0.001 A 
ENDBRANCH  15  22
ENDBRANCH   1  17
BRANCH   1  25
ATOM     25  C   UNL     1       3.779  -4.766   0.551  0.00  0.00    +0.069 C 
BRANCH  25  26
ATOM     26  C   UNL     1       3.852  -4.373   2.004  0.00  0.00    -0.020 A 
ATOM     27  C   UNL     1       4.447  -3.280   2.507  0.00  0.00    +0.087 A 
ATOM     28  N   UNL     1       4.307  -3.257   3.868  0.00  0.00    -0.360 N 
ATOM     29  H   UNL     1       4.652  -2.564   4.452  0.00  0.00    +0.165 HD
ATOM     30  C   UNL     1       3.609  -4.368   4.286  0.00  0.00    +0.047 A 
ATOM     31  C   UNL     1       3.293  -5.115   3.136  0.00  0.00    +0.003 A 
ATOM     32  C   UNL     1       2.577  -6.308   3.256  0.00  0.00    +0.010 A 
ATOM     33  C   UNL     1       2.188  -6.744   4.492  0.00  0.00    +0.001 A 
ATOM     34  C   UNL     1       2.497  -6.010   5.628  0.00  0.00    +0.002 A 
ATOM     35  C   UNL     1       3.201  -4.830   5.533  0.00  0.00    +0.026 A 
ENDBRANCH  25  26
ENDBRANCH   1  25
TORSDOF 7
