REMARK  Name = ZINC46919512
REMARK  11 active torsions:
REMARK  status: ('A' for Active; 'I' for Inactive)
REMARK    1  A    between atoms: C_1  and  C_2
REMARK    2  A    between atoms: C_2  and  C_3
REMARK    3  A    between atoms: C_2  and  C_4
REMARK    4  A    between atoms: C_2  and  O_5
REMARK    5  A    between atoms: O_5  and  C_6
REMARK    6  A    between atoms: C_11  and  C_14
REMARK    7  A    between atoms: N_16  and  C_17
REMARK    8  A    between atoms: C_17  and  C_18
REMARK    9  A    between atoms: C_18  and  C_19
REMARK   10  A    between atoms: C_19  and  N_20
REMARK   11  A    between atoms: C_23  and  C_26
REMARK                            x       y       z     vdW  Elec       q    Type
REMARK                         _______ _______ _______ _____ _____    ______ ____
ROOT
ATOM      1  C   UNL     1       5.150  -3.356  -4.263  0.00  0.00    +0.216 C 
ATOM      2  O   UNL     1       4.663  -4.463  -4.176  0.00  0.00    -0.276 OA
ATOM      3  N   UNL     1       6.451  -3.215  -4.587  0.00  0.00    -0.315 N 
ATOM      4  H   UNL     1       6.840  -2.329  -4.656  0.00  0.00    +0.149 HD
ENDROOT
BRANCH   1  10
ATOM      5  C   UNL     1       1.952  -0.085  -1.337  0.00  0.00    +0.403 C 
ATOM      6  O   UNL     1       2.488   0.619  -0.503  0.00  0.00    -0.226 OA
ATOM      7  N   UNL     1       2.641  -0.485  -2.424  0.00  0.00    -0.267 N 
ATOM      8  C   UNL     1       2.005  -1.331  -3.443  0.00  0.00    +0.112 C 
ATOM      9  C   UNL     1       2.874  -2.573  -3.666  0.00  0.00    +0.032 C 
ATOM     10  C   UNL     1       4.300  -2.137  -4.011  0.00  0.00    +0.078 C 
ATOM     11  C   UNL     1       4.888  -1.339  -2.845  0.00  0.00    +0.032 C 
ATOM     12  C   UNL     1       4.040  -0.078  -2.616  0.00  0.00    +0.112 C 
BRANCH   5  13
ATOM     13  O   UNL     1       0.671  -0.465  -1.174  0.00  0.00    -0.445 OA
BRANCH  13  15
ATOM     14  C   UNL     1      -0.019   1.526   0.010  0.00  0.00    +0.055 C 
ATOM     15  C   UNL     1       0.002  -0.004   0.002  0.00  0.00    +0.107 C 
ATOM     16  C   UNL     1       0.742  -0.511   1.242  0.00  0.00    +0.055 C 
ATOM     17  C   UNL     1      -1.433  -0.534   0.013  0.00  0.00    +0.055 C 
ENDBRANCH  13  15
ENDBRANCH   5  13
ENDBRANCH   1  10
BRANCH   3  18
ATOM     18  C   UNL     1       7.277  -4.399  -4.832  0.00  0.00    +0.102 C 
BRANCH  18  19
ATOM     19  C   UNL     1       8.703  -3.964  -5.177  0.00  0.00    +0.000 C 
BRANCH  19  20
ATOM     20  C   UNL     1       9.565  -5.201  -5.434  0.00  0.00    -0.077 C 
BRANCH  20  21
ATOM     21  N   UNL     1      10.934  -4.784  -5.765  0.00  0.00    +0.380 N 
ATOM     22  C   UNL     1      11.535  -4.115  -4.605  0.00  0.00    -0.078 C 
ATOM     23  C   UNL     1      12.931  -3.606  -4.970  0.00  0.00    -0.006 C 
ATOM     24  C   UNL     1      13.806  -4.791  -5.388  0.00  0.00    +0.071 C 
ATOM     25  C   UNL     1      13.133  -5.525  -6.552  0.00  0.00    -0.006 C 
ATOM     26  C   UNL     1      11.730  -5.963  -6.128  0.00  0.00    -0.078 C 
ATOM     27  H   UNL     1      10.910  -4.143  -6.545  0.00  0.00    -0.082 HD
BRANCH  24  28
ATOM     28  C   UNL     1      15.159  -4.288  -5.824  0.00  0.00    +0.213 C 
ATOM     29  O   UNL     1      15.400  -3.100  -5.803  0.00  0.00    -0.276 OA
ATOM     30  N   UNL     1      16.100  -5.160  -6.238  0.00  0.00    -0.329 N 
ATOM     31  H   UNL     1      15.907  -6.110  -6.255  0.00  0.00    +0.145 HD
ATOM     32  H   UNL     1      16.971  -4.837  -6.518  0.00  0.00    +0.145 HD
ENDBRANCH  24  28
ENDBRANCH  20  21
ENDBRANCH  19  20
ENDBRANCH  18  19
ENDBRANCH   3  18
TORSDOF 8
