REMARK  Name = ZINC09813987
REMARK  6 active torsions:
REMARK  status: ('A' for Active; 'I' for Inactive)
REMARK    1  A    between atoms: C_12  and  C_14
REMARK    2  A    between atoms: C_14  and  O_16
REMARK    3  A    between atoms: O_16  and  C_17
REMARK    4  A    between atoms: C_17  and  C_18
REMARK    5  A    between atoms: N_20  and  N_21
REMARK    6  A    between atoms: C_22  and  C_24
REMARK                            x       y       z     vdW  Elec       q    Type
REMARK                         _______ _______ _______ _____ _____    ______ ____
ROOT
ATOM      1  C   UNL     1      -8.327   3.421   0.064  0.00  0.00    +0.346 C 
ATOM      2  O   UNL     1      -8.311   4.638   0.070  0.00  0.00    -0.244 OA
ENDROOT
BRANCH   1  14
ATOM      3  C   UNL     1     -14.723  -1.908   0.067  0.00  0.00    +0.000 A 
ATOM      4  C   UNL     1     -13.424  -2.310   0.325  0.00  0.00    +0.001 A 
ATOM      5  C   UNL     1     -12.401  -1.382   0.318  0.00  0.00    +0.009 A 
ATOM      6  C   UNL     1     -12.683  -0.047   0.061  0.00  0.00    -0.008 A 
ATOM      7  C   UNL     1     -13.995   0.352  -0.247  0.00  0.00    -0.039 A 
ATOM      8  C   UNL     1     -15.006  -0.585  -0.219  0.00  0.00    +0.004 A 
ATOM      9  C   UNL     1     -14.277   1.772  -0.649  0.00  0.00    +0.040 C 
ATOM     10  C   UNL     1     -13.430   2.788   0.107  0.00  0.00    +0.041 C 
ATOM     11  C   UNL     1     -11.966   2.368   0.080  0.00  0.00    -0.031 A 
ATOM     12  C   UNL     1     -11.668   1.001   0.062  0.00  0.00    +0.024 A 
ATOM     13  S   UNL     1      -9.905   0.944   0.060  0.00  0.00    -0.082 S 
ATOM     14  C   UNL     1      -9.604   2.707   0.067  0.00  0.00    +0.097 A 
ATOM     15  C   UNL     1     -10.892   3.223   0.082  0.00  0.00    +0.027 A 
ENDBRANCH   1  14
BRANCH   1  16
ATOM     16  O   UNL     1      -7.168   2.731   0.054  0.00  0.00    -0.451 OA
BRANCH  16  17
ATOM     17  C   UNL     1      -5.959   3.494   0.052  0.00  0.00    +0.329 C 
BRANCH  17  18
ATOM     18  C   UNL     1      -4.776   2.560   0.041  0.00  0.00    +0.267 C 
ATOM     19  O   UNL     1      -4.951   1.359   0.036  0.00  0.00    -0.271 OA
ATOM     20  N   UNL     1      -3.524   3.058   0.037  0.00  0.00    -0.231 N 
ATOM     21  H   UNL     1      -3.384   4.018   0.041  0.00  0.00    +0.173 HD
BRANCH  20  22
ATOM     22  N   UNL     1      -2.425   2.190   0.026  0.00  0.00    -0.230 N 
ATOM     23  C   UNL     1      -1.173   2.688   0.022  0.00  0.00    +0.267 C 
ATOM     24  O   UNL     1      -0.997   3.893   0.028  0.00  0.00    -0.268 OA
ATOM     25  H   UNL     1      -2.565   1.230   0.022  0.00  0.00    +0.173 HD
BRANCH  23  26
ATOM     26  C   UNL     1      -0.022   1.780   0.012  0.00  0.00    +0.075 A 
ATOM     27  C   UNL     1       1.330   2.083   0.001  0.00  0.00    +0.021 A 
ATOM     28  C   UNL     1       2.208   1.027  -0.013  0.00  0.00    +0.008 A 
ATOM     29  C   UNL     1       1.719  -0.241  -0.016  0.00  0.00    +0.046 A 
ATOM     30  S   UNL     1       0.002  -0.004   0.002  0.00  0.00    -0.092 S 
ENDBRANCH  23  26
ENDBRANCH  20  22
ENDBRANCH  17  18
ENDBRANCH  16  17
ENDBRANCH   1  16
TORSDOF 6
