REMARK  Name = ZINC03348030
REMARK  13 active torsions:
REMARK  status: ('A' for Active; 'I' for Inactive)
REMARK    1  A    between atoms: C_1  and  C_2
REMARK    2  A    between atoms: C_2  and  C_3
REMARK    3  A    between atoms: C_2  and  C_4
REMARK    4  A    between atoms: C_2  and  N_5
REMARK    5  A    between atoms: N_5  and  C_6
REMARK    6  A    between atoms: C_6  and  C_7
REMARK    7  A    between atoms: C_13  and  C_15
REMARK    8  A    between atoms: C_15  and  O_16
REMARK    9  A    between atoms: O_16  and  C_17
REMARK   10  A    between atoms: C_17  and  C_19
REMARK   11  A    between atoms: C_23  and  N_25
REMARK   12  A    between atoms: N_25  and  S_26
REMARK   13  A    between atoms: S_26  and  C_29
REMARK                            x       y       z     vdW  Elec       q    Type
REMARK                         _______ _______ _______ _____ _____    ______ ____
ROOT
ATOM      1  C   UNL     1      -1.213  -2.791   0.444  0.00  0.00    +0.061 A 
ATOM      2  C   UNL     1      -0.326  -3.602   1.156  0.00  0.00    +0.015 A 
ATOM      3  C   UNL     1       0.498  -3.047   2.114  0.00  0.00    +0.003 A 
ATOM      4  C   UNL     1       0.450  -1.690   2.372  0.00  0.00    +0.024 A 
ATOM      5  C   UNL     1      -0.429  -0.875   1.670  0.00  0.00    +0.049 A 
ATOM      6  C   UNL     1      -1.266  -1.422   0.710  0.00  0.00    +0.039 A 
ENDROOT
BRANCH   1   7
ATOM      7  C   UNL     1      -2.097  -3.382  -0.582  0.00  0.00    +0.340 C 
ATOM      8  O   UNL     1      -2.868  -2.675  -1.200  0.00  0.00    -0.245 OA
BRANCH   7   9
ATOM      9  O   UNL     1      -2.048  -4.705  -0.832  0.00  0.00    -0.452 OA
BRANCH   9  10
ATOM     10  C   UNL     1      -2.945  -5.216  -1.853  0.00  0.00    +0.328 C 
BRANCH  10  12
ATOM     11  N   UNL     1      -3.399  -7.380  -2.962  0.00  0.00    -0.289 N 
ATOM     12  C   UNL     1      -2.751  -6.704  -1.993  0.00  0.00    +0.254 C 
ATOM     13  O   UNL     1      -2.011  -7.293  -1.234  0.00  0.00    -0.272 OA
BRANCH  11  15
ATOM     14  C   UNL     1      -3.265  -5.873  -4.883  0.00  0.00    +0.031 C 
ATOM     15  C   UNL     1      -4.196  -6.654  -3.954  0.00  0.00    +0.029 C 
ATOM     16  C   UNL     1      -5.019  -7.649  -4.775  0.00  0.00    +0.031 C 
ATOM     17  C   UNL     1      -5.137  -5.682  -3.239  0.00  0.00    +0.031 C 
ENDBRANCH  11  15
BRANCH  11  18
ATOM     18  C   UNL     1      -3.307  -8.841  -3.023  0.00  0.00    +0.143 C 
BRANCH  18  19
ATOM     19  C   UNL     1      -4.332  -9.448  -2.101  0.00  0.00    -0.030 A 
ATOM     20  C   UNL     1      -4.052  -9.594  -0.756  0.00  0.00    +0.005 A 
ATOM     21  C   UNL     1      -4.995 -10.146   0.091  0.00  0.00    +0.000 A 
ATOM     22  C   UNL     1      -6.214 -10.563  -0.410  0.00  0.00    +0.000 A 
ATOM     23  C   UNL     1      -6.492 -10.423  -1.757  0.00  0.00    +0.000 A 
ATOM     24  C   UNL     1      -5.551  -9.865  -2.603  0.00  0.00    +0.005 A 
ENDBRANCH  18  19
ENDBRANCH  11  18
ENDBRANCH  10  12
ENDBRANCH   9  10
ENDBRANCH   7   9
ENDBRANCH   1   7
BRANCH   5  25
ATOM     25  N   UNL     1      -0.474   0.496   1.935  0.00  0.00    -0.216 N 
ATOM     26  H   UNL     1      -1.329   0.946   2.025  0.00  0.00    +0.174 HD
BRANCH  25  27
ATOM     27  S   UNL     1       0.933   1.356   2.091  0.00  0.00    +0.072 S 
ATOM     28  O   UNL     1       0.560   2.707   2.327  0.00  0.00    -0.150 OA
ATOM     29  O   UNL     1       1.758   0.625   2.988  0.00  0.00    -0.150 OA
BRANCH  27  30
ATOM     30  C   UNL     1       1.740   1.323   0.525  0.00  0.00    +0.111 A 
ATOM     31  C   UNL     1       2.636   0.313   0.231  0.00  0.00    +0.032 A 
ATOM     32  C   UNL     1       3.266   0.282  -0.999  0.00  0.00    +0.043 A 
ATOM     33  C   UNL     1       3.007   1.269  -1.934  0.00  0.00    +0.159 A 
ATOM     34  C   UNL     1       2.112   2.286  -1.637  0.00  0.00    +0.160 A 
ATOM     35  C   UNL     1       1.479   2.311  -0.406  0.00  0.00    +0.070 A 
ATOM     36  F   UNL     1       1.858   3.251  -2.548  0.00  0.00    -0.202 F 
ATOM     37  F   UNL     1       3.626   1.242  -3.135  0.00  0.00    -0.202 F 
ENDBRANCH  27  30
ENDBRANCH  25  27
ENDBRANCH   5  25
TORSDOF 10
