REMARK  Name = ZINC36859555
REMARK  9 active torsions:
REMARK  status: ('A' for Active; 'I' for Inactive)
REMARK    1  A    between atoms: C_1  and  C_2
REMARK    2  A    between atoms: C_3  and  N_11
REMARK    3  A    between atoms: C_7  and  N_8
REMARK    4  A    between atoms: C_12  and  C_14
REMARK    5  A    between atoms: C_14  and  S_15
REMARK    6  A    between atoms: S_15  and  C_16
REMARK    7  A    between atoms: C_19  and  C_28
REMARK    8  A    between atoms: N_20  and  C_21
REMARK    9  A    between atoms: C_21  and  C_22
REMARK                            x       y       z     vdW  Elec       q    Type
REMARK                         _______ _______ _______ _____ _____    ______ ____
ROOT
ATOM      1  C   UNL     1      -0.583  -1.317  -7.815  0.00  0.00    +0.193 A 
ATOM      2  N   UNL     1      -0.592  -0.013  -7.972  0.00  0.00    -0.122 NA
ATOM      3  N   UNL     1      -0.711   0.283  -9.217  0.00  0.00    -0.128 NA
ATOM      4  C   UNL     1      -0.784  -0.817  -9.934  0.00  0.00    +0.172 A 
ATOM      5  N   UNL     1      -0.698  -1.876  -9.057  0.00  0.00    -0.297 N 
ENDROOT
BRANCH   4   6
ATOM      6  C   UNL     1      -0.925  -0.901 -11.396  0.00  0.00    +0.056 A 
ATOM      7  C   UNL     1      -0.740   0.078 -12.340  0.00  0.00    +0.019 A 
ATOM      8  C   UNL     1      -0.932  -0.239 -13.666  0.00  0.00    +0.008 A 
ATOM      9  C   UNL     1      -1.296  -1.504 -13.999  0.00  0.00    +0.046 A 
ATOM     10  S   UNL     1      -1.374  -2.304 -12.405  0.00  0.00    -0.094 S 
ENDBRANCH   4   6
BRANCH   1  11
ATOM     11  S   UNL     1      -0.439  -2.184  -6.288  0.00  0.00    -0.077 S 
BRANCH  11  12
ATOM     12  C   UNL     1      -0.324  -0.868  -5.045  0.00  0.00    +0.173 C 
BRANCH  12  14
ATOM     13  N   UNL     1      -0.094  -0.690  -2.588  0.00  0.00    -0.285 N 
ATOM     14  C   UNL     1      -0.195  -1.482  -3.674  0.00  0.00    +0.227 C 
ATOM     15  O   UNL     1      -0.183  -2.688  -3.549  0.00  0.00    -0.275 OA
ATOM     16  H   UNL     1      -0.030   0.272  -2.694  0.00  0.00    +0.155 HD
BRANCH  13  19
ATOM     17  C   UNL     1      -1.286   0.774  -0.459  0.00  0.00    +0.048 C 
ATOM     18  C   UNL     1      -0.653  -0.576  -0.241  0.00  0.00    +0.001 A 
ATOM     19  C   UNL     1      -0.082  -1.256  -1.309  0.00  0.00    +0.038 A 
ATOM     20  C   UNL     1       0.502  -2.499  -1.103  0.00  0.00    +0.024 A 
ATOM     21  C   UNL     1       0.512  -3.055   0.161  0.00  0.00    +0.004 A 
ATOM     22  C   UNL     1      -0.058  -2.376   1.222  0.00  0.00    +0.033 A 
ATOM     23  C   UNL     1      -0.634  -1.135   1.021  0.00  0.00    +0.131 A 
BRANCH  23  24
ATOM     24  N   UNL     1      -1.238  -0.407   2.161  0.00  0.00    +0.057 N 
ATOM     25  O   UNL     1      -1.258   0.802   2.164  0.00  0.00    -0.126 OA
ATOM     26  O   UNL     1      -1.710  -1.022   3.088  0.00  0.00    -0.126 OA
ENDBRANCH  23  24
ENDBRANCH  13  19
ENDBRANCH  12  14
ENDBRANCH  11  12
ENDBRANCH   1  11
BRANCH   5  27
ATOM     27  C   UNL     1      -0.728  -3.303  -9.387  0.00  0.00    +0.161 C 
BRANCH  27  28
ATOM     28  C   UNL     1       0.682  -3.821  -9.502  0.00  0.00    -0.028 A 
ATOM     29  C   UNL     1       1.374  -3.684 -10.692  0.00  0.00    +0.005 A 
ATOM     30  C   UNL     1       2.668  -4.159 -10.798  0.00  0.00    +0.000 A 
ATOM     31  C   UNL     1       3.270  -4.771  -9.715  0.00  0.00    +0.000 A 
ATOM     32  C   UNL     1       2.579  -4.907  -8.525  0.00  0.00    +0.000 A 
ATOM     33  C   UNL     1       1.287  -4.428  -8.418  0.00  0.00    +0.005 A 
ENDBRANCH  27  28
ENDBRANCH   5  27
TORSDOF 8
