REMARK  Name = ZINC59170394
REMARK  7 active torsions:
REMARK  status: ('A' for Active; 'I' for Inactive)
REMARK    1  A    between atoms: C_1  and  C_2
REMARK    2  A    between atoms: C_5  and  S_8
REMARK    3  A    between atoms: S_8  and  N_11
REMARK    4  A    between atoms: N_11  and  N_12
REMARK    5  A    between atoms: C_14  and  C_26
REMARK    6  A    between atoms: C_18  and  N_23
REMARK    7  A    between atoms: N_28  and  C_29
REMARK                            x       y       z     vdW  Elec       q    Type
REMARK                         _______ _______ _______ _____ _____    ______ ____
ROOT
ATOM      1  N   UNL     1       2.332  -3.848   0.161  0.00  0.00    -0.260 N 
ATOM      2  C   UNL     1       3.490  -4.568   0.218  0.00  0.00    +0.225 A 
ATOM      3  C   UNL     1       4.229  -4.566   1.401  0.00  0.00    +0.099 A 
ATOM      4  C   UNL     1       5.429  -5.301   1.485  0.00  0.00    +0.030 A 
ATOM      5  C   UNL     1       5.841  -6.020   0.354  0.00  0.00    +0.020 A 
ATOM      6  C   UNL     1       7.025  -6.781   0.349  0.00  0.00    +0.044 A 
ATOM      7  C   UNL     1       7.379  -7.461  -0.776  0.00  0.00    +0.127 A 
ATOM      8  C   UNL     1       6.592  -7.420  -1.925  0.00  0.00    +0.036 A 
ATOM      9  C   UNL     1       5.426  -6.692  -1.975  0.00  0.00    +0.049 A 
ATOM     10  C   UNL     1       5.013  -5.976  -0.854  0.00  0.00    +0.138 A 
ATOM     11  O   UNL     1       3.880  -5.258  -0.859  0.00  0.00    -0.437 OA
ATOM     12  H   UNL     1       1.996  -3.404   0.955  0.00  0.00    +0.189 HD
ENDROOT
BRANCH   3  13
ATOM     13  C   UNL     1       3.753  -3.790   2.570  0.00  0.00    +0.253 C 
ATOM     14  O   UNL     1       2.890  -4.248   3.293  0.00  0.00    -0.270 OA
ATOM     15  N   UNL     1       4.276  -2.576   2.831  0.00  0.00    -0.281 N 
ATOM     16  H   UNL     1       4.896  -2.170   2.205  0.00  0.00    +0.155 HD
BRANCH  15  17
ATOM     17  C   UNL     1       3.926  -1.902   4.005  0.00  0.00    +0.034 A 
ATOM     18  C   UNL     1       3.646  -2.618   5.162  0.00  0.00    +0.023 A 
ATOM     19  C   UNL     1       3.300  -1.948   6.319  0.00  0.00    +0.002 A 
ATOM     20  C   UNL     1       3.232  -0.567   6.327  0.00  0.00    +0.000 A 
ATOM     21  C   UNL     1       3.510   0.149   5.177  0.00  0.00    +0.002 A 
ATOM     22  C   UNL     1       3.862  -0.514   4.017  0.00  0.00    +0.023 A 
ENDBRANCH  15  17
ENDBRANCH   3  13
BRANCH   7  23
ATOM     23  N   UNL     1       8.624  -8.261  -0.778  0.00  0.00    +0.056 N 
ATOM     24  O   UNL     1       9.378  -8.309   0.301  0.00  0.00    -0.126 OA
ATOM     25  O   UNL     1       8.979  -8.924  -1.859  0.00  0.00    -0.126 OA
ENDBRANCH   7  23
BRANCH   1  26
ATOM     26  N   UNL     1       1.683  -3.759  -0.951  0.00  0.00    -0.157 N 
ATOM     27  H   UNL     1       1.978  -4.263  -1.726  0.00  0.00    +0.194 HD
BRANCH  26  28
ATOM     28  S   UNL     1       0.348  -2.785  -1.054  0.00  0.00    +0.085 S 
ATOM     29  O   UNL     1      -0.574  -3.255  -0.081  0.00  0.00    -0.149 OA
ATOM     30  O   UNL     1       0.019  -2.692  -2.433  0.00  0.00    -0.149 OA
BRANCH  28  35
ATOM     31  C   UNL     1       2.029   2.741   0.692  0.00  0.00    +0.044 C 
ATOM     32  C   UNL     1       1.609   1.361   0.256  0.00  0.00    -0.050 A 
ATOM     33  C   UNL     1       1.801   0.961  -1.054  0.00  0.00    +0.005 A 
ATOM     34  C   UNL     1       1.417  -0.305  -1.454  0.00  0.00    +0.029 A 
ATOM     35  C   UNL     1       0.840  -1.171  -0.544  0.00  0.00    +0.110 A 
ATOM     36  C   UNL     1       0.648  -0.772   0.765  0.00  0.00    +0.029 A 
ATOM     37  C   UNL     1       1.037   0.492   1.166  0.00  0.00    +0.005 A 
ENDBRANCH  28  35
ENDBRANCH  26  28
ENDBRANCH   1  26
TORSDOF 6
