REMARK  Name = ZINC27250170
REMARK  5 active torsions:
REMARK  status: ('A' for Active; 'I' for Inactive)
REMARK    1  A    between atoms: C_6  and  C_7
REMARK    2  A    between atoms: N_9  and  N_10
REMARK    3  A    between atoms: N_10  and  C_11
REMARK    4  A    between atoms: C_11  and  N_13
REMARK    5  A    between atoms: N_13  and  C_14
REMARK                            x       y       z     vdW  Elec       q    Type
REMARK                         _______ _______ _______ _____ _____    ______ ____
ROOT
ATOM      1  C   UNL     1       2.854   3.009   5.200  0.00  0.00    +0.276 C 
ATOM      2  O   UNL     1       2.506   2.996   6.366  0.00  0.00    -0.267 OA
ATOM      3  N   UNL     1       1.982   2.667   4.231  0.00  0.00    -0.230 N 
ATOM      4  H   UNL     1       2.297   2.679   3.178  0.00  0.00    +0.173 HD
ENDROOT
BRANCH   1  10
ATOM      5  C   UNL     1       5.216   3.774   5.729  0.00  0.00    +0.047 A 
ATOM      6  C   UNL     1       6.357   4.054   4.969  0.00  0.00    +0.036 A 
ATOM      7  C   UNL     1       6.046   3.856   3.665  0.00  0.00    +0.098 A 
ATOM      8  N   UNL     1       4.753   3.456   3.579  0.00  0.00    -0.356 N 
ATOM      9  H   UNL     1       4.308   3.243   2.596  0.00  0.00    +0.166 HD
ATOM     10  C   UNL     1       4.224   3.397   4.848  0.00  0.00    +0.104 A 
ATOM     11 BR   UNL     1       8.032   4.616   5.642  0.00  0.00    -0.049 Br
ENDBRANCH   1  10
BRANCH   3  12
ATOM     12  N   UNL     1       0.673   2.296   4.567  0.00  0.00    -0.246 N 
ATOM     13  H   UNL     1       0.358   2.284   5.621  0.00  0.00    +0.172 HD
BRANCH  12  14
ATOM     14  C   UNL     1      -0.200   1.954   3.599  0.00  0.00    +0.147 C 
ATOM     15  S   UNL     1      -1.799   1.502   4.009  0.00  0.00    -0.017 S 
BRANCH  14  16
ATOM     16  N   UNL     1       0.186   1.969   2.308  0.00  0.00    -0.323 N 
ATOM     17  H   UNL     1       1.214   2.260   2.044  0.00  0.00    +0.148 HD
BRANCH  16  18
ATOM     18  C   UNL     1      -0.763   1.597   1.255  0.00  0.00    +0.072 C 
ATOM     19  C   UNL     1      -0.013   1.086   0.008  0.00  0.00    +0.022 C 
ATOM     20  C   UNL     1      -0.784   1.609  -1.216  0.00  0.00    +0.002 C 
ATOM     21  C   UNL     1      -1.978   2.421  -0.670  0.00  0.00    +0.002 C 
ATOM     22  C   UNL     1      -1.531   2.845   0.750  0.00  0.00    +0.022 C 
ENDBRANCH  16  18
ENDBRANCH  14  16
ENDBRANCH  12  14
ENDBRANCH   3  12
TORSDOF 5
