REMARK  Name = ZINC63985795
REMARK  16 active torsions:
REMARK  status: ('A' for Active; 'I' for Inactive)
REMARK    1  A    between atoms: C_1  and  C_2
REMARK    2  A    between atoms: C_2  and  C_3
REMARK    3  A    between atoms: C_2  and  C_4
REMARK    4  A    between atoms: C_4  and  N_5
REMARK    5  A    between atoms: N_5  and  C_6
REMARK    6  A    between atoms: N_12  and  C_28
REMARK    7  A    between atoms: C_13  and  C_24
REMARK    8  A    between atoms: C_15  and  N_17
REMARK    9  A    between atoms: C_18  and  C_20
REMARK   10  A    between atoms: C_20  and  C_21
REMARK   11  A    between atoms: C_21  and  O_22
REMARK   12  A    between atoms: O_22  and  C_23
REMARK   13  A    between atoms: C_24  and  O_26
REMARK   14  A    between atoms: O_26  and  C_27
REMARK   15  A    between atoms: C_28  and  C_29
REMARK   16  A    between atoms: C_29  and  C_30
REMARK                            x       y       z     vdW  Elec       q    Type
REMARK                         _______ _______ _______ _____ _____    ______ ____
ROOT
ATOM      1  C   UNL     1      -2.900  -2.388   0.335  0.00  0.00    +0.044 A 
ATOM      2  C   UNL     1      -2.762  -3.746   0.051  0.00  0.00    +0.033 A 
ATOM      3  C   UNL     1      -3.906  -4.506  -0.100  0.00  0.00    +0.015 A 
ATOM      4  C   UNL     1      -5.155  -3.916   0.030  0.00  0.00    +0.105 A 
ATOM      5  N   UNL     1      -5.242  -2.614   0.301  0.00  0.00    -0.348 N 
ATOM      6  C   UNL     1      -4.175  -1.858   0.459  0.00  0.00    +0.107 A 
ATOM      7  N   UNL     1      -6.179  -4.842  -0.157  0.00  0.00    -0.301 N 
ATOM      8  C   UNL     1      -5.619  -6.167  -0.436  0.00  0.00    +0.208 C 
ATOM      9  C   UNL     1      -4.094  -5.974  -0.405  0.00  0.00    +0.138 C 
ATOM     10  H   UNL     1      -6.120  -2.211   0.391  0.00  0.00    +0.167 HD
ENDROOT
BRANCH   9  11
ATOM     11  N   UNL     1      -3.496  -6.796   0.650  0.00  0.00    -0.306 N 
ATOM     12  C   UNL     1      -2.190  -7.123   0.590  0.00  0.00    +0.216 C 
ATOM     13  O   UNL     1      -1.510  -6.737  -0.337  0.00  0.00    -0.276 OA
ATOM     14  H   UNL     1      -4.040  -7.105   1.391  0.00  0.00    +0.149 HD
BRANCH  12  15
ATOM     15  C   UNL     1      -1.575  -7.969   1.675  0.00  0.00    +0.124 C 
BRANCH  15  16
ATOM     16  C   UNL     1      -0.092  -8.193   1.369  0.00  0.00    +0.168 C 
BRANCH  16  17
ATOM     17  O   UNL     1       0.491  -8.995   2.397  0.00  0.00    -0.382 OA
ATOM     18  C   UNL     1       1.881  -9.264   2.206  0.00  0.00    +0.194 C 
ENDBRANCH  16  17
ENDBRANCH  15  16
ENDBRANCH  12  15
ENDBRANCH   9  11
BRANCH   1  19
ATOM     19  N   UNL     1      -1.771  -1.575   0.498  0.00  0.00    -0.342 N 
ATOM     20  H   UNL     1      -0.883  -1.955   0.409  0.00  0.00    +0.146 HD
BRANCH  19  21
ATOM     21  C   UNL     1      -1.932  -0.151   0.802  0.00  0.00    +0.104 C 
BRANCH  21  23
ATOM     22  C   UNL     1      -0.720   2.011   1.122  0.00  0.00    +0.009 C 
ATOM     23  C   UNL     1      -0.554   0.502   0.928  0.00  0.00    -0.000 C 
ATOM     24  C   UNL     1       0.182  -0.089   2.133  0.00  0.00    +0.009 C 
ENDBRANCH  21  23
ENDBRANCH  19  21
ENDBRANCH   1  19
BRANCH   8  25
ATOM     25  C   UNL     1      -6.060  -6.645  -1.796  0.00  0.00    +0.330 C 
ATOM     26  O   UNL     1      -6.350  -5.844  -2.653  0.00  0.00    -0.249 OA
BRANCH  25  27
ATOM     27  O   UNL     1      -6.131  -7.960  -2.054  0.00  0.00    -0.467 OA
ATOM     28  C   UNL     1      -6.556  -8.342  -3.364  0.00  0.00    +0.280 C 
ENDBRANCH  25  27
ENDBRANCH   8  25
BRANCH   7  29
ATOM     29  C   UNL     1      -7.610  -4.535  -0.084  0.00  0.00    +0.112 C 
BRANCH  29  30
ATOM     30  C   UNL     1      -8.086  -4.663   1.364  0.00  0.00    +0.052 C 
BRANCH  30  31
ATOM     31  C   UNL     1      -9.568  -4.400   1.431  0.00  0.00    -0.040 C 
ATOM     32  C   UNL     1     -10.559  -5.320   1.410  0.00  0.00    -0.001 A 
ATOM     33  C   UNL     1     -10.554  -6.785   1.321  0.00  0.00    +0.010 A 
ATOM     34  C   UNL     1     -11.734  -7.447   1.321  0.00  0.00    +0.001 A 
ATOM     35  C   UNL     1     -12.958  -6.770   1.404  0.00  0.00    +0.002 A 
ATOM     36  C   UNL     1     -13.044  -5.425   1.489  0.00  0.00    +0.026 A 
ATOM     37  C   UNL     1     -11.866  -4.629   1.497  0.00  0.00    +0.043 A 
ATOM     38  N   UNL     1     -11.689  -3.332   1.569  0.00  0.00    -0.380 N 
ATOM     39  C   UNL     1     -10.249  -3.054   1.542  0.00  0.00    +0.144 C 
ATOM     40  H   UNL     1     -12.393  -2.668   1.634  0.00  0.00    +0.160 HD
ENDBRANCH  30  31
ENDBRANCH  29  30
ENDBRANCH   7  29
TORSDOF 12
