REMARK  Name = ZINC54580905
REMARK  10 active torsions:
REMARK  status: ('A' for Active; 'I' for Inactive)
REMARK    1  A    between atoms: C_1  and  C_2
REMARK    2  A    between atoms: C_2  and  C_4
REMARK    3  A    between atoms: C_2  and  N_15
REMARK    4  A    between atoms: C_7  and  S_10
REMARK    5  A    between atoms: S_10  and  N_13
REMARK    6  A    between atoms: N_13  and  C_14
REMARK    7  A    between atoms: N_18  and  N_19
REMARK    8  A    between atoms: N_19  and  C_20
REMARK    9  A    between atoms: C_20  and  N_22
REMARK   10  A    between atoms: N_22  and  C_23
REMARK                            x       y       z     vdW  Elec       q    Type
REMARK                         _______ _______ _______ _____ _____    ______ ____
ROOT
ATOM      1  N   UNL     1       0.711  -0.489   1.189  0.00  0.00    -0.292 N 
ATOM      2  C   UNL     1       0.051  -0.633   2.355  0.00  0.00    +0.316 C 
ATOM      3  O   UNL     1      -1.132  -0.361   2.423  0.00  0.00    -0.251 OA
ATOM      4  N   UNL     1       0.703  -1.080   3.447  0.00  0.00    -0.219 N 
ATOM      5  H   UNL     1       1.654  -0.707   1.135  0.00  0.00    +0.151 HD
ATOM      6  H   UNL     1       0.229  -1.184   4.287  0.00  0.00    +0.174 HD
ENDROOT
BRANCH   1   8
ATOM      7  C   UNL     1      -0.019   1.526   0.010  0.00  0.00    +0.033 C 
ATOM      8  C   UNL     1       0.002  -0.004   0.002  0.00  0.00    +0.102 C 
BRANCH   8   9
ATOM      9  C   UNL     1       0.707  -0.490  -1.238  0.00  0.00    -0.027 A 
ATOM     10  C   UNL     1       2.089  -0.511  -1.284  0.00  0.00    +0.007 A 
ATOM     11  C   UNL     1       2.736  -0.957  -2.421  0.00  0.00    +0.029 A 
ATOM     12  C   UNL     1       2.002  -1.382  -3.512  0.00  0.00    +0.105 A 
ATOM     13  C   UNL     1       0.620  -1.362  -3.466  0.00  0.00    +0.029 A 
ATOM     14  C   UNL     1      -0.027  -0.920  -2.327  0.00  0.00    +0.007 A 
BRANCH  12  15
ATOM     15  S   UNL     1       2.826  -1.949  -4.962  0.00  0.00    +0.058 S 
ATOM     16  O   UNL     1       1.916  -1.778  -6.040  0.00  0.00    -0.153 OA
ATOM     17  O   UNL     1       4.117  -1.356  -4.954  0.00  0.00    -0.153 OA
BRANCH  15  18
ATOM     18  N   UNL     1       3.054  -3.580  -4.790  0.00  0.00    -0.193 NA
ATOM     19  C   UNL     1       1.899  -4.480  -4.736  0.00  0.00    +0.127 C 
ATOM     20  H   UNL     1       3.953  -3.940  -4.724  0.00  0.00    +0.148 HD
ENDBRANCH  15  18
ENDBRANCH  12  15
ENDBRANCH   8   9
ENDBRANCH   1   8
BRANCH   4  21
ATOM     21  N   UNL     1       2.066  -1.394   3.370  0.00  0.00    -0.245 N 
ATOM     22  H   UNL     1       2.541  -1.290   2.530  0.00  0.00    +0.172 HD
BRANCH  21  23
ATOM     23  C   UNL     1       2.718  -1.841   4.462  0.00  0.00    +0.147 C 
ATOM     24  S   UNL     1       4.384  -2.225   4.367  0.00  0.00    -0.017 S 
BRANCH  23  25
ATOM     25  N   UNL     1       2.059  -1.985   5.628  0.00  0.00    -0.323 N 
ATOM     26  H   UNL     1       1.115  -1.767   5.682  0.00  0.00    +0.148 HD
BRANCH  25  27
ATOM     27  C   UNL     1       2.767  -2.470   6.815  0.00  0.00    +0.072 C 
ATOM     28  C   UNL     1       2.734  -4.012   6.856  0.00  0.00    +0.022 C 
ATOM     29  C   UNL     1       2.580  -4.348   8.361  0.00  0.00    +0.002 C 
ATOM     30  C   UNL     1       1.618  -3.243   8.861  0.00  0.00    +0.002 C 
ATOM     31  C   UNL     1       2.057  -1.981   8.089  0.00  0.00    +0.022 C 
ENDBRANCH  25  27
ENDBRANCH  23  25
ENDBRANCH  21  23
ENDBRANCH   4  21
TORSDOF 8
