REMARK  Name = ZINC64600320
REMARK  4 active torsions:
REMARK  status: ('A' for Active; 'I' for Inactive)
REMARK    1  A    between atoms: C_6  and  C_11
REMARK    2  A    between atoms: C_15  and  C_20
REMARK    3  A    between atoms: C_20  and  O_21
REMARK    4  A    between atoms: O_21  and  C_22
REMARK                            x       y       z     vdW  Elec       q    Type
REMARK                         _______ _______ _______ _____ _____    ______ ____
ROOT
ATOM      1  C   UNL     1       3.664  -2.775   1.204  0.00  0.00    +0.178 C 
ATOM      2  N   UNL     1       2.991  -2.291   2.439  0.00  0.00    -0.265 N 
ATOM      3  N   UNL     1       1.873  -2.985   2.795  0.00  0.00    -0.221 N 
ATOM      4  C   UNL     1       0.751  -2.772   3.576  0.00  0.00    +0.189 A 
ATOM      5  N   UNL     1       0.040  -3.860   3.562  0.00  0.00    -0.128 NA
ATOM      6  N   UNL     1       0.606  -4.748   2.823  0.00  0.00    -0.121 NA
ATOM      7  C   UNL     1       1.700  -4.261   2.325  0.00  0.00    +0.211 A 
ATOM      8  S   UNL     1       3.100  -4.531   1.256  0.00  0.00    -0.058 S 
ATOM      9  H   UNL     1       3.642  -2.235   3.207  0.00  0.00    +0.168 HD
ENDROOT
BRANCH   1  15
ATOM     10  C   UNL     1      -0.016   1.348   0.009  0.00  0.00    +0.001 A 
ATOM     11  C   UNL     1       1.166   2.101   0.002  0.00  0.00    +0.002 A 
ATOM     12  C   UNL     1       2.391   1.535  -0.013  0.00  0.00    +0.026 A 
ATOM     13  C   UNL     1       2.529   0.120  -0.022  0.00  0.00    +0.043 A 
ATOM     14  N   UNL     1       3.587  -0.654  -0.037  0.00  0.00    -0.375 N 
ATOM     15  C   UNL     1       3.143  -2.053  -0.041  0.00  0.00    +0.135 C 
ATOM     16  C   UNL     1       1.631  -2.008  -0.025  0.00  0.00    +0.010 C 
ATOM     17  C   UNL     1       1.295  -0.698  -0.014  0.00  0.00    -0.004 A 
ATOM     18  C   UNL     1       0.002  -0.004   0.002  0.00  0.00    +0.010 A 
ATOM     19  H   UNL     1       4.509  -0.353  -0.045  0.00  0.00    +0.160 HD
ENDBRANCH   1  15
BRANCH   4  20
ATOM     20  C   UNL     1       0.413  -1.503   4.314  0.00  0.00    +0.306 C 
BRANCH  20  21
ATOM     21  O   UNL     1      -0.361  -0.651   3.468  0.00  0.00    -0.484 OA
BRANCH  21  22
ATOM     22  C   UNL     1      -0.751   0.544   3.985  0.00  0.00    +0.121 A 
ATOM     23  C   UNL     1      -0.392   0.891   5.279  0.00  0.00    +0.047 A 
ATOM     24  C   UNL     1      -0.790   2.106   5.803  0.00  0.00    +0.019 A 
ATOM     25  C   UNL     1      -1.546   2.976   5.038  0.00  0.00    +0.018 A 
ATOM     26  C   UNL     1      -1.906   2.631   3.748  0.00  0.00    +0.019 A 
ATOM     27  C   UNL     1      -1.505   1.420   3.218  0.00  0.00    +0.047 A 
ATOM     28 BR   UNL     1      -2.089   4.638   5.758  0.00  0.00    -0.050 Br
ENDBRANCH  21  22
ENDBRANCH  20  21
ENDBRANCH   4  20
TORSDOF 4
