REMARK  Name = ZINC06409980
REMARK  9 active torsions:
REMARK  status: ('A' for Active; 'I' for Inactive)
REMARK    1  A    between atoms: C_1  and  C_2
REMARK    2  A    between atoms: C_7  and  C_14
REMARK    3  A    between atoms: C_14  and  C_16
REMARK    4  A    between atoms: C_14  and  N_68
REMARK    5  A    between atoms: N_20  and  C_21
REMARK    6  A    between atoms: C_26  and  C_27
REMARK    7  A    between atoms: C_26  and  N_68
REMARK    8  A    between atoms: C_32  and  C_33
REMARK    9  A    between atoms: C_32  and  N_68
REMARK                            x       y       z     vdW  Elec       q    Type
REMARK                         _______ _______ _______ _____ _____    ______ ____
ROOT
ATOM      1  C   UNL     1      -2.407   3.271   7.633  0.00  0.00    +0.039 C 
ENDROOT
BRANCH   1   8
ATOM      2  C   UNL     1       0.939   2.077   0.491  0.00  0.00    +0.044 C 
ATOM      3  C   UNL     1       0.103   2.273   1.730  0.00  0.00    -0.048 A 
ATOM      4  C   UNL     1      -1.280   2.201   1.643  0.00  0.00    +0.004 A 
ATOM      5  C   UNL     1      -2.056   2.370   2.755  0.00  0.00    +0.010 A 
ATOM      6  C   UNL     1      -1.451   2.629   3.990  0.00  0.00    -0.001 A 
ATOM      7  C   UNL     1      -2.253   2.821   5.200  0.00  0.00    +0.017 A 
ATOM      8  C   UNL     1      -1.612   3.069   6.369  0.00  0.00    +0.011 A 
ATOM      9  C   UNL     1      -0.203   3.139   6.405  0.00  0.00    +0.251 A 
ATOM     10  O   UNL     1       0.354   3.363   7.467  0.00  0.00    -0.268 OA
ATOM     11  N   UNL     1       0.542   2.964   5.300  0.00  0.00    -0.322 N 
ATOM     12  H   UNL     1       1.508   3.018   5.360  0.00  0.00    +0.169 HD
ATOM     13  C   UNL     1      -0.049   2.708   4.080  0.00  0.00    +0.049 A 
ATOM     14  C   UNL     1       0.721   2.527   2.936  0.00  0.00    +0.029 A 
ENDBRANCH   1   8
BRANCH   1  15
ATOM     15  C   UNL     1      -2.106   4.633   8.203  0.00  0.00    +0.143 A 
ATOM     16  N   UNL     1      -0.999   5.005   8.798  0.00  0.00    -0.115 NA
ATOM     17  N   UNL     1      -1.127   6.241   9.140  0.00  0.00    -0.023 NA
ATOM     18  N   UNL     1      -2.290   6.664   8.787  0.00  0.00    -0.044 NA
ATOM     19  N   UNL     1      -2.924   5.702   8.205  0.00  0.00    -0.227 N 
BRANCH  19  20
ATOM     20  C   UNL     1      -4.279   5.762   7.652  0.00  0.00    +0.111 C 
ATOM     21  C   UNL     1      -4.334   6.783   6.497  0.00  0.00    +0.027 C 
ATOM     22  C   UNL     1      -5.723   7.452   6.647  0.00  0.00    +0.002 C 
ATOM     23  C   UNL     1      -5.884   7.564   8.184  0.00  0.00    +0.002 C 
ATOM     24  C   UNL     1      -5.264   6.258   8.725  0.00  0.00    +0.027 C 
ENDBRANCH  19  20
ENDBRANCH   1  15
BRANCH   1  25
ATOM     25  N   UNL     1      -2.014   2.243   8.619  0.00  0.00    +0.396 N 
ATOM     26  H   UNL     1      -1.029   2.383   8.873  0.00  0.00    -0.080 HD
BRANCH  25  27
ATOM     27  C   UNL     1      -2.845   2.365   9.835  0.00  0.00    -0.002 C 
BRANCH  27  28
ATOM     28  C   UNL     1      -2.303   3.491  10.678  0.00  0.00    +0.089 A 
ATOM     29  C   UNL     1      -2.876   4.697  10.842  0.00  0.00    +0.042 A 
ATOM     30  C   UNL     1      -2.035   5.435  11.706  0.00  0.00    +0.041 A 
ATOM     31  C   UNL     1      -0.999   4.637  12.018  0.00  0.00    +0.195 A 
ATOM     32  O   UNL     1      -1.169   3.458  11.397  0.00  0.00    -0.470 OA
ENDBRANCH  27  28
ENDBRANCH  25  27
BRANCH  25  33
ATOM     33  C   UNL     1      -2.171   0.895   8.033  0.00  0.00    -0.045 C 
BRANCH  33  34
ATOM     34  C   UNL     1      -0.890   0.540   7.276  0.00  0.00    +0.102 C 
ATOM     35  C   UNL     1      -0.968  -0.905   6.734  0.00  0.00    +0.032 C 
ATOM     36  C   UNL     1       0.470  -1.445   6.896  0.00  0.00    +0.030 C 
ATOM     37  C   UNL     1       1.248  -0.263   7.517  0.00  0.00    +0.160 C 
ATOM     38  O   UNL     1       0.241   0.536   8.175  0.00  0.00    -0.378 OA
ENDBRANCH  33  34
ENDBRANCH  25  33
ENDBRANCH   1  25
TORSDOF 8
