REMARK  Name = ZINC35842536
REMARK  15 active torsions:
REMARK  status: ('A' for Active; 'I' for Inactive)
REMARK    1  A    between atoms: C_1  and  C_2
REMARK    2  A    between atoms: C_2  and  C_3
REMARK    3  A    between atoms: C_2  and  N_4
REMARK    4  A    between atoms: N_4  and  C_5
REMARK    5  A    between atoms: C_5  and  C_6
REMARK    6  A    between atoms: N_8  and  C_9
REMARK    7  A    between atoms: N_8  and  C_21
REMARK    8  A    between atoms: C_9  and  C_10
REMARK    9  A    between atoms: C_10  and  C_11
REMARK   10  A    between atoms: C_21  and  C_22
REMARK   11  A    between atoms: C_25  and  C_28
REMARK   12  A    between atoms: C_28  and  C_29
REMARK   13  A    between atoms: C_28  and  C_30
REMARK   14  A    between atoms: C_28  and  C_31
REMARK   15  A    between atoms: C_32  and  C_34
REMARK                            x       y       z     vdW  Elec       q    Type
REMARK                         _______ _______ _______ _____ _____    ______ ____
ROOT
ATOM      1  C   UNL     1      -1.622  -2.959  -0.117  0.00  0.00    +0.233 C 
ATOM      2  O   UNL     1      -0.841  -3.081   0.803  0.00  0.00    -0.274 OA
ATOM      3  N   UNL     1      -2.093  -4.051  -0.751  0.00  0.00    -0.296 N 
ENDROOT
BRANCH   1   4
ATOM      4  C   UNL     1      -2.067  -1.586  -0.551  0.00  0.00    +0.204 C 
BRANCH   4   5
ATOM      5  N   UNL     1      -1.419  -0.575   0.288  0.00  0.00    -0.284 N 
ATOM      6  C   UNL     1      -1.958  -0.239   1.477  0.00  0.00    +0.283 C 
ATOM      7  O   UNL     1      -1.472   0.664   2.132  0.00  0.00    -0.267 OA
BRANCH   6   8
ATOM      8  C   UNL     1      -3.130  -0.963   1.981  0.00  0.00    +0.189 A 
ATOM      9  C   UNL     1      -3.836  -0.660   3.110  0.00  0.00    +0.054 A 
ATOM     10  C   UNL     1      -4.868  -1.606   3.207  0.00  0.00    +0.042 A 
ATOM     11  C   UNL     1      -4.747  -2.436   2.147  0.00  0.00    +0.196 A 
ATOM     12  O   UNL     1      -3.702  -2.042   1.408  0.00  0.00    -0.458 OA
ENDBRANCH   6   8
BRANCH   5  14
ATOM     13  C   UNL     1      -0.425   1.575  -0.324  0.00  0.00    +0.028 C 
ATOM     14  C   UNL     1      -0.184   0.072  -0.165  0.00  0.00    +0.071 C 
ATOM     15  C   UNL     1       0.921  -0.161   0.867  0.00  0.00    +0.028 C 
ENDBRANCH   5  14
ENDBRANCH   4   5
ENDBRANCH   1   4
BRANCH   3  16
ATOM     16  C   UNL     1      -3.036  -3.904  -1.862  0.00  0.00    +0.113 C 
BRANCH  16  17
ATOM     17  C   UNL     1      -2.262  -3.788  -3.177  0.00  0.00    +0.056 C 
BRANCH  17  18
ATOM     18  C   UNL     1      -3.233  -3.637  -4.319  0.00  0.00    -0.021 A 
ATOM     19  C   UNL     1      -3.713  -4.622  -5.095  0.00  0.00    +0.087 A 
ATOM     20  N   UNL     1      -4.570  -4.104  -6.028  0.00  0.00    -0.360 N 
ATOM     21  H   UNL     1      -5.041  -4.622  -6.700  0.00  0.00    +0.165 HD
ATOM     22  C   UNL     1      -4.664  -2.740  -5.872  0.00  0.00    +0.047 A 
ATOM     23  C   UNL     1      -3.836  -2.388  -4.791  0.00  0.00    +0.003 A 
ATOM     24  C   UNL     1      -3.736  -1.053  -4.395  0.00  0.00    +0.010 A 
ATOM     25  C   UNL     1      -4.448  -0.094  -5.059  0.00  0.00    +0.001 A 
ATOM     26  C   UNL     1      -5.270  -0.436  -6.123  0.00  0.00    +0.002 A 
ATOM     27  C   UNL     1      -5.376  -1.747  -6.536  0.00  0.00    +0.026 A 
ENDBRANCH  17  18
ENDBRANCH  16  17
ENDBRANCH   3  16
BRANCH   3  28
ATOM     28  C   UNL     1      -1.661  -5.386  -0.329  0.00  0.00    +0.143 C 
BRANCH  28  29
ATOM     29  C   UNL     1      -2.598  -5.906   0.730  0.00  0.00    -0.030 A 
ATOM     30  C   UNL     1      -2.345  -5.649   2.064  0.00  0.00    +0.005 A 
ATOM     31  C   UNL     1      -3.205  -6.127   3.035  0.00  0.00    +0.004 A 
ATOM     32  C   UNL     1      -4.319  -6.860   2.672  0.00  0.00    -0.042 A 
ATOM     33  C   UNL     1      -4.573  -7.116   1.337  0.00  0.00    +0.004 A 
ATOM     34  C   UNL     1      -3.715  -6.635   0.366  0.00  0.00    +0.005 A 
BRANCH  32  35
ATOM     35  C   UNL     1      -5.256  -7.381   3.730  0.00  0.00    -0.013 C 
ATOM     36  C   UNL     1      -5.831  -6.207   4.526  0.00  0.00    +0.015 C 
ATOM     37  C   UNL     1      -6.398  -8.154   3.066  0.00  0.00    +0.015 C 
ATOM     38  C   UNL     1      -4.493  -8.312   4.674  0.00  0.00    +0.015 C 
ENDBRANCH  32  35
ENDBRANCH  28  29
ENDBRANCH   3  28
TORSDOF 10
