REMARK  Name = ZINC66451310
REMARK  10 active torsions:
REMARK  status: ('A' for Active; 'I' for Inactive)
REMARK    1  A    between atoms: C_1  and  C_2
REMARK    2  A    between atoms: C_2  and  C_3
REMARK    3  A    between atoms: C_2  and  C_4
REMARK    4  A    between atoms: C_2  and  O_5
REMARK    5  A    between atoms: O_5  and  C_6
REMARK    6  A    between atoms: N_8  and  C_9
REMARK    7  A    between atoms: C_12  and  C_15
REMARK    8  A    between atoms: N_17  and  C_18
REMARK    9  A    between atoms: N_23  and  C_25
REMARK   10  A    between atoms: C_25  and  C_26
REMARK                            x       y       z     vdW  Elec       q    Type
REMARK                         _______ _______ _______ _____ _____    ______ ____
ROOT
ATOM      1  C   UNL     1       7.893   1.287  -3.474  0.00  0.00    +0.244 C 
ATOM      2  O   UNL     1       8.473   1.982  -2.663  0.00  0.00    -0.270 OA
ATOM      3  N   UNL     1       8.503   0.941  -4.625  0.00  0.00    -0.310 N 
ATOM      4  H   UNL     1       8.040   0.386  -5.272  0.00  0.00    +0.149 HD
ENDROOT
BRANCH   3   5
ATOM      5  C   UNL     1       9.867   1.401  -4.897  0.00  0.00    +0.057 C 
ATOM      6  C   UNL     1      10.870   0.442  -4.250  0.00  0.00    +0.018 C 
ATOM      7  C   UNL     1      12.291   0.887  -4.606  0.00  0.00    -0.017 C 
ATOM      8  C   UNL     1      12.437   0.938  -6.128  0.00  0.00    -0.078 C 
ATOM      9  N   UNL     1      11.470   1.891  -6.685  0.00  0.00    +0.387 N 
ATOM     10  C   UNL     1      10.103   1.433  -6.409  0.00  0.00    -0.056 C 
ATOM     11  H   UNL     1      11.611   2.797  -6.264  0.00  0.00    -0.081 HD
BRANCH   9  12
ATOM     12  C   UNL     1      11.666   1.994  -8.137  0.00  0.00    +0.018 C 
BRANCH  12  13
ATOM     13  C   UNL     1      13.021   2.589  -8.420  0.00  0.00    +0.194 C 
ATOM     14  O   UNL     1      13.752   2.898  -7.502  0.00  0.00    -0.278 OA
ATOM     15  N   UNL     1      13.421   2.779  -9.693  0.00  0.00    -0.331 N 
ATOM     16  H   UNL     1      12.837   2.533 -10.427  0.00  0.00    +0.145 HD
ATOM     17  H   UNL     1      14.294   3.163  -9.875  0.00  0.00    +0.145 HD
ENDBRANCH  12  13
ENDBRANCH   9  12
ENDBRANCH   3   5
BRANCH   1  21
ATOM     18  C   UNL     1       3.939  -0.047  -2.684  0.00  0.00    +0.036 A 
ATOM     19  C   UNL     1       4.602   0.748  -1.754  0.00  0.00    +0.024 A 
ATOM     20  C   UNL     1       5.884   1.182  -2.007  0.00  0.00    +0.015 A 
ATOM     21  C   UNL     1       6.519   0.824  -3.200  0.00  0.00    +0.037 A 
ATOM     22  C   UNL     1       5.850   0.025  -4.131  0.00  0.00    +0.015 A 
ATOM     23  C   UNL     1       4.570  -0.410  -3.869  0.00  0.00    +0.024 A 
BRANCH  18  26
ATOM     24  C   UNL     1       1.780   0.313  -1.761  0.00  0.00    +0.405 C 
ATOM     25  O   UNL     1       2.159   1.378  -1.317  0.00  0.00    -0.226 OA
ATOM     26  N   UNL     1       2.641  -0.485  -2.424  0.00  0.00    -0.251 N 
ATOM     27  H   UNL     1       2.357  -1.364  -2.720  0.00  0.00    +0.158 HD
BRANCH  24  28
ATOM     28  O   UNL     1       0.501  -0.071  -1.591  0.00  0.00    -0.444 OA
BRANCH  28  30
ATOM     29  C   UNL     1      -0.423   2.162  -1.618  0.00  0.00    +0.055 C 
ATOM     30  C   UNL     1      -0.356   0.824  -0.879  0.00  0.00    +0.107 C 
ATOM     31  C   UNL     1       0.197   1.046   0.530  0.00  0.00    +0.055 C 
ATOM     32  C   UNL     1      -1.759   0.221  -0.787  0.00  0.00    +0.055 C 
ENDBRANCH  28  30
ENDBRANCH  24  28
ENDBRANCH  18  26
ENDBRANCH   1  21
TORSDOF 7
