REMARK  Name = ZINC36494006
REMARK  14 active torsions:
REMARK  status: ('A' for Active; 'I' for Inactive)
REMARK    1  A    between atoms: C_1  and  C_2
REMARK    2  A    between atoms: C_2  and  C_3
REMARK    3  A    between atoms: C_3  and  C_4
REMARK    4  A    between atoms: C_4  and  N_5
REMARK    5  A    between atoms: C_6  and  C_8
REMARK    6  A    between atoms: C_8  and  C_10
REMARK    7  A    between atoms: C_8  and  N_17
REMARK    8  A    between atoms: C_15  and  C_16
REMARK    9  A    between atoms: N_17  and  C_18
REMARK   10  A    between atoms: C_18  and  C_19
REMARK   11  A    between atoms: C_24  and  C_26
REMARK   12  A    between atoms: C_32  and  O_34
REMARK   13  A    between atoms: O_34  and  C_35
REMARK   14  A    between atoms: C_35  and  C_36
REMARK                            x       y       z     vdW  Elec       q    Type
REMARK                         _______ _______ _______ _____ _____    ______ ____
ROOT
ATOM      1  N   UNL     1       2.891  -6.061  -3.893  0.00  0.00    -0.277 N 
ATOM      2  C   UNL     1       4.153  -6.521  -3.780  0.00  0.00    +0.237 C 
ATOM      3  O   UNL     1       5.089  -5.761  -3.913  0.00  0.00    -0.274 OA
ENDROOT
BRANCH   2   4
ATOM      4  C   UNL     1       4.401  -7.978  -3.489  0.00  0.00    +0.165 C 
ATOM      5  C   UNL     1       4.221  -8.250  -1.980  0.00  0.00    +0.033 C 
ATOM      6  C   UNL     1       5.348  -9.272  -1.675  0.00  0.00    +0.021 C 
ATOM      7  C   UNL     1       6.478  -8.778  -2.611  0.00  0.00    +0.112 C 
ATOM      8  N   UNL     1       5.785  -8.330  -3.837  0.00  0.00    -0.256 N 
ATOM      9  C   UNL     1       6.329  -8.254  -5.068  0.00  0.00    +0.404 C 
ATOM     10  O   UNL     1       5.659  -7.869  -6.005  0.00  0.00    -0.226 OA
BRANCH   9  11
ATOM     11  O   UNL     1       7.615  -8.606  -5.259  0.00  0.00    -0.445 OA
BRANCH  11  12
ATOM     12  C   UNL     1       8.125  -8.502  -6.589  0.00  0.00    +0.269 C 
BRANCH  12  13
ATOM     13  C   UNL     1       9.569  -8.934  -6.609  0.00  0.00    -0.010 A 
ATOM     14  C   UNL     1      10.571  -8.008  -6.393  0.00  0.00    +0.007 A 
ATOM     15  C   UNL     1      11.895  -8.405  -6.410  0.00  0.00    +0.000 A 
ATOM     16  C   UNL     1      12.217  -9.729  -6.644  0.00  0.00    +0.000 A 
ATOM     17  C   UNL     1      11.214 -10.656  -6.859  0.00  0.00    +0.000 A 
ATOM     18  C   UNL     1       9.890 -10.259  -6.837  0.00  0.00    +0.007 A 
ENDBRANCH  12  13
ENDBRANCH  11  12
ENDBRANCH   9  11
ENDBRANCH   2   4
BRANCH   1  19
ATOM     19  C   UNL     1       2.650  -4.644  -4.177  0.00  0.00    +0.193 C 
BRANCH  19  20
ATOM     20  C   UNL     1       3.366  -3.799  -3.155  0.00  0.00    -0.015 A 
ATOM     21  C   UNL     1       4.546  -3.161  -3.490  0.00  0.00    +0.006 A 
ATOM     22  C   UNL     1       5.202  -2.386  -2.552  0.00  0.00    +0.000 A 
ATOM     23  C   UNL     1       4.679  -2.248  -1.280  0.00  0.00    +0.000 A 
ATOM     24  C   UNL     1       3.498  -2.885  -0.946  0.00  0.00    +0.004 A 
ATOM     25  C   UNL     1       2.840  -3.657  -1.885  0.00  0.00    -0.045 A 
ATOM     26  C   UNL     1       1.550  -4.347  -1.522  0.00  0.00    +0.044 C 
ENDBRANCH  19  20
BRANCH  19  28
ATOM     27  N   UNL     1       2.939  -3.094  -6.082  0.00  0.00    -0.313 N 
ATOM     28  C   UNL     1       3.166  -4.312  -5.553  0.00  0.00    +0.238 C 
ATOM     29  O   UNL     1       3.785  -5.142  -6.185  0.00  0.00    -0.273 OA
ATOM     30  H   UNL     1       2.378  -2.457  -5.611  0.00  0.00    +0.149 HD
BRANCH  27  31
ATOM     31  C   UNL     1       3.538  -2.731  -7.369  0.00  0.00    +0.104 C 
BRANCH  31  32
ATOM     32  C   UNL     1       3.125  -1.305  -7.739  0.00  0.00    +0.018 C 
BRANCH  32  34
ATOM     33  C   UNL     1       3.338   0.501  -9.454  0.00  0.00    +0.004 C 
ATOM     34  C   UNL     1       3.751  -0.925  -9.083  0.00  0.00    -0.002 C 
ENDBRANCH  32  34
ENDBRANCH  31  32
ENDBRANCH  27  31
ENDBRANCH  19  28
ENDBRANCH   1  19
BRANCH   1  35
ATOM     35  C   UNL     1       1.760  -6.979  -3.733  0.00  0.00    +0.183 C 
BRANCH  35  36
ATOM     36  C   UNL     1       1.298  -7.448  -5.089  0.00  0.00    +0.122 A 
ATOM     37  C   UNL     1       1.736  -8.544  -5.734  0.00  0.00    +0.046 A 
ATOM     38  C   UNL     1       1.040  -8.602  -6.963  0.00  0.00    +0.041 A 
ATOM     39  C   UNL     1       0.218  -7.538  -6.996  0.00  0.00    +0.195 A 
ATOM     40  O   UNL     1       0.374  -6.846  -5.856  0.00  0.00    -0.466 OA
ENDBRANCH  35  36
ENDBRANCH   1  35
TORSDOF 12
