REMARK  Name = ZINC32851021
REMARK  7 active torsions:
REMARK  status: ('A' for Active; 'I' for Inactive)
REMARK    1  A    between atoms: C_8  and  C_25
REMARK    2  A    between atoms: N_10  and  C_12
REMARK    3  A    between atoms: C_12  and  C_13
REMARK    4  A    between atoms: C_13  and  O_14
REMARK    5  A    between atoms: O_14  and  C_15
REMARK    6  A    between atoms: C_18  and  S_21
REMARK    7  A    between atoms: S_21  and  N_24
REMARK                            x       y       z     vdW  Elec       q    Type
REMARK                         _______ _______ _______ _____ _____    ______ ____
ROOT
ATOM      1  C   UNL     1       1.223   1.994  -0.329  0.00  0.00    +0.000 A 
ATOM      2  C   UNL     1       0.144   1.256   0.120  0.00  0.00    +0.000 A 
ATOM      3  C   UNL     1      -1.062   1.880   0.366  0.00  0.00    +0.002 A 
ATOM      4  C   UNL     1      -1.195   3.248   0.178  0.00  0.00    -0.061 A 
ATOM      5  C   UNL     1      -0.120   3.984  -0.272  0.00  0.00    -0.047 A 
ATOM      6  C   UNL     1       1.090   3.354  -0.524  0.00  0.00    +0.004 A 
ATOM      7  C   UNL     1      -0.219   5.470  -0.504  0.00  0.00    +0.029 C 
ATOM      8  C   UNL     1      -1.453   6.027   0.207  0.00  0.00    +0.024 C 
ATOM      9  N   UNL     1      -2.616   5.205  -0.162  0.00  0.00    +0.392 N 
ATOM     10  C   UNL     1      -2.527   3.886   0.472  0.00  0.00    -0.042 C 
ATOM     11  H   UNL     1      -2.614   5.064  -1.253  0.00  0.00    -0.080 HD
ENDROOT
BRANCH   8  12
ATOM     12  C   UNL     1      -1.681   7.455  -0.219  0.00  0.00    +0.197 C 
ATOM     13  O   UNL     1      -2.306   7.693  -1.230  0.00  0.00    -0.278 OA
ATOM     14  N   UNL     1      -1.190   8.466   0.524  0.00  0.00    -0.331 N 
ATOM     15  H   UNL     1      -1.356   9.508   0.213  0.00  0.00    +0.145 HD
ATOM     16  H   UNL     1      -0.623   8.250   1.442  0.00  0.00    +0.145 HD
ENDBRANCH   8  12
BRANCH   9  17
ATOM     17  C   UNL     1      -3.872   5.878   0.197  0.00  0.00    -0.036 C 
BRANCH  17  18
ATOM     18  C   UNL     1      -5.033   5.227  -0.556  0.00  0.00    +0.210 C 
BRANCH  18  19
ATOM     19  O   UNL     1      -5.189   3.877  -0.116  0.00  0.00    -0.494 OA
BRANCH  19  20
ATOM     20  C   UNL     1      -6.184   3.151  -0.690  0.00  0.00    +0.121 A 
ATOM     21  C   UNL     1      -6.998   3.730  -1.654  0.00  0.00    +0.047 A 
ATOM     22  C   UNL     1      -8.006   2.989  -2.240  0.00  0.00    +0.032 A 
ATOM     23  C   UNL     1      -8.211   1.675  -1.859  0.00  0.00    +0.105 A 
ATOM     24  C   UNL     1      -7.405   1.099  -0.895  0.00  0.00    +0.032 A 
ATOM     25  C   UNL     1      -6.392   1.834  -0.310  0.00  0.00    +0.047 A 
BRANCH  23  26
ATOM     26  S   UNL     1      -9.502   0.735  -2.604  0.00  0.00    +0.056 S 
ATOM     27  O   UNL     1      -9.763   1.333  -3.866  0.00  0.00    -0.153 OA
ATOM     28  O   UNL     1      -9.138  -0.632  -2.469  0.00  0.00    -0.153 OA
BRANCH  26  29
ATOM     29  N   UNL     1     -10.862   0.957  -1.685  0.00  0.00    -0.204 NA
ATOM     30  H   UNL     1     -11.694   0.383  -2.119  0.00  0.00    +0.144 HD
ATOM     31  H   UNL     1     -11.122   2.025  -1.667  0.00  0.00    +0.144 HD
ENDBRANCH  26  29
ENDBRANCH  23  26
ENDBRANCH  19  20
ENDBRANCH  18  19
ENDBRANCH  17  18
ENDBRANCH   9  17
TORSDOF 7
