REMARK  Name = ZINC13262863
REMARK  4 active torsions:
REMARK  status: ('A' for Active; 'I' for Inactive)
REMARK    1  A    between atoms: C_6  and  S_7
REMARK    2  A    between atoms: S_7  and  N_10
REMARK    3  A    between atoms: N_10  and  C_11
REMARK    4  A    between atoms: C_11  and  C_17
REMARK                            x       y       z     vdW  Elec       q    Type
REMARK                         _______ _______ _______ _____ _____    ______ ____
ROOT
ATOM      1  S   UNL     1      -1.043   2.898  -2.494  0.00  0.00    +0.059 S 
ATOM      2  O   UNL     1      -0.954   4.050  -3.321  0.00  0.00    -0.153 OA
ATOM      3  O   UNL     1       0.033   1.982  -2.343  0.00  0.00    -0.153 OA
ENDROOT
BRANCH   1   9
ATOM      4  C   UNL     1      -2.398   0.586  -3.008  0.00  0.00    +0.030 A 
ATOM      5  C   UNL     1      -3.480  -0.147  -3.461  0.00  0.00    +0.023 A 
ATOM      6  C   UNL     1      -4.581   0.501  -3.992  0.00  0.00    +0.059 A 
ATOM      7  C   UNL     1      -4.600   1.884  -4.065  0.00  0.00    +0.061 A 
ATOM      8  C   UNL     1      -3.519   2.615  -3.607  0.00  0.00    +0.050 A 
ATOM      9  C   UNL     1      -2.420   1.966  -3.077  0.00  0.00    +0.107 A 
ATOM     10 CL   UNL     1      -5.981   2.699  -4.731  0.00  0.00    -0.082 Cl
ATOM     11 CL   UNL     1      -5.937  -0.418  -4.566  0.00  0.00    -0.082 Cl
ENDBRANCH   1   9
BRANCH   1  12
ATOM     12  N   UNL     1      -1.424   3.435  -0.974  0.00  0.00    -0.173 NA
ATOM     13  H   UNL     1      -1.560   4.382  -0.814  0.00  0.00    +0.149 HD
BRANCH  12  14
ATOM     14  C   UNL     1      -1.554   2.479   0.129  0.00  0.00    +0.140 C 
ATOM     15  C   UNL     1      -1.728   3.240   1.445  0.00  0.00    +0.035 C 
ATOM     16  C   UNL     1      -2.986   4.108   1.370  0.00  0.00    +0.002 C 
ATOM     17  C   UNL     1      -4.207   3.217   1.131  0.00  0.00    +0.000 C 
ATOM     18  C   UNL     1      -4.033   2.456  -0.185  0.00  0.00    +0.002 C 
ATOM     19  C   UNL     1      -2.775   1.588  -0.110  0.00  0.00    +0.035 C 
BRANCH  14  20
ATOM     20  C   UNL     1      -0.315   1.625   0.203  0.00  0.00    +0.377 C 
ATOM     21  O   UNL     1      -0.406   0.450   0.470  0.00  0.00    -0.244 OA
ATOM     22  O   UNL     1       0.890   2.168  -0.034  0.00  0.00    -0.244 OA
ENDBRANCH  14  20
ENDBRANCH  12  14
ENDBRANCH   1  12
TORSDOF 4
