REMARK  Name = ZINC39710527
REMARK  13 active torsions:
REMARK  status: ('A' for Active; 'I' for Inactive)
REMARK    1  A    between atoms: C_1  and  C_2
REMARK    2  A    between atoms: C_2  and  C_3
REMARK    3  A    between atoms: C_10  and  C_15
REMARK    4  A    between atoms: C_15  and  C_17
REMARK    5  A    between atoms: C_15  and  N_27
REMARK    6  A    between atoms: N_22  and  C_23
REMARK    7  A    between atoms: C_23  and  C_24
REMARK    8  A    between atoms: C_23  and  C_25
REMARK    9  A    between atoms: C_23  and  C_26
REMARK   10  A    between atoms: N_27  and  C_28
REMARK   11  A    between atoms: N_27  and  C_36
REMARK   12  A    between atoms: C_28  and  C_29
REMARK   13  A    between atoms: C_36  and  C_37
REMARK                            x       y       z     vdW  Elec       q    Type
REMARK                         _______ _______ _______ _____ _____    ______ ____
ROOT
ATOM      1  C   UNL     1      -6.709  -1.129  -2.602  0.00  0.00    -0.008 C 
ENDROOT
BRANCH   1   9
ATOM      2  C   UNL     1      -1.582  -0.268   0.050  0.00  0.00    -0.047 A 
ATOM      3  C   UNL     1      -2.153  -0.435   1.313  0.00  0.00    +0.005 A 
ATOM      4  C   UNL     1      -3.405  -0.929   1.491  0.00  0.00    +0.024 A 
ATOM      5  C   UNL     1      -4.191  -1.300   0.385  0.00  0.00    +0.040 A 
ATOM      6  N   UNL     1      -5.419  -1.784   0.572  0.00  0.00    -0.285 N 
ATOM      7  C   UNL     1      -6.210  -2.152  -0.422  0.00  0.00    +0.223 C 
ATOM      8  O   UNL     1      -7.322  -2.587  -0.189  0.00  0.00    -0.275 OA
ATOM      9  C   UNL     1      -5.727  -2.029  -1.849  0.00  0.00    +0.088 C 
ATOM     10  C   UNL     1      -4.331  -1.479  -2.068  0.00  0.00    -0.006 C 
ATOM     11  C   UNL     1      -3.614  -1.135  -0.960  0.00  0.00    -0.007 A 
ATOM     12  C   UNL     1      -2.261  -0.591  -1.081  0.00  0.00    +0.013 A 
ATOM     13  H   UNL     1      -5.748  -1.871   1.481  0.00  0.00    +0.155 HD
BRANCH   2  15
ATOM     14  C   UNL     1      -0.252   1.814  -0.158  0.00  0.00    +0.009 C 
ATOM     15  C   UNL     1      -0.186   0.289  -0.061  0.00  0.00    +0.032 C 
ENDBRANCH   2  15
ENDBRANCH   1   9
BRANCH   1  16
ATOM     16  C   UNL     1      -6.885   0.184  -1.836  0.00  0.00    +0.205 C 
ATOM     17  N   UNL     1      -7.696  -0.030  -0.630  0.00  0.00    -0.152 NA
ATOM     18  N   UNL     1      -8.719   0.653  -0.710  0.00  0.00    -0.070 NA
ATOM     19  N   UNL     1      -8.784   1.397  -1.888  0.00  0.00    -0.179 N 
ATOM     20  N   UNL     1      -7.663   1.150  -2.641  0.00  0.00    -0.183 NA
ATOM     21  H   UNL     1      -9.507   1.994  -2.136  0.00  0.00    +0.191 HD
BRANCH  20  22
ATOM     22  C   UNL     1      -6.897   2.383  -2.868  0.00  0.00    +0.035 C 
ATOM     23  C   UNL     1      -5.558   2.038  -3.523  0.00  0.00    +0.029 C 
ATOM     24  C   UNL     1      -7.689   3.314  -3.788  0.00  0.00    +0.029 C 
ATOM     25  C   UNL     1      -6.645   3.081  -1.530  0.00  0.00    +0.029 C 
ENDBRANCH  20  22
ENDBRANCH   1  16
BRANCH   1  26
ATOM     26  N   UNL     1      -8.007  -1.807  -2.716  0.00  0.00    +0.392 N 
ATOM     27  H   UNL     1      -8.346  -2.042  -1.795  0.00  0.00    -0.080 HD
BRANCH  26  28
ATOM     28  C   UNL     1      -7.849  -3.035  -3.507  0.00  0.00    -0.040 C 
BRANCH  28  29
ATOM     29  C   UNL     1      -7.511  -2.676  -4.931  0.00  0.00    -0.046 A 
ATOM     30  C   UNL     1      -8.521  -2.389  -5.830  0.00  0.00    +0.003 A 
ATOM     31  C   UNL     1      -8.211  -2.059  -7.136  0.00  0.00    +0.000 A 
ATOM     32  C   UNL     1      -6.891  -2.016  -7.544  0.00  0.00    +0.001 A 
ATOM     33  C   UNL     1      -5.880  -2.303  -6.646  0.00  0.00    +0.020 A 
ATOM     34  C   UNL     1      -6.189  -2.627  -5.337  0.00  0.00    +0.042 A 
ATOM     35 CL   UNL     1      -4.920  -2.981  -4.207  0.00  0.00    -0.083 Cl
ENDBRANCH  28  29
ENDBRANCH  26  28
BRANCH  26  36
ATOM     36  C   UNL     1      -8.968  -0.917  -3.380  0.00  0.00    -0.002 C 
BRANCH  36  37
ATOM     37  C   UNL     1     -10.350  -1.510  -3.287  0.00  0.00    +0.089 A 
ATOM     38  C   UNL     1     -11.273  -1.212  -2.355  0.00  0.00    +0.042 A 
ATOM     39  C   UNL     1     -12.414  -1.994  -2.643  0.00  0.00    +0.041 A 
ATOM     40  C   UNL     1     -12.121  -2.725  -3.734  0.00  0.00    +0.195 A 
ATOM     41  O   UNL     1     -10.871  -2.423  -4.123  0.00  0.00    -0.470 OA
ENDBRANCH  36  37
ENDBRANCH  26  36
ENDBRANCH   1  26
TORSDOF 9
