REMARK  Name = ZINC39962498
REMARK  6 active torsions:
REMARK  status: ('A' for Active; 'I' for Inactive)
REMARK    1  A    between atoms: C_4  and  C_7
REMARK    2  A    between atoms: C_17  and  S_19
REMARK    3  A    between atoms: S_19  and  C_20
REMARK    4  A    between atoms: C_20  and  C_21
REMARK    5  A    between atoms: N_23  and  C_24
REMARK    6  A    between atoms: C_27  and  N_30
REMARK                            x       y       z     vdW  Elec       q    Type
REMARK                         _______ _______ _______ _____ _____    ______ ____
ROOT
ATOM      1  C   UNL     1       3.622  -0.650  -0.052  0.00  0.00    -0.010 C 
ATOM      2  C   UNL     1       4.833   0.038  -0.166  0.00  0.00    +0.003 A 
ATOM      3  C   UNL     1       4.856   1.445  -0.263  0.00  0.00    +0.030 A 
ATOM      4  C   UNL     1       6.050   2.090  -0.371  0.00  0.00    +0.042 A 
ATOM      5  C   UNL     1       7.254   1.388  -0.389  0.00  0.00    +0.022 A 
ATOM      6  C   UNL     1       7.294   0.030  -0.299  0.00  0.00    +0.025 A 
ATOM      7  C   UNL     1       6.099  -0.703  -0.184  0.00  0.00    +0.041 A 
ATOM      8  N   UNL     1       6.142  -2.036  -0.095  0.00  0.00    -0.284 N 
ATOM      9  C   UNL     1       5.068  -2.794   0.015  0.00  0.00    +0.235 C 
ATOM     10  O   UNL     1       5.182  -4.003   0.091  0.00  0.00    -0.274 OA
ATOM     11  C   UNL     1       3.695  -2.162   0.054  0.00  0.00    +0.164 C 
ATOM     12 CL   UNL     1       6.073   3.822  -0.491  0.00  0.00    -0.084 Cl
ATOM     13  H   UNL     1       7.009  -2.470  -0.112  0.00  0.00    +0.155 HD
ENDROOT
BRANCH   1  17
ATOM     14  C   UNL     1      -0.048   1.371   0.010  0.00  0.00    +0.000 A 
ATOM     15  C   UNL     1       0.252   0.521  -1.042  0.00  0.00    +0.001 A 
ATOM     16  C   UNL     1       1.455  -0.148  -1.072  0.00  0.00    +0.008 A 
ATOM     17  C   UNL     1       2.380   0.034  -0.031  0.00  0.00    -0.020 A 
ATOM     18  C   UNL     1       2.067   0.898   1.031  0.00  0.00    +0.008 A 
ATOM     19  C   UNL     1       0.858   1.558   1.042  0.00  0.00    +0.001 A 
ENDBRANCH   1  17
BRANCH  11  20
ATOM     20  S   UNL     1       2.894  -2.651   1.605  0.00  0.00    -0.134 S 
BRANCH  20  21
ATOM     21  C   UNL     1       2.905  -4.464   1.553  0.00  0.00    +0.166 C 
BRANCH  21  22
ATOM     22  C   UNL     1       2.258  -5.007   2.801  0.00  0.00    +0.227 C 
ATOM     23  O   UNL     1       1.832  -4.245   3.643  0.00  0.00    -0.275 OA
ATOM     24  N   UNL     1       2.154  -6.338   2.981  0.00  0.00    -0.285 N 
ATOM     25  H   UNL     1       2.563  -6.947   2.346  0.00  0.00    +0.155 HD
BRANCH  24  26
ATOM     26  C   UNL     1       1.456  -6.843   4.084  0.00  0.00    +0.034 A 
ATOM     27  C   UNL     1       1.887  -8.006   4.708  0.00  0.00    +0.025 A 
ATOM     28  C   UNL     1       1.196  -8.501   5.796  0.00  0.00    +0.034 A 
ATOM     29  C   UNL     1       0.076  -7.839   6.265  0.00  0.00    +0.126 A 
ATOM     30  C   UNL     1      -0.356  -6.680   5.647  0.00  0.00    +0.034 A 
ATOM     31  C   UNL     1       0.335  -6.177   4.562  0.00  0.00    +0.025 A 
BRANCH  29  32
ATOM     32  N   UNL     1      -0.662  -8.373   7.432  0.00  0.00    +0.056 N 
ATOM     33  O   UNL     1      -0.286  -9.386   7.974  0.00  0.00    -0.126 OA
ATOM     34  O   UNL     1      -1.641  -7.795   7.844  0.00  0.00    -0.126 OA
ENDBRANCH  29  32
ENDBRANCH  24  26
ENDBRANCH  21  22
ENDBRANCH  20  21
ENDBRANCH  11  20
TORSDOF 6
