REMARK  Name = ZINC04359773
REMARK  11 active torsions:
REMARK  status: ('A' for Active; 'I' for Inactive)
REMARK    1  A    between atoms: C_1  and  C_2
REMARK    2  A    between atoms: C_2  and  C_3
REMARK    3  A    between atoms: C_2  and  C_4
REMARK    4  A    between atoms: C_2  and  C_5
REMARK    5  A    between atoms: C_8  and  C_11
REMARK    6  A    between atoms: N_13  and  C_14
REMARK    7  A    between atoms: C_14  and  C_15
REMARK    8  A    between atoms: C_15  and  C_16
REMARK    9  A    between atoms: C_16  and  N_57
REMARK   10  A    between atoms: C_17  and  N_57
REMARK   11  A    between atoms: C_18  and  N_57
REMARK                            x       y       z     vdW  Elec       q    Type
REMARK                         _______ _______ _______ _____ _____    ______ ____
ROOT
ATOM      1  C   UNL     1       3.710  -1.790  -0.262  0.00  0.00    +0.252 C 
ATOM      2  O   UNL     1       2.791  -2.323   0.330  0.00  0.00    -0.270 OA
ATOM      3  N   UNL     1       3.594  -0.512  -0.675  0.00  0.00    -0.246 N 
ATOM      4  C   UNL     1       2.457   0.215  -0.367  0.00  0.00    +0.168 A 
ATOM      5  N   UNL     1       1.361  -0.186   0.234  0.00  0.00    -0.221 NA
ATOM      6  C   UNL     1       0.319   0.641   0.472  0.00  0.00    +0.115 A 
ATOM      7  C   UNL     1      -0.910   0.338   1.105  0.00  0.00    +0.150 A 
ATOM      8  C   UNL     1      -1.871   1.304   1.268  0.00  0.00    +0.040 A 
ATOM      9  C   UNL     1      -1.675   2.603   0.822  0.00  0.00    +0.004 A 
ATOM     10  C   UNL     1      -0.484   2.934   0.203  0.00  0.00    +0.017 A 
ATOM     11  C   UNL     1       0.482   1.973   0.031  0.00  0.00    +0.044 A 
ATOM     12  S   UNL     1       2.107   1.938  -0.686  0.00  0.00    -0.052 S 
ATOM     13  F   UNL     1      -1.140  -0.915   1.554  0.00  0.00    -0.203 F 
ENDROOT
BRANCH   1  17
ATOM     14  C   UNL     1       7.282  -3.955  -1.032  0.00  0.00    -0.042 A 
ATOM     15  C   UNL     1       6.078  -4.629  -0.923  0.00  0.00    +0.005 A 
ATOM     16  C   UNL     1       4.914  -3.932  -0.674  0.00  0.00    +0.013 A 
ATOM     17  C   UNL     1       4.953  -2.543  -0.530  0.00  0.00    +0.037 A 
ATOM     18  C   UNL     1       6.170  -1.870  -0.645  0.00  0.00    +0.013 A 
ATOM     19  C   UNL     1       7.327  -2.580  -0.890  0.00  0.00    +0.005 A 
BRANCH  14  21
ATOM     20  C   UNL     1       8.418  -5.467  -2.635  0.00  0.00    +0.015 C 
ATOM     21  C   UNL     1       8.549  -4.723  -1.305  0.00  0.00    -0.013 C 
ATOM     22  C   UNL     1       9.729  -3.752  -1.377  0.00  0.00    +0.015 C 
ATOM     23  C   UNL     1       8.787  -5.731  -0.178  0.00  0.00    +0.015 C 
ENDBRANCH  14  21
ENDBRANCH   1  17
BRANCH   3  24
ATOM     24  C   UNL     1       4.672   0.107  -1.450  0.00  0.00    +0.114 C 
BRANCH  24  25
ATOM     25  C   UNL     1       5.406   1.127  -0.578  0.00  0.00    +0.001 C 
BRANCH  25  26
ATOM     26  C   UNL     1       6.532   1.774  -1.387  0.00  0.00    -0.078 C 
BRANCH  26  29
ATOM     27  C   UNL     1       8.464   3.222  -1.207  0.00  0.00    -0.097 C 
ATOM     28  C   UNL     1       6.360   3.882  -0.207  0.00  0.00    -0.097 C 
ATOM     29  N   UNL     1       7.244   2.741  -0.525  0.00  0.00    +0.376 N 
ATOM     30  H   UNL     1       7.513   2.273   0.348  0.00  0.00    -0.083 HD
ENDBRANCH  26  29
ENDBRANCH  25  26
ENDBRANCH  24  25
ENDBRANCH   3  24
TORSDOF 6
