REMARK  Name = ZINC21256976
REMARK  10 active torsions:
REMARK  status: ('A' for Active; 'I' for Inactive)
REMARK    1  A    between atoms: C_1  and  C_2
REMARK    2  A    between atoms: C_2  and  C_3
REMARK    3  A    between atoms: C_2  and  O_4
REMARK    4  A    between atoms: O_4  and  C_5
REMARK    5  A    between atoms: C_8  and  C_11
REMARK    6  A    between atoms: C_16  and  C_26
REMARK    7  A    between atoms: C_28  and  N_35
REMARK    8  A    between atoms: C_29  and  O_34
REMARK    9  A    between atoms: C_30  and  O_32
REMARK   10  A    between atoms: O_32  and  C_33
REMARK                            x       y       z     vdW  Elec       q    Type
REMARK                         _______ _______ _______ _____ _____    ______ ____
ROOT
ATOM      1  C   UNL     1       5.177   7.626  -0.162  0.00  0.00    +0.032 C 
ATOM      2  C   UNL     1       5.039   6.952  -1.525  0.00  0.00    +0.059 C 
ATOM      3  C   UNL     1       5.301   5.460  -1.392  0.00  0.00    +0.017 C 
ATOM      4  C   UNL     1       4.948   4.808  -0.274  0.00  0.00    +0.036 C 
ATOM      5  C   UNL     1       5.104   3.326  -0.024  0.00  0.00    +0.136 C 
ATOM      6  N   UNL     1       5.925   2.642  -0.999  0.00  0.00    -0.331 N 
ATOM      7  C   UNL     1       5.535   2.554  -2.333  0.00  0.00    +0.049 A 
ATOM      8  C   UNL     1       5.213   1.335  -2.911  0.00  0.00    +0.025 A 
ATOM      9  C   UNL     1       4.785   1.297  -4.226  0.00  0.00    +0.002 A 
ATOM     10  C   UNL     1       4.672   2.463  -4.961  0.00  0.00    +0.002 A 
ATOM     11  C   UNL     1       5.009   3.680  -4.393  0.00  0.00    +0.025 A 
ATOM     12  C   UNL     1       5.460   3.716  -3.085  0.00  0.00    +0.052 A 
ATOM     13  N   UNL     1       5.888   4.892  -2.477  0.00  0.00    -0.316 N 
ATOM     14  C   UNL     1       4.373   5.511   0.812  0.00  0.00    +0.163 C 
ATOM     15  O   UNL     1       4.053   4.891   1.807  0.00  0.00    -0.292 OA
ATOM     16  C   UNL     1       4.146   6.992   0.779  0.00  0.00    +0.088 C 
ATOM     17  H   UNL     1       6.875   2.180  -0.692  0.00  0.00    +0.147 HD
ATOM     18  H   UNL     1       6.767   5.366  -2.938  0.00  0.00    +0.152 HD
ENDROOT
BRANCH   1  22
ATOM     19  C   UNL     1       4.417  11.815  -0.533  0.00  0.00    +0.121 A 
ATOM     20  C   UNL     1       5.647  11.370  -0.069  0.00  0.00    +0.046 A 
ATOM     21  C   UNL     1       5.890  10.016   0.050  0.00  0.00    +0.007 A 
ATOM     22  C   UNL     1       4.910   9.103  -0.293  0.00  0.00    -0.043 A 
ATOM     23  C   UNL     1       3.685   9.544  -0.761  0.00  0.00    +0.007 A 
ATOM     24  C   UNL     1       3.435  10.897  -0.877  0.00  0.00    +0.046 A 
BRANCH  19  25
ATOM     25  O   UNL     1       4.176  13.147  -0.652  0.00  0.00    -0.489 OA
BRANCH  25  27
ATOM     26  C   UNL     1       5.045  15.349  -1.138  0.00  0.00    +0.051 C 
ATOM     27  C   UNL     1       5.269  14.030  -0.395  0.00  0.00    +0.167 C 
ATOM     28  C   UNL     1       5.365  14.300   1.107  0.00  0.00    +0.051 C 
ENDBRANCH  25  27
ENDBRANCH  19  25
ENDBRANCH   1  22
BRANCH   5  29
ATOM     29  C   UNL     1       3.736   2.694  -0.022  0.00  0.00    -0.017 A 
ATOM     30  C   UNL     1       2.982   2.678  -1.181  0.00  0.00    +0.042 A 
ATOM     31  C   UNL     1       1.726   2.100  -1.184  0.00  0.00    +0.171 A 
ATOM     32  C   UNL     1       1.221   1.534  -0.025  0.00  0.00    +0.189 A 
ATOM     33  C   UNL     1       1.978   1.554   1.143  0.00  0.00    +0.164 A 
ATOM     34  C   UNL     1       3.238   2.131   1.138  0.00  0.00    +0.055 A 
BRANCH  31  35
ATOM     35  N   UNL     1       0.921   2.085  -2.426  0.00  0.00    +0.060 N 
ATOM     36  O   UNL     1       1.365   2.583  -3.445  0.00  0.00    -0.126 OA
ATOM     37  O   UNL     1      -0.185   1.575  -2.429  0.00  0.00    -0.126 OA
ENDBRANCH  31  35
BRANCH  33  38
ATOM     38  O   UNL     1       1.484   1.004   2.285  0.00  0.00    -0.491 OA
ATOM     39  C   UNL     1       2.317   1.062   3.445  0.00  0.00    +0.277 C 
ENDBRANCH  33  38
BRANCH  32  40
ATOM     40  O   UNL     1      -0.014   0.964  -0.026  0.00  0.00    -0.502 OA
ATOM     41  H   UNL     1      -0.414   0.515   0.895  0.00  0.00    +0.292 HD
ENDBRANCH  32  40
ENDBRANCH   5  29
TORSDOF 7
