REMARK  Name = ZINC22149210
REMARK  13 active torsions:
REMARK  status: ('A' for Active; 'I' for Inactive)
REMARK    1  A    between atoms: C_1  and  C_2
REMARK    2  A    between atoms: C_2  and  O_3
REMARK    3  A    between atoms: O_3  and  C_4
REMARK    4  A    between atoms: C_7  and  C_12
REMARK    5  A    between atoms: C_9  and  O_10
REMARK    6  A    between atoms: O_10  and  C_11
REMARK    7  A    between atoms: C_14  and  C_17
REMARK    8  A    between atoms: C_17  and  S_18
REMARK    9  A    between atoms: S_18  and  C_19
REMARK   10  A    between atoms: C_22  and  C_25
REMARK   11  A    between atoms: N_23  and  N_24
REMARK   12  A    between atoms: C_28  and  O_31
REMARK   13  A    between atoms: O_31  and  C_32
REMARK                            x       y       z     vdW  Elec       q    Type
REMARK                         _______ _______ _______ _____ _____    ______ ____
ROOT
ATOM      1  C   UNL     1      -1.331   2.092   0.020  0.00  0.00    +0.133 C 
ENDROOT
BRANCH   1   4
ATOM      2  C   UNL     1       2.283   1.401  -0.012  0.00  0.00    +0.109 A 
ATOM      3  N   UNL     1       1.113   2.025   0.002  0.00  0.00    -0.243 NA
ATOM      4  C   UNL     1      -0.016   1.355   0.009  0.00  0.00    +0.059 A 
ATOM      5  C   UNL     1       0.002  -0.004   0.002  0.00  0.00    +0.071 A 
ATOM      6  S   UNL     1       1.764  -0.310  -0.017  0.00  0.00    -0.075 S 
BRANCH   2  10
ATOM      7  C   UNL     1       6.207   3.036  -0.039  0.00  0.00    +0.162 A 
ATOM      8  C   UNL     1       5.105   3.878  -0.025  0.00  0.00    +0.050 A 
ATOM      9  C   UNL     1       3.831   3.351  -0.016  0.00  0.00    +0.014 A 
ATOM     10  C   UNL     1       3.648   1.967  -0.022  0.00  0.00    +0.011 A 
ATOM     11  C   UNL     1       4.757   1.120  -0.031  0.00  0.00    +0.060 A 
ATOM     12  C   UNL     1       6.032   1.655  -0.045  0.00  0.00    +0.162 A 
BRANCH  12  13
ATOM     13  O   UNL     1       7.114   0.832  -0.060  0.00  0.00    -0.491 OA
ATOM     14  C   UNL     1       6.860  -0.575  -0.066  0.00  0.00    +0.277 C 
ENDBRANCH  12  13
BRANCH   7  15
ATOM     15  O   UNL     1       7.462   3.561  -0.047  0.00  0.00    -0.489 OA
BRANCH  15  17
ATOM     16  C   UNL     1       9.046   5.386  -0.050  0.00  0.00    +0.048 C 
ATOM     17  C   UNL     1       7.569   4.986  -0.040  0.00  0.00    +0.226 C 
ENDBRANCH  15  17
ENDBRANCH   7  15
ENDBRANCH   2  10
ENDBRANCH   1   4
BRANCH   1  18
ATOM     18  S   UNL     1      -1.849   2.377   1.730  0.00  0.00    -0.078 S 
BRANCH  18  19
ATOM     19  C   UNL     1      -3.366   3.229   1.452  0.00  0.00    +0.209 A 
ATOM     20  N   UNL     1      -3.891   3.526   0.284  0.00  0.00    -0.121 NA
ATOM     21  N   UNL     1      -5.003   4.148   0.446  0.00  0.00    -0.127 NA
ATOM     22  C   UNL     1      -5.258   4.288   1.726  0.00  0.00    +0.182 A 
ATOM     23  N   UNL     1      -4.220   3.698   2.410  0.00  0.00    -0.224 N 
BRANCH  22  24
ATOM     24  C   UNL     1      -6.439   4.947   2.320  0.00  0.00    +0.021 A 
ATOM     25  C   UNL     1      -6.441   5.296   3.672  0.00  0.00    +0.015 A 
ATOM     26  C   UNL     1      -7.543   5.915   4.222  0.00  0.00    +0.046 A 
ATOM     27  C   UNL     1      -8.655   6.183   3.435  0.00  0.00    +0.120 A 
ATOM     28  C   UNL     1      -8.660   5.833   2.091  0.00  0.00    +0.046 A 
ATOM     29  C   UNL     1      -7.560   5.218   1.533  0.00  0.00    +0.015 A 
BRANCH  27  30
ATOM     30  O   UNL     1      -9.742   6.789   3.981  0.00  0.00    -0.495 OA
ATOM     31  C   UNL     1      -9.669   7.121   5.369  0.00  0.00    +0.277 C 
ENDBRANCH  27  30
ENDBRANCH  22  24
BRANCH  23  32
ATOM     32  N   UNL     1      -4.072   3.604   3.765  0.00  0.00    -0.295 N 
ATOM     33  H   UNL     1      -4.837   4.027   4.432  0.00  0.00    +0.163 HD
ATOM     34  H   UNL     1      -3.187   3.106   4.189  0.00  0.00    +0.163 HD
ENDBRANCH  23  32
ENDBRANCH  18  19
ENDBRANCH   1  18
TORSDOF 10
