REMARK  Name = ZINC40784100
REMARK  7 active torsions:
REMARK  status: ('A' for Active; 'I' for Inactive)
REMARK    1  A    between atoms: C_3  and  C_6
REMARK    2  A    between atoms: C_6  and  C_7
REMARK    3  A    between atoms: C_7  and  N_8
REMARK    4  A    between atoms: C_10  and  N_24
REMARK    5  A    between atoms: C_11  and  N_15
REMARK    6  A    between atoms: N_15  and  C_16
REMARK    7  A    between atoms: C_16  and  C_17
REMARK                            x       y       z     vdW  Elec       q    Type
REMARK                         _______ _______ _______ _____ _____    ______ ____
ROOT
ATOM      1  N   UNL     1       5.633   2.506   1.403  0.00  0.00    -0.327 N 
ATOM      2  C   UNL     1       6.299   2.735   2.602  0.00  0.00    +0.145 A 
ATOM      3  C   UNL     1       7.611   3.212   2.604  0.00  0.00    +0.105 A 
ATOM      4  C   UNL     1       8.233   3.426   3.835  0.00  0.00    +0.145 A 
ATOM      5  N   UNL     1       7.556   3.167   4.952  0.00  0.00    -0.219 NA
ATOM      6  C   UNL     1       6.319   2.717   4.906  0.00  0.00    +0.225 A 
ATOM      7  N   UNL     1       5.694   2.507   3.765  0.00  0.00    -0.219 NA
ATOM      8  H   UNL     1       6.082   2.674   0.560  0.00  0.00    +0.148 HD
ENDROOT
BRANCH   3   9
ATOM      9  N   UNL     1       8.287   3.471   1.400  0.00  0.00    -0.353 N 
ATOM     10  H   UNL     1       7.842   3.318   0.552  0.00  0.00    +0.143 HD
ATOM     11  H   UNL     1       9.198   3.803   1.417  0.00  0.00    +0.143 HD
ENDBRANCH   3   9
BRANCH   4  12
ATOM     12  N   UNL     1       9.538   3.900   3.894  0.00  0.00    -0.323 N 
ATOM     13  H   UNL     1      10.024   4.085   3.075  0.00  0.00    +0.148 HD
BRANCH  12  14
ATOM     14  C   UNL     1      10.180   4.119   5.192  0.00  0.00    +0.138 C 
BRANCH  14  15
ATOM     15  C   UNL     1      11.581   4.631   4.980  0.00  0.00    -0.030 A 
ATOM     16  C   UNL     1      12.632   3.740   4.865  0.00  0.00    +0.006 A 
ATOM     17  C   UNL     1      13.917   4.209   4.670  0.00  0.00    +0.020 A 
ATOM     18  C   UNL     1      14.152   5.570   4.590  0.00  0.00    +0.041 A 
ATOM     19  C   UNL     1      13.100   6.461   4.705  0.00  0.00    +0.020 A 
ATOM     20  C   UNL     1      11.814   5.991   4.894  0.00  0.00    +0.006 A 
ATOM     21 CL   UNL     1      15.767   6.160   4.346  0.00  0.00    -0.084 Cl
ENDBRANCH  14  15
ENDBRANCH  12  14
ENDBRANCH   4  12
BRANCH   1  22
ATOM     22  C   UNL     1       4.255   2.011   1.414  0.00  0.00    +0.108 C 
BRANCH  22  23
ATOM     23  C   UNL     1       3.761   1.845  -0.024  0.00  0.00    +0.061 C 
BRANCH  23  26
ATOM     24  C   UNL     1      -0.016   1.351   0.009  0.00  0.00    +0.008 A 
ATOM     25  C   UNL     1       1.183   2.038   0.002  0.00  0.00    +0.011 A 
ATOM     26  C   UNL     1       2.343   1.336  -0.013  0.00  0.00    -0.009 A 
ATOM     27  S   UNL     1       1.754  -0.349  -0.017  0.00  0.00    -0.102 S 
ATOM     28  C   UNL     1       0.002  -0.004   0.002  0.00  0.00    +0.045 A 
ENDBRANCH  23  26
ENDBRANCH  22  23
ENDBRANCH   1  22
TORSDOF 7
