REMARK  Name = ZINC36502093
REMARK  15 active torsions:
REMARK  status: ('A' for Active; 'I' for Inactive)
REMARK    1  A    between atoms: C_1  and  C_2
REMARK    2  A    between atoms: C_2  and  C_3
REMARK    3  A    between atoms: C_2  and  C_4
REMARK    4  A    between atoms: C_2  and  C_5
REMARK    5  A    between atoms: C_5  and  C_6
REMARK    6  A    between atoms: C_6  and  C_7
REMARK    7  A    between atoms: C_6  and  C_8
REMARK    8  A    between atoms: C_6  and  N_9
REMARK    9  A    between atoms: C_10  and  C_12
REMARK   10  A    between atoms: C_12  and  C_14
REMARK   11  A    between atoms: C_12  and  N_20
REMARK   12  A    between atoms: N_20  and  C_21
REMARK   13  A    between atoms: C_21  and  C_22
REMARK   14  A    between atoms: C_27  and  C_29
REMARK   15  A    between atoms: C_29  and  C_30
REMARK                            x       y       z     vdW  Elec       q    Type
REMARK                         _______ _______ _______ _____ _____    ______ ____
ROOT
ATOM      1  C   UNL     1       5.197  -0.591  -4.202  0.00  0.00    +0.193 C 
ENDROOT
BRANCH   1   2
ATOM      2  C   UNL     1       5.719  -1.948  -4.597  0.00  0.00    -0.018 A 
ATOM      3  C   UNL     1       6.862  -2.450  -4.002  0.00  0.00    +0.006 A 
ATOM      4  C   UNL     1       7.341  -3.694  -4.365  0.00  0.00    +0.000 A 
ATOM      5  C   UNL     1       6.678  -4.438  -5.323  0.00  0.00    +0.000 A 
ATOM      6  C   UNL     1       5.535  -3.937  -5.918  0.00  0.00    +0.000 A 
ATOM      7  C   UNL     1       5.053  -2.694  -5.552  0.00  0.00    +0.006 A 
ENDBRANCH   1   2
BRANCH   1   9
ATOM      8  N   UNL     1       3.695  -1.698  -2.577  0.00  0.00    -0.308 N 
ATOM      9  C   UNL     1       4.537  -0.682  -2.849  0.00  0.00    +0.239 C 
ATOM     10  O   UNL     1       4.765   0.160  -2.006  0.00  0.00    -0.273 OA
ATOM     11  H   UNL     1       3.513  -2.371  -3.251  0.00  0.00    +0.149 HD
BRANCH   8  12
ATOM     12  C   UNL     1       3.054  -1.786  -1.262  0.00  0.00    +0.030 C 
ATOM     13  C   UNL     1       2.480  -0.419  -0.882  0.00  0.00    +0.031 C 
ATOM     14  C   UNL     1       4.088  -2.213  -0.219  0.00  0.00    +0.031 C 
BRANCH  12  15
ATOM     15  C   UNL     1       1.925  -2.817  -1.313  0.00  0.00    +0.031 C 
BRANCH  15  17
ATOM     16  C   UNL     1       1.799  -3.243  -3.772  0.00  0.00    +0.010 C 
ATOM     17  C   UNL     1       1.092  -2.599  -2.578  0.00  0.00    -0.036 C 
ATOM     18  C   UNL     1       0.930  -1.099  -2.830  0.00  0.00    +0.010 C 
ATOM     19  C   UNL     1      -0.287  -3.237  -2.397  0.00  0.00    +0.010 C 
ENDBRANCH  15  17
ENDBRANCH  12  15
ENDBRANCH   8  12
ENDBRANCH   1   9
BRANCH   1  20
ATOM     20  N   UNL     1       6.308   0.361  -4.140  0.00  0.00    -0.278 N 
ATOM     21  C   UNL     1       6.888   0.794  -5.277  0.00  0.00    +0.221 C 
ATOM     22  O   UNL     1       6.490   0.394  -6.351  0.00  0.00    -0.275 OA
BRANCH  20  23
ATOM     23  C   UNL     1       6.788   0.844  -2.843  0.00  0.00    +0.183 C 
BRANCH  23  24
ATOM     24  C   UNL     1       7.441  -0.290  -2.096  0.00  0.00    +0.122 A 
ATOM     25  C   UNL     1       8.720  -0.685  -2.225  0.00  0.00    +0.046 A 
ATOM     26  C   UNL     1       8.904  -1.775  -1.343  0.00  0.00    +0.041 A 
ATOM     27  C   UNL     1       7.726  -1.981  -0.727  0.00  0.00    +0.195 A 
ATOM     28  O   UNL     1       6.845  -1.075  -1.183  0.00  0.00    -0.466 OA
ENDBRANCH  23  24
ENDBRANCH  20  23
BRANCH  21  29
ATOM     29  C   UNL     1       8.031   1.774  -5.214  0.00  0.00    +0.131 C 
BRANCH  29  30
ATOM     30  C   UNL     1       8.496   2.093  -6.612  0.00  0.00    -0.035 A 
ATOM     31  C   UNL     1       9.483   1.326  -7.203  0.00  0.00    +0.008 A 
ATOM     32  C   UNL     1       9.912   1.615  -8.485  0.00  0.00    +0.050 A 
ATOM     33  C   UNL     1       9.355   2.675  -9.180  0.00  0.00    +0.166 A 
ATOM     34  C   UNL     1       8.361   3.449  -8.585  0.00  0.00    +0.166 A 
ATOM     35  C   UNL     1       7.932   3.150  -7.302  0.00  0.00    +0.053 A 
ATOM     36  O   UNL     1       7.980   4.421  -9.463  0.00  0.00    -0.453 OA
ATOM     37  C   UNL     1       9.033   4.488 -10.443  0.00  0.00    +0.466 C 
ATOM     38  O   UNL     1       9.596   3.163 -10.432  0.00  0.00    -0.453 OA
ENDBRANCH  29  30
ENDBRANCH  21  29
ENDBRANCH   1  20
TORSDOF 10
