REMARK  Name = ZINC34749240
REMARK  10 active torsions:
REMARK  status: ('A' for Active; 'I' for Inactive)
REMARK    1  A    between atoms: C_1  and  C_2
REMARK    2  A    between atoms: C_2  and  C_3
REMARK    3  A    between atoms: C_4  and  C_36
REMARK    4  A    between atoms: N_10  and  C_28
REMARK    5  A    between atoms: N_16  and  C_19
REMARK    6  A    between atoms: C_19  and  C_20
REMARK    7  A    between atoms: C_20  and  C_21
REMARK    8  A    between atoms: C_21  and  C_22
REMARK    9  A    between atoms: C_28  and  C_29
REMARK   10  A    between atoms: C_29  and  C_30
REMARK                            x       y       z     vdW  Elec       q    Type
REMARK                         _______ _______ _______ _____ _____    ______ ____
ROOT
ATOM      1  C   UNL     1       0.733  -0.442  -1.186  0.00  0.00    -0.023 A 
ATOM      2  C   UNL     1       0.019  -0.628  -2.306  0.00  0.00    -0.007 A 
ATOM      3  S   UNL     1       1.239  -1.165  -3.490  0.00  0.00    -0.073 S 
ATOM      4  C   UNL     1       2.673  -1.124  -2.445  0.00  0.00    +0.117 A 
ATOM      5  C   UNL     1       2.164  -0.688  -1.207  0.00  0.00    +0.076 A 
ATOM      6  C   UNL     1       3.122  -0.556  -0.153  0.00  0.00    +0.264 A 
ATOM      7  O   UNL     1       2.773  -0.189   0.956  0.00  0.00    -0.267 OA
ATOM      8  N   UNL     1       4.413  -0.842  -0.401  0.00  0.00    -0.280 N 
ATOM      9  C   UNL     1       4.822  -1.254  -1.635  0.00  0.00    +0.202 A 
ATOM     10  N   UNL     1       3.961  -1.394  -2.621  0.00  0.00    -0.208 NA
ATOM     11  N   UNL     1       6.149  -1.536  -1.849  0.00  0.00    -0.304 N 
ATOM     12  C   UNL     1       6.662  -2.907  -1.711  0.00  0.00    +0.089 C 
ATOM     13  C   UNL     1       7.465  -3.255  -2.969  0.00  0.00    -0.060 C 
ATOM     14  N   UNL     1       8.503  -2.237  -3.182  0.00  0.00    +0.382 N 
ATOM     15  C   UNL     1       7.879  -0.937  -3.458  0.00  0.00    -0.060 C 
ATOM     16  C   UNL     1       7.095  -0.476  -2.230  0.00  0.00    +0.089 C 
ATOM     17  C   UNL     1      -1.461  -0.431  -2.514  0.00  0.00    +0.052 C 
ATOM     18  H   UNL     1       9.076  -2.165  -2.355  0.00  0.00    -0.082 HD
ENDROOT
BRANCH   1  20
ATOM     19  C   UNL     1       0.060   1.552   0.125  0.00  0.00    +0.009 C 
ATOM     20  C   UNL     1       0.058   0.023   0.079  0.00  0.00    +0.033 C 
ENDBRANCH   1  20
BRANCH  14  21
ATOM     21  C   UNL     1       9.342  -2.628  -4.323  0.00  0.00    -0.078 C 
BRANCH  21  22
ATOM     22  C   UNL     1      10.497  -1.636  -4.470  0.00  0.00    -0.014 C 
BRANCH  22  23
ATOM     23  C   UNL     1      11.371  -2.043  -5.658  0.00  0.00    +0.033 C 
BRANCH  23  24
ATOM     24  C   UNL     1      12.509  -1.066  -5.802  0.00  0.00    -0.047 A 
ATOM     25  C   UNL     1      12.357   0.060  -6.589  0.00  0.00    +0.003 A 
ATOM     26  C   UNL     1      13.402   0.957  -6.722  0.00  0.00    +0.000 A 
ATOM     27  C   UNL     1      14.597   0.727  -6.067  0.00  0.00    +0.000 A 
ATOM     28  C   UNL     1      14.748  -0.399  -5.279  0.00  0.00    +0.000 A 
ATOM     29  C   UNL     1      13.703  -1.293  -5.143  0.00  0.00    +0.003 A 
ENDBRANCH  23  24
ENDBRANCH  22  23
ENDBRANCH  21  22
ENDBRANCH  14  21
BRANCH   8  30
ATOM     30  C   UNL     1       5.398  -0.708   0.675  0.00  0.00    +0.133 C 
BRANCH  30  31
ATOM     31  C   UNL     1       5.412  -1.987   1.515  0.00  0.00    +0.057 C 
BRANCH  31  32
ATOM     32  C   UNL     1       6.337  -1.805   2.691  0.00  0.00    -0.046 A 
ATOM     33  C   UNL     1       7.652  -2.226   2.608  0.00  0.00    +0.004 A 
ATOM     34  C   UNL     1       8.500  -2.059   3.686  0.00  0.00    +0.000 A 
ATOM     35  C   UNL     1       8.035  -1.471   4.848  0.00  0.00    +0.000 A 
ATOM     36  C   UNL     1       6.721  -1.049   4.930  0.00  0.00    +0.000 A 
ATOM     37  C   UNL     1       5.873  -1.212   3.850  0.00  0.00    +0.004 A 
ENDBRANCH  31  32
ENDBRANCH  30  31
ENDBRANCH   8  30
TORSDOF 8
