REMARK  Name = ZINC34757507
REMARK  7 active torsions:
REMARK  status: ('A' for Active; 'I' for Inactive)
REMARK    1  A    between atoms: C_1  and  C_2
REMARK    2  A    between atoms: C_2  and  C_3
REMARK    3  A    between atoms: C_3  and  C_4
REMARK    4  A    between atoms: C_4  and  N_5
REMARK    5  A    between atoms: C_18  and  S_20
REMARK    6  A    between atoms: S_20  and  C_21
REMARK    7  A    between atoms: C_21  and  C_22
REMARK                            x       y       z     vdW  Elec       q    Type
REMARK                         _______ _______ _______ _____ _____    ______ ____
ROOT
ATOM      1  N   UNL     1      -3.920  -1.680   0.149  0.00  0.00    +0.382 N 
ATOM      2  C   UNL     1      -5.320  -2.020   0.430  0.00  0.00    -0.060 C 
ATOM      3  C   UNL     1      -5.489  -3.543   0.406  0.00  0.00    +0.088 C 
ATOM      4  N   UNL     1      -4.988  -4.048  -0.882  0.00  0.00    -0.318 N 
ATOM      5  C   UNL     1      -3.650  -3.621  -1.320  0.00  0.00    +0.088 C 
ATOM      6  C   UNL     1      -3.568  -2.095  -1.215  0.00  0.00    -0.060 C 
ATOM      7  C   UNL     1      -5.753  -4.899  -1.658  0.00  0.00    +0.134 A 
ATOM      8  C   UNL     1      -5.718  -6.304  -1.435  0.00  0.00    +0.051 A 
ATOM      9  C   UNL     1      -4.938  -7.051  -0.433  0.00  0.00    -0.025 A 
ATOM     10  C   UNL     1      -5.080  -8.386  -0.426  0.00  0.00    -0.004 A 
ATOM     11  S   UNL     1      -6.244  -8.735  -1.725  0.00  0.00    -0.073 S 
ATOM     12  C   UNL     1      -6.535  -7.077  -2.279  0.00  0.00    +0.115 A 
ATOM     13  N   UNL     1      -7.281  -6.522  -3.216  0.00  0.00    -0.215 NA
ATOM     14  C   UNL     1      -7.275  -5.206  -3.381  0.00  0.00    +0.191 A 
ATOM     15  N   UNL     1      -6.531  -4.418  -2.614  0.00  0.00    -0.206 NA
ATOM     16  C   UNL     1      -4.234  -9.042   0.632  0.00  0.00    +0.043 C 
ATOM     17  C   UNL     1      -3.197  -7.966   1.022  0.00  0.00    +0.010 C 
ATOM     18  C   UNL     1      -3.949  -6.666   0.670  0.00  0.00    +0.037 C 
ATOM     19  H   UNL     1      -3.322  -2.154   0.808  0.00  0.00    -0.082 HD
ENDROOT
BRANCH   1  20
ATOM     20  C   UNL     1      -3.735  -0.228   0.280  0.00  0.00    -0.079 C 
BRANCH  20  21
ATOM     21  C   UNL     1      -3.981   0.188   1.731  0.00  0.00    -0.019 C 
BRANCH  21  23
ATOM     22  C   UNL     1      -4.034   2.116   3.319  0.00  0.00    +0.004 C 
ATOM     23  C   UNL     1      -3.788   1.700   1.868  0.00  0.00    -0.005 C 
ENDBRANCH  21  23
ENDBRANCH  20  21
ENDBRANCH   1  20
BRANCH  14  24
ATOM     24  S   UNL     1      -8.279  -4.489  -4.638  0.00  0.00    -0.081 S 
BRANCH  24  25
ATOM     25  C   UNL     1      -9.102  -5.911  -5.408  0.00  0.00    +0.112 C 
BRANCH  25  26
ATOM     26  C   UNL     1     -10.004  -5.431  -6.516  0.00  0.00    -0.037 A 
ATOM     27  C   UNL     1     -11.319  -5.103  -6.243  0.00  0.00    +0.005 A 
ATOM     28  C   UNL     1     -12.146  -4.662  -7.259  0.00  0.00    +0.015 A 
ATOM     29  C   UNL     1     -11.658  -4.548  -8.548  0.00  0.00    +0.018 A 
ATOM     30  C   UNL     1     -10.341  -4.876  -8.820  0.00  0.00    +0.015 A 
ATOM     31  C   UNL     1      -9.514  -5.312  -7.803  0.00  0.00    +0.005 A 
ATOM     32 BR   UNL     1     -12.789  -3.946  -9.938  0.00  0.00    -0.050 Br
ENDBRANCH  25  26
ENDBRANCH  24  25
ENDBRANCH  14  24
TORSDOF 6
