REMARK  Name = ZINC21364823
REMARK  13 active torsions:
REMARK  status: ('A' for Active; 'I' for Inactive)
REMARK    1  A    between atoms: C_1  and  C_2
REMARK    2  A    between atoms: C_2  and  C_3
REMARK    3  A    between atoms: C_3  and  C_4
REMARK    4  A    between atoms: C_4  and  N_5
REMARK    5  A    between atoms: N_5  and  C_6
REMARK    6  A    between atoms: N_5  and  C_8
REMARK    7  A    between atoms: C_6  and  C_7
REMARK    8  A    between atoms: C_8  and  C_9
REMARK    9  A    between atoms: C_9  and  N_10
REMARK   10  A    between atoms: C_16  and  C_31
REMARK   11  A    between atoms: C_19  and  C_20
REMARK   12  A    between atoms: C_19  and  C_21
REMARK   13  A    between atoms: N_23  and  C_24
REMARK                            x       y       z     vdW  Elec       q    Type
REMARK                         _______ _______ _______ _____ _____    ______ ____
ROOT
ATOM      1  N   UNL     1       3.890   1.333   5.405  0.00  0.00    -0.282 N 
ATOM      2  C   UNL     1       4.220   1.516   6.705  0.00  0.00    +0.264 C 
ATOM      3  O   UNL     1       4.347   0.580   7.472  0.00  0.00    -0.268 OA
ATOM      4  C   UNL     1       4.415   2.903   7.140  0.00  0.00    +0.105 A 
ATOM      5  C   UNL     1       4.913   3.414   8.306  0.00  0.00    +0.033 A 
ATOM      6  C   UNL     1       4.882   4.805   8.199  0.00  0.00    +0.032 A 
ATOM      7  C   UNL     1       4.350   5.121   6.958  0.00  0.00    +0.085 A 
ATOM      8  N   UNL     1       4.052   3.965   6.317  0.00  0.00    -0.331 N 
ATOM      9  C   UNL     1       3.445   3.744   5.001  0.00  0.00    +0.157 C 
ATOM     10  C   UNL     1       3.952   2.418   4.433  0.00  0.00    +0.128 C 
ATOM     11  C   UNL     1       5.404   2.598   3.984  0.00  0.00    +0.043 C 
ENDROOT
BRANCH   7  12
ATOM     12  C   UNL     1       4.144   6.477   6.429  0.00  0.00    +0.151 A 
ATOM     13  C   UNL     1       4.526   7.639   7.033  0.00  0.00    +0.051 A 
ATOM     14  C   UNL     1       4.136   8.686   6.178  0.00  0.00    +0.042 A 
ATOM     15  C   UNL     1       3.534   8.123   5.110  0.00  0.00    +0.196 A 
ATOM     16  O   UNL     1       3.541   6.790   5.265  0.00  0.00    -0.461 OA
ENDBRANCH   7  12
BRANCH  10  17
ATOM     17  C   UNL     1       3.115   2.049   3.236  0.00  0.00    +0.238 C 
ATOM     18  O   UNL     1       3.561   2.189   2.117  0.00  0.00    -0.273 OA
ATOM     19  N   UNL     1       1.869   1.564   3.408  0.00  0.00    -0.311 N 
ATOM     20  H   UNL     1       1.505   1.332   4.420  0.00  0.00    +0.149 HD
BRANCH  19  21
ATOM     21  C   UNL     1       1.001   1.344   2.249  0.00  0.00    +0.073 C 
ATOM     22  C   UNL     1       1.271  -0.017   1.666  0.00  0.00    +0.022 C 
ATOM     23  C   UNL     1       1.112  -0.045   0.134  0.00  0.00    +0.002 C 
ATOM     24  C   UNL     1      -0.114   0.751  -0.353  0.00  0.00    +0.000 C 
ATOM     25  C   UNL     1      -1.324   0.532   0.514  0.00  0.00    +0.000 C 
ATOM     26  C   UNL     1      -1.377   1.653   1.573  0.00  0.00    +0.002 C 
ATOM     27  C   UNL     1      -0.476   1.405   2.688  0.00  0.00    +0.022 C 
ENDBRANCH  19  21
ENDBRANCH  10  17
BRANCH   1  28
ATOM     28  C   UNL     1       3.458   0.005   4.961  0.00  0.00    +0.091 C 
BRANCH  28  29
ATOM     29  C   UNL     1       4.680  -0.813   4.538  0.00  0.00    -0.060 C 
BRANCH  29  30
ATOM     30  N   UNL     1       4.247  -2.146   4.096  0.00  0.00    +0.381 N 
ATOM     31  H   UNL     1       3.428  -2.013   3.374  0.00  0.00    -0.082 HD
BRANCH  30  32
ATOM     32  C   UNL     1       3.732  -2.933   5.224  0.00  0.00    -0.082 C 
ATOM     33  C   UNL     1       4.818  -3.064   6.293  0.00  0.00    -0.017 C 
ENDBRANCH  30  32
BRANCH  30  34
ATOM     34  C   UNL     1       5.339  -2.854   3.415  0.00  0.00    -0.079 C 
BRANCH  34  35
ATOM     35  C   UNL     1       4.791  -4.121   2.754  0.00  0.00    -0.019 C 
BRANCH  35  37
ATOM     36  C   UNL     1       5.380  -6.126   1.384  0.00  0.00    +0.004 C 
ATOM     37  C   UNL     1       5.928  -4.859   2.045  0.00  0.00    -0.005 C 
ENDBRANCH  35  37
ENDBRANCH  34  35
ENDBRANCH  30  34
ENDBRANCH  29  30
ENDBRANCH  28  29
ENDBRANCH   1  28
TORSDOF 10
