REMARK  Name = ZINC27671378
REMARK  6 active torsions:
REMARK  status: ('A' for Active; 'I' for Inactive)
REMARK    1  A    between atoms: C_1  and  C_2
REMARK    2  A    between atoms: C_2  and  C_4
REMARK    3  A    between atoms: C_2  and  S_16
REMARK    4  A    between atoms: C_4  and  C_6
REMARK    5  A    between atoms: S_16  and  C_17
REMARK    6  A    between atoms: C_19  and  C_22
REMARK                            x       y       z     vdW  Elec       q    Type
REMARK                         _______ _______ _______ _____ _____    ______ ____
ROOT
ATOM      1  C   UNL     1       1.668   2.342   1.436  0.00  0.00    +0.028 C 
ATOM      2  C   UNL     1       1.280   1.981   0.001  0.00  0.00    +0.122 C 
ENDROOT
BRANCH   2   3
ATOM      3  C   UNL     1      -0.014   1.210   0.009  0.00  0.00    +0.178 C 
ATOM      4  O   UNL     1       0.002  -0.004   0.002  0.00  0.00    -0.291 OA
BRANCH   3   5
ATOM      5  C   UNL     1      -1.251   1.902   0.018  0.00  0.00    +0.043 A 
ATOM      6  C   UNL     1      -1.436   3.268   0.026  0.00  0.00    +0.095 A 
ATOM      7  N   UNL     1      -2.753   3.546   0.034  0.00  0.00    -0.360 N 
ATOM      8  H   UNL     1      -3.094   4.592   0.041  0.00  0.00    +0.165 HD
ATOM      9  C   UNL     1      -3.498   2.384   0.032  0.00  0.00    +0.047 A 
ATOM     10  C   UNL     1      -2.601   1.304   0.015  0.00  0.00    +0.010 A 
ATOM     11  C   UNL     1      -3.080  -0.002   0.017  0.00  0.00    +0.011 A 
ATOM     12  C   UNL     1      -4.439  -0.231   0.022  0.00  0.00    +0.001 A 
ATOM     13  C   UNL     1      -5.327   0.835   0.032  0.00  0.00    +0.002 A 
ATOM     14  C   UNL     1      -4.866   2.133   0.037  0.00  0.00    +0.026 A 
ENDBRANCH   3   5
ENDBRANCH   2   3
BRANCH   2  15
ATOM     15  S   UNL     1       2.583   0.965  -0.739  0.00  0.00    -0.075 S 
BRANCH  15  16
ATOM     16  C   UNL     1       3.905   2.130  -0.760  0.00  0.00    +0.185 A 
ATOM     17  N   UNL     1       5.170   1.911  -1.224  0.00  0.00    -0.201 NA
ATOM     18  C   UNL     1       5.844   3.096  -1.040  0.00  0.00    +0.182 A 
ATOM     19  N   UNL     1       4.999   3.938  -0.490  0.00  0.00    -0.152 NA
ATOM     20  N   UNL     1       3.856   3.372  -0.334  0.00  0.00    -0.253 N 
ATOM     21  H   UNL     1       3.019   3.936   0.105  0.00  0.00    +0.191 HD
BRANCH  18  22
ATOM     22  C   UNL     1       7.253   3.371  -1.394  0.00  0.00    +0.021 A 
ATOM     23  C   UNL     1       8.041   2.368  -1.961  0.00  0.00    +0.013 A 
ATOM     24  C   UNL     1       9.354   2.632  -2.293  0.00  0.00    +0.021 A 
ATOM     25  C   UNL     1       9.892   3.885  -2.056  0.00  0.00    +0.041 A 
ATOM     26  C   UNL     1       9.117   4.882  -1.489  0.00  0.00    +0.021 A 
ATOM     27  C   UNL     1       7.802   4.632  -1.157  0.00  0.00    +0.013 A 
ATOM     28 CL   UNL     1      11.547   4.207  -2.471  0.00  0.00    -0.084 Cl
ENDBRANCH  18  22
ENDBRANCH  15  16
ENDBRANCH   2  15
TORSDOF 5
