REMARK  Name = ZINC06334886
REMARK  4 active torsions:
REMARK  status: ('A' for Active; 'I' for Inactive)
REMARK    1  A    between atoms: C_3  and  C_6
REMARK    2  A    between atoms: C_9  and  C_21
REMARK    3  A    between atoms: C_13  and  C_16
REMARK    4  A    between atoms: N_18  and  N_19
REMARK                            x       y       z     vdW  Elec       q    Type
REMARK                         _______ _______ _______ _____ _____    ______ ____
ROOT
ATOM      1  C   UNL     1       3.791  -0.395  -0.036  0.00  0.00    +0.111 C 
ATOM      2  C   UNL     1       4.341  -0.310  -1.464  0.00  0.00    +0.063 C 
ATOM      3  C   UNL     1       4.101   1.107  -2.003  0.00  0.00    +0.215 C 
ATOM      4  N   UNL     1       4.514   2.059  -0.963  0.00  0.00    -0.238 N 
ATOM      5  C   UNL     1       4.730   1.723   0.328  0.00  0.00    +0.130 A 
ATOM      6  C   UNL     1       5.102   2.882   0.996  0.00  0.00    +0.097 A 
ATOM      7  C   UNL     1       5.098   3.928   0.040  0.00  0.00    +0.149 A 
ATOM      8  N   UNL     1       4.750   3.426  -1.113  0.00  0.00    -0.177 NA
ATOM      9  N   UNL     1       4.597   0.456   0.853  0.00  0.00    -0.321 N 
ATOM     10  H   UNL     1       4.199   0.489   1.780  0.00  0.00    +0.148 HD
ENDROOT
BRANCH   1  13
ATOM     11  C   UNL     1       0.002  -0.004   0.002  0.00  0.00    +0.008 A 
ATOM     12  C   UNL     1       1.220  -0.658  -0.013  0.00  0.00    +0.013 A 
ATOM     13  C   UNL     1       2.360   0.076  -0.020  0.00  0.00    +0.010 A 
ATOM     14  S   UNL     1       1.725   1.744  -0.005  0.00  0.00    -0.100 S 
ATOM     15  C   UNL     1      -0.016   1.351   0.009  0.00  0.00    +0.045 A 
ENDBRANCH   1  13
BRANCH   6  16
ATOM     16  C   UNL     1       5.435   3.002   2.420  0.00  0.00    +0.262 C 
ATOM     17  O   UNL     1       5.398   2.020   3.138  0.00  0.00    -0.269 OA
ATOM     18  N   UNL     1       5.781   4.199   2.933  0.00  0.00    -0.249 N 
ATOM     19  H   UNL     1       5.810   4.982   2.361  0.00  0.00    +0.169 HD
BRANCH  18  20
ATOM     20  N   UNL     1       6.090   4.310   4.259  0.00  0.00    -0.254 NA
ATOM     21  H   UNL     1       6.835   3.678   4.511  0.00  0.00    +0.140 HD
ATOM     22  H   UNL     1       6.328   5.262   4.497  0.00  0.00    +0.140 HD
ENDBRANCH  18  20
ENDBRANCH   6  16
BRANCH   3  23
ATOM     23  C   UNL     1       4.934   1.328  -3.268  0.00  0.00    +0.412 C 
ATOM     24  F   UNL     1       4.562   0.394  -4.240  0.00  0.00    -0.168 F 
ATOM     25  F   UNL     1       4.711   2.621  -3.753  0.00  0.00    -0.168 F 
ATOM     26  F   UNL     1       6.291   1.171  -2.966  0.00  0.00    -0.168 F 
ENDBRANCH   3  23
TORSDOF 4
