REMARK  Name = ZINC36396930
REMARK  8 active torsions:
REMARK  status: ('A' for Active; 'I' for Inactive)
REMARK    1  A    between atoms: C_1  and  C_2
REMARK    2  A    between atoms: C_2  and  C_3
REMARK    3  A    between atoms: C_2  and  C_4
REMARK    4  A    between atoms: C_7  and  N_10
REMARK    5  A    between atoms: C_11  and  C_13
REMARK    6  A    between atoms: C_13  and  C_14
REMARK    7  A    between atoms: C_14  and  C_16
REMARK    8  A    between atoms: C_14  and  N_23
REMARK                            x       y       z     vdW  Elec       q    Type
REMARK                         _______ _______ _______ _____ _____    ______ ____
ROOT
ATOM      1  C   UNL     1      -7.507  -3.852  -2.345  0.00  0.00    +0.113 C 
ENDROOT
BRANCH   1   2
ATOM      2  C   UNL     1      -8.884  -4.452  -2.231  0.00  0.00    -0.027 A 
ATOM      3  C   UNL     1      -9.993  -3.714  -2.603  0.00  0.00    +0.006 A 
ATOM      4  C   UNL     1     -11.256  -4.264  -2.499  0.00  0.00    +0.015 A 
ATOM      5  C   UNL     1     -11.412  -5.554  -2.023  0.00  0.00    +0.018 A 
ATOM      6  C   UNL     1     -10.303  -6.292  -1.652  0.00  0.00    +0.015 A 
ATOM      7  C   UNL     1      -9.039  -5.743  -1.761  0.00  0.00    +0.006 A 
ATOM      8 BR   UNL     1     -13.140  -6.307  -1.880  0.00  0.00    -0.050 Br
ENDBRANCH   1   2
BRANCH   1   9
ATOM      9  N   UNL     1      -7.448  -2.984  -3.524  0.00  0.00    -0.292 N 
ATOM     10  C   UNL     1      -7.088  -3.494  -4.718  0.00  0.00    +0.298 C 
ATOM     11  O   UNL     1      -6.900  -4.689  -4.838  0.00  0.00    -0.253 OA
ATOM     12  N   UNL     1      -6.935  -2.679  -5.780  0.00  0.00    -0.313 N 
ATOM     13  H   UNL     1      -7.669  -2.043  -3.445  0.00  0.00    +0.151 HD
ATOM     14  H   UNL     1      -7.085  -1.725  -5.685  0.00  0.00    +0.146 HD
ATOM     15  H   UNL     1      -6.675  -3.045  -6.640  0.00  0.00    +0.146 HD
ENDBRANCH   1   9
BRANCH   1  16
ATOM     16  C   UNL     1      -7.204  -3.029  -1.091  0.00  0.00    +0.123 C 
BRANCH  16  18
ATOM     17  N   UNL     1      -5.291  -1.779  -0.144  0.00  0.00    -0.285 N 
ATOM     18  C   UNL     1      -5.783  -2.531  -1.149  0.00  0.00    +0.219 C 
ATOM     19  O   UNL     1      -5.082  -2.806  -2.099  0.00  0.00    -0.275 OA
ATOM     20  H   UNL     1      -5.830  -1.611   0.645  0.00  0.00    +0.155 HD
BRANCH  17  24
ATOM     21  C   UNL     1      -1.457  -0.175  -0.427  0.00  0.00    -0.045 A 
ATOM     22  C   UNL     1      -1.725  -1.421  -0.964  0.00  0.00    +0.006 A 
ATOM     23  C   UNL     1      -2.995  -1.955  -0.872  0.00  0.00    +0.023 A 
ATOM     24  C   UNL     1      -4.003  -1.240  -0.238  0.00  0.00    +0.033 A 
ATOM     25  C   UNL     1      -3.731   0.011   0.300  0.00  0.00    +0.023 A 
ATOM     26  C   UNL     1      -2.457   0.537   0.209  0.00  0.00    +0.006 A 
BRANCH  21  28
ATOM     27  C   UNL     1       0.925  -0.525   0.167  0.00  0.00    +0.012 C 
ATOM     28  C   UNL     1      -0.070   0.406  -0.529  0.00  0.00    +0.013 C 
ATOM     29  C   UNL     1       0.314   0.552  -2.003  0.00  0.00    +0.012 C 
ENDBRANCH  21  28
ENDBRANCH  17  24
ENDBRANCH  16  18
ENDBRANCH   1  16
TORSDOF 6
