REMARK  Name = ZINC40757396
REMARK  6 active torsions:
REMARK  status: ('A' for Active; 'I' for Inactive)
REMARK    1  A    between atoms: C_1  and  C_2
REMARK    2  A    between atoms: C_9  and  N_12
REMARK    3  A    between atoms: C_14  and  N_27
REMARK    4  A    between atoms: C_15  and  N_19
REMARK    5  A    between atoms: N_19  and  N_20
REMARK    6  A    between atoms: N_20  and  C_21
REMARK                            x       y       z     vdW  Elec       q    Type
REMARK                         _______ _______ _______ _____ _____    ______ ____
ROOT
ATOM      1  N   UNL     1       0.046  -1.962   3.622  0.00  0.00    -0.298 N 
ATOM      2  C   UNL     1      -0.044  -2.642   4.831  0.00  0.00    +0.126 A 
ATOM      3  C   UNL     1      -0.160  -1.941   6.032  0.00  0.00    +0.105 A 
ATOM      4  C   UNL     1      -0.247  -2.673   7.218  0.00  0.00    +0.161 A 
ATOM      5  N   UNL     1      -0.216  -4.002   7.158  0.00  0.00    -0.219 NA
ATOM      6  C   UNL     1      -0.106  -4.626   6.002  0.00  0.00    +0.200 A 
ATOM      7  N   UNL     1      -0.027  -3.973   4.861  0.00  0.00    -0.333 N 
ATOM      8  H   UNL     1       0.118  -0.995   3.614  0.00  0.00    +0.154 HD
ATOM      9  H   UNL     1       0.049  -4.469   4.030  0.00  0.00    +0.168 HD
ENDROOT
BRANCH   1  18
ATOM     10  C   UNL     1      -4.527  -3.970   3.295  0.00  0.00    +0.065 C 
ATOM     11  C   UNL     1      -3.312  -4.008   2.405  0.00  0.00    +0.039 A 
ATOM     12  C   UNL     1      -3.366  -4.727   1.213  0.00  0.00    +0.023 A 
ATOM     13  C   UNL     1      -2.273  -4.772   0.395  0.00  0.00    +0.012 A 
ATOM     14  C   UNL     1      -1.115  -4.079   0.794  0.00  0.00    +0.002 A 
ATOM     15  C   UNL     1       0.045  -4.080   0.003  0.00  0.00    +0.010 A 
ATOM     16  C   UNL     1       1.150  -3.399   0.415  0.00  0.00    +0.003 A 
ATOM     17  C   UNL     1       1.151  -2.696   1.616  0.00  0.00    +0.025 A 
ATOM     18  C   UNL     1       0.032  -2.670   2.420  0.00  0.00    +0.059 A 
ATOM     19  C   UNL     1      -1.129  -3.367   2.018  0.00  0.00    +0.092 A 
ATOM     20  N   UNL     1      -2.233  -3.359   2.770  0.00  0.00    -0.250 NA
ENDBRANCH   1  18
BRANCH   3  21
ATOM     21  N   UNL     1      -0.188  -0.537   6.048  0.00  0.00    -0.353 N 
ATOM     22  H   UNL     1      -0.126  -0.041   5.216  0.00  0.00    +0.143 HD
ATOM     23  H   UNL     1      -0.269  -0.063   6.890  0.00  0.00    +0.143 HD
ENDBRANCH   3  21
BRANCH   4  24
ATOM     24  N   UNL     1      -0.363  -2.024   8.441  0.00  0.00    -0.249 N 
ATOM     25  H   UNL     1      -0.385  -1.055   8.476  0.00  0.00    +0.172 HD
BRANCH  24  26
ATOM     26  N   UNL     1      -0.450  -2.770   9.624  0.00  0.00    -0.265 N 
ATOM     27  H   UNL     1      -0.428  -3.739   9.589  0.00  0.00    +0.170 HD
BRANCH  26  28
ATOM     28  C   UNL     1      -0.567  -2.118  10.854  0.00  0.00    +0.044 A 
ATOM     29  C   UNL     1      -0.603  -0.730  10.905  0.00  0.00    +0.024 A 
ATOM     30  C   UNL     1      -0.719  -0.089  12.123  0.00  0.00    +0.002 A 
ATOM     31  C   UNL     1      -0.798  -0.826  13.290  0.00  0.00    +0.000 A 
ATOM     32  C   UNL     1      -0.762  -2.208  13.242  0.00  0.00    +0.002 A 
ATOM     33  C   UNL     1      -0.652  -2.856  12.027  0.00  0.00    +0.024 A 
ENDBRANCH  26  28
ENDBRANCH  24  26
ENDBRANCH   4  24
TORSDOF 5
