REMARK  Name = ZINC12098185
REMARK  7 active torsions:
REMARK  status: ('A' for Active; 'I' for Inactive)
REMARK    1  A    between atoms: C_5  and  C_7
REMARK    2  A    between atoms: C_7  and  C_8
REMARK    3  A    between atoms: C_8  and  C_19
REMARK    4  A    between atoms: N_11  and  C_15
REMARK    5  A    between atoms: C_15  and  C_16
REMARK    6  A    between atoms: C_24  and  C_25
REMARK    7  A    between atoms: C_24  and  N_65
REMARK                            x       y       z     vdW  Elec       q    Type
REMARK                         _______ _______ _______ _____ _____    ______ ____
ROOT
ATOM      1  C   UNL     1       0.002  -0.004   0.002  0.00  0.00    +0.119 C 
ATOM      2  C   UNL     1       0.826  -0.520  -1.161  0.00  0.00    +0.247 C 
ATOM      3  O   UNL     1       0.618  -0.341  -2.342  0.00  0.00    -0.273 OA
ATOM      4  N   UNL     1       1.839  -1.218  -0.609  0.00  0.00    -0.224 N 
ATOM      5  C   UNL     1       1.769  -1.214   0.727  0.00  0.00    +0.309 C 
ATOM      6  O   UNL     1       2.571  -1.776   1.447  0.00  0.00    -0.252 OA
ATOM      7  N   UNL     1       0.713  -0.519   1.185  0.00  0.00    -0.284 N 
ATOM      8  H   UNL     1       0.466  -0.384   2.114  0.00  0.00    +0.151 HD
ENDROOT
BRANCH   1   9
ATOM      9  C   UNL     1      -0.019   1.526   0.010  0.00  0.00    +0.018 C 
ATOM     10  C   UNL     1      -0.752   2.034  -1.234  0.00  0.00    -0.013 C 
ATOM     11  C   UNL     1      -0.717   3.564  -1.251  0.00  0.00    -0.078 C 
ATOM     12  C   UNL     1       1.390   3.586  -0.053  0.00  0.00    -0.078 C 
ATOM     13  C   UNL     1       1.417   2.057  -0.000  0.00  0.00    -0.013 C 
ATOM     14  N   UNL     1       0.692   4.011  -1.286  0.00  0.00    +0.382 N 
ATOM     15  H   UNL     1       1.157   3.584  -2.095  0.00  0.00    -0.081 HD
BRANCH  14  16
ATOM     16  C   UNL     1       0.752   5.481  -1.418  0.00  0.00    -0.043 C 
BRANCH  16  17
ATOM     17  C   UNL     1       0.232   5.868  -2.778  0.00  0.00    -0.060 A 
ATOM     18  C   UNL     1      -1.111   6.149  -2.949  0.00  0.00    +0.005 A 
ATOM     19  C   UNL     1      -1.593   6.504  -4.195  0.00  0.00    +0.050 A 
ATOM     20  C   UNL     1      -0.731   6.580  -5.276  0.00  0.00    +0.166 A 
ATOM     21  C   UNL     1       0.622   6.297  -5.104  0.00  0.00    +0.166 A 
ATOM     22  C   UNL     1       1.099   5.946  -3.852  0.00  0.00    +0.051 A 
ATOM     23  O   UNL     1       1.254   6.441  -6.306  0.00  0.00    -0.453 OA
ATOM     24  C   UNL     1       0.208   6.416  -7.295  0.00  0.00    +0.466 C 
ATOM     25  O   UNL     1      -0.947   6.901  -6.585  0.00  0.00    -0.453 OA
ENDBRANCH  16  17
ENDBRANCH  14  16
ENDBRANCH   1   9
BRANCH   1  26
ATOM     26  C   UNL     1      -1.422  -0.560  -0.059  0.00  0.00    +0.072 C 
BRANCH  26  31
ATOM     27  C   UNL     1      -1.343  -4.221  -0.976  0.00  0.00    +0.000 A 
ATOM     28  C   UNL     1      -1.306  -4.818   0.271  0.00  0.00    +0.001 A 
ATOM     29  C   UNL     1      -1.306  -4.037   1.411  0.00  0.00    +0.020 A 
ATOM     30  C   UNL     1      -1.344  -2.658   1.305  0.00  0.00    +0.044 A 
ATOM     31  C   UNL     1      -1.381  -2.062   0.057  0.00  0.00    -0.027 A 
ATOM     32  C   UNL     1      -1.386  -2.844  -1.082  0.00  0.00    +0.005 A 
ATOM     33 CL   UNL     1      -1.345  -1.677   2.737  0.00  0.00    -0.083 Cl
ENDBRANCH  26  31
ENDBRANCH   1  26
BRANCH   4  34
ATOM     34  C   UNL     1       2.885  -1.896  -1.377  0.00  0.00    +0.121 C 
BRANCH  34  35
ATOM     35  C   UNL     1       4.054  -0.936  -1.607  0.00  0.00    +0.007 C 
ATOM     36  C   UNL     1       4.373  -0.544  -3.051  0.00  0.00    +0.005 C 
ATOM     37  C   UNL     1       5.303  -1.493  -2.292  0.00  0.00    +0.005 C 
ENDBRANCH  34  35
ENDBRANCH   4  34
TORSDOF 7
