REMARK  Name = ZINC35609773
REMARK  7 active torsions:
REMARK  status: ('A' for Active; 'I' for Inactive)
REMARK    1  A    between atoms: C_5  and  C_7
REMARK    2  A    between atoms: C_7  and  S_8
REMARK    3  A    between atoms: S_8  and  C_9
REMARK    4  A    between atoms: N_15  and  N_16
REMARK    5  A    between atoms: C_17  and  C_18
REMARK    6  A    between atoms: C_20  and  N_25
REMARK    7  A    between atoms: C_23  and  O_24
REMARK                            x       y       z     vdW  Elec       q    Type
REMARK                         _______ _______ _______ _____ _____    ______ ____
ROOT
ATOM      1  C   UNL     1       1.275  -4.452   1.517  0.00  0.00    +0.191 A 
ATOM      2  N   UNL     1       1.292  -5.368   2.531  0.00  0.00    -0.303 N 
ATOM      3  H   UNL     1       1.294  -5.184   3.483  0.00  0.00    +0.171 HD
ATOM      4  C   UNL     1       1.304  -6.602   1.929  0.00  0.00    +0.235 A 
ATOM      5  N   UNL     1       1.294  -6.399   0.599  0.00  0.00    -0.111 NA
ATOM      6  N   UNL     1       1.272  -5.136   0.356  0.00  0.00    -0.121 NA
ATOM      7  N   UNL     1       1.323  -7.786   2.549  0.00  0.00    -0.205 N 
ATOM      8  H   UNL     1       1.329  -7.826   3.518  0.00  0.00    +0.177 HD
ENDROOT
BRANCH   7   9
ATOM      9  N   UNL     1       1.332  -8.876   1.859  0.00  0.00    -0.187 NA
ATOM     10  C   UNL     1       1.351 -10.043   2.470  0.00  0.00    +0.142 C 
BRANCH  10  11
ATOM     11  C   UNL     1       1.362 -11.240   1.712  0.00  0.00    +0.038 A 
ATOM     12  C   UNL     1       1.376 -12.488   2.359  0.00  0.00    +0.045 A 
ATOM     13  C   UNL     1       1.386 -13.637   1.622  0.00  0.00    +0.127 A 
ATOM     14  C   UNL     1       1.382 -13.585   0.234  0.00  0.00    +0.036 A 
ATOM     15  C   UNL     1       1.368 -12.371  -0.424  0.00  0.00    +0.048 A 
ATOM     16  C   UNL     1       1.353 -11.189   0.301  0.00  0.00    +0.126 A 
BRANCH  13  17
ATOM     17  N   UNL     1       1.401 -14.948   2.308  0.00  0.00    +0.056 N 
ATOM     18  O   UNL     1       1.405 -15.003   3.624  0.00  0.00    -0.126 OA
ATOM     19  O   UNL     1       1.410 -16.060   1.602  0.00  0.00    -0.126 OA
ENDBRANCH  13  17
BRANCH  16  20
ATOM     20  O   UNL     1       1.334  -9.995  -0.339  0.00  0.00    -0.506 OA
ATOM     21  H   UNL     1       2.212  -9.637  -0.530  0.00  0.00    +0.292 HD
ENDBRANCH  16  20
ENDBRANCH  10  11
ENDBRANCH   7   9
BRANCH   1  22
ATOM     22  S   UNL     1       1.254  -2.800   1.685  0.00  0.00    -0.081 S 
BRANCH  22  23
ATOM     23  C   UNL     1       1.229  -2.186  -0.022  0.00  0.00    +0.114 C 
BRANCH  23  28
ATOM     24  C   UNL     1      -0.017   1.378   0.010  0.00  0.00    +0.000 A 
ATOM     25  C   UNL     1       1.171   2.086   0.002  0.00  0.00    +0.001 A 
ATOM     26  C   UNL     1       2.377   1.412  -0.013  0.00  0.00    +0.020 A 
ATOM     27  C   UNL     1       2.397   0.029  -0.021  0.00  0.00    +0.045 A 
ATOM     28  C   UNL     1       1.208  -0.679  -0.013  0.00  0.00    -0.019 A 
ATOM     29  C   UNL     1       0.002  -0.004   0.002  0.00  0.00    +0.006 A 
ATOM     30 CL   UNL     1       3.912  -0.818  -0.041  0.00  0.00    -0.083 Cl
ENDBRANCH  23  28
ENDBRANCH  22  23
ENDBRANCH   1  22
TORSDOF 7
