REMARK  Name = ZINC63348926
REMARK  3 active torsions:
REMARK  status: ('A' for Active; 'I' for Inactive)
REMARK    1  A    between atoms: C_8  and  C_13
REMARK    2  A    between atoms: C_10  and  N_12
REMARK    3  A    between atoms: N_18  and  C_19
REMARK                            x       y       z     vdW  Elec       q    Type
REMARK                         _______ _______ _______ _____ _____    ______ ____
ROOT
ATOM      1  C   UNL     1      -0.142   2.468  -0.479  0.00  0.00    +0.020 A 
ATOM      2  C   UNL     1       1.113   3.048  -0.531  0.00  0.00    +0.009 A 
ATOM      3  C   UNL     1       2.245   2.254  -0.325  0.00  0.00    +0.003 A 
ATOM      4  C   UNL     1       2.023   0.898  -0.087  0.00  0.00    +0.102 A 
ATOM      5  N   UNL     1       0.812   0.380  -0.034  0.00  0.00    -0.248 NA
ATOM      6  C   UNL     1      -0.267   1.118  -0.221  0.00  0.00    +0.112 A 
ATOM      7  S   UNL     1       3.630   0.150   0.082  0.00  0.00    -0.092 S 
ATOM      8  C   UNL     1       4.655   1.535  -0.567  0.00  0.00    +0.142 C 
ATOM      9  C   UNL     1       3.682   2.711  -0.324  0.00  0.00    +0.105 C 
ENDROOT
BRANCH   8  10
ATOM     10  C   UNL     1       4.951   1.359  -2.034  0.00  0.00    +0.150 A 
ATOM     11  N   UNL     1       4.105   0.992  -2.954  0.00  0.00    -0.132 NA
ATOM     12  N   UNL     1       4.689   0.944  -4.097  0.00  0.00    -0.122 NA
ATOM     13  C   UNL     1       5.952   1.280  -3.967  0.00  0.00    +0.203 A 
ATOM     14  S   UNL     1       7.153   1.361  -5.254  0.00  0.00    -0.009 SA
ATOM     15  N   UNL     1       6.157   1.561  -2.647  0.00  0.00    -0.301 N 
BRANCH  15  16
ATOM     16  C   UNL     1       7.409   1.986  -2.017  0.00  0.00    +0.091 C 
ATOM     17  C   UNL     1       8.514   2.521  -2.931  0.00  0.00    +0.027 C 
ATOM     18  C   UNL     1       8.657   1.142  -2.283  0.00  0.00    +0.027 C 
ENDBRANCH  15  16
ENDBRANCH   8  10
BRANCH   9  19
ATOM     19  N   UNL     1       3.988   3.326   0.974  0.00  0.00    -0.322 NA
ATOM     20  H   UNL     1       3.408   4.136   1.136  0.00  0.00    +0.119 HD
ATOM     21  H   UNL     1       3.892   2.658   1.723  0.00  0.00    +0.119 HD
ENDBRANCH   9  19
TORSDOF 3
