REMARK  Name = ZINC05434208
REMARK  5 active torsions:
REMARK  status: ('A' for Active; 'I' for Inactive)
REMARK    1  A    between atoms: C_7  and  C_11
REMARK    2  A    between atoms: C_11  and  N_53
REMARK    3  A    between atoms: C_12  and  N_53
REMARK    4  A    between atoms: C_22  and  N_24
REMARK    5  A    between atoms: C_29  and  C_31
REMARK                            x       y       z     vdW  Elec       q    Type
REMARK                         _______ _______ _______ _____ _____    ______ ____
ROOT
ATOM      1  C   UNL     1       4.802  -3.681  -1.464  0.00  0.00    -0.013 C 
ATOM      2  C   UNL     1       3.665  -4.698  -1.226  0.00  0.00    +0.147 C 
ATOM      3  O   UNL     1       3.961  -5.798  -2.115  0.00  0.00    -0.374 OA
ATOM      4  C   UNL     1       4.406  -5.183  -3.340  0.00  0.00    +0.168 C 
ATOM      5  C   UNL     1       5.318  -4.012  -2.884  0.00  0.00    +0.137 C 
ATOM      6  O   UNL     1       6.647  -4.528  -2.778  0.00  0.00    -0.374 OA
ATOM      7  C   UNL     1       6.753  -5.792  -3.453  0.00  0.00    +0.185 C 
ATOM      8  C   UNL     1       5.383  -6.130  -4.064  0.00  0.00    +0.130 C 
ENDROOT
BRANCH   8   9
ATOM      9  N   UNL     1       5.384  -5.863  -5.505  0.00  0.00    -0.306 N 
ATOM     10  C   UNL     1       5.747  -6.860  -6.393  0.00  0.00    +0.216 A 
ATOM     11  N   UNL     1       6.096  -8.049  -5.922  0.00  0.00    -0.223 NA
ATOM     12  C   UNL     1       6.444  -9.032  -6.738  0.00  0.00    +0.116 A 
ATOM     13  C   UNL     1       6.454  -8.808  -8.102  0.00  0.00    +0.049 A 
ATOM     14  C   UNL     1       6.086  -7.541  -8.572  0.00  0.00    +0.083 A 
ATOM     15  N   UNL     1       5.741  -6.600  -7.691  0.00  0.00    -0.214 NA
ATOM     16  H   UNL     1       5.130  -4.987  -5.836  0.00  0.00    +0.149 HD
BRANCH  14  17
ATOM     17  C   UNL     1       6.079  -7.251 -10.018  0.00  0.00    +0.038 A 
ATOM     18  C   UNL     1       5.748  -6.088 -10.665  0.00  0.00    +0.017 A 
ATOM     19  C   UNL     1       5.822  -6.051 -12.038  0.00  0.00    +0.008 A 
ATOM     20  C   UNL     1       6.209  -7.166 -12.711  0.00  0.00    +0.046 A 
ATOM     21  S   UNL     1       6.493  -8.325 -11.383  0.00  0.00    -0.095 S 
ENDBRANCH  14  17
ENDBRANCH   8   9
BRANCH   1  22
ATOM     22  N   UNL     1       4.278  -2.302  -1.422  0.00  0.00    +0.387 N 
ATOM     23  H   UNL     1       4.840  -1.707  -2.042  0.00  0.00    -0.085 HD
ATOM     24  H   UNL     1       3.302  -2.301  -1.740  0.00  0.00    -0.085 HD
BRANCH  22  25
ATOM     25  C   UNL     1       4.343  -1.771  -0.048  0.00  0.00    -0.044 C 
BRANCH  25  32
ATOM     26  C   UNL     1       0.002  -0.004   0.002  0.00  0.00    +0.001 A 
ATOM     27  C   UNL     1      -0.017   1.384   0.010  0.00  0.00    +0.002 A 
ATOM     28  C   UNL     1       1.158   2.103   0.002  0.00  0.00    +0.026 A 
ATOM     29  C   UNL     1       2.378   1.433  -0.013  0.00  0.00    +0.047 A 
ATOM     30  C   UNL     1       2.391   0.026  -0.020  0.00  0.00    +0.001 A 
ATOM     31  C   UNL     1       1.188  -0.682  -0.013  0.00  0.00    +0.010 A 
ATOM     32  C   UNL     1       3.803  -0.365  -0.035  0.00  0.00    -0.039 A 
ATOM     33  C   UNL     1       4.524   0.768  -0.036  0.00  0.00    +0.085 A 
ATOM     34  N   UNL     1       3.689   1.852  -0.023  0.00  0.00    -0.360 N 
ATOM     35  H   UNL     1       3.978   2.778  -0.021  0.00  0.00    +0.165 HD
ENDBRANCH  25  32
ENDBRANCH  22  25
ENDBRANCH   1  22
TORSDOF 5
