REMARK  Name = ZINC04044002
REMARK  14 active torsions:
REMARK  status: ('A' for Active; 'I' for Inactive)
REMARK    1  A    between atoms: C_1  and  C_2
REMARK    2  A    between atoms: C_2  and  N_71
REMARK    3  A    between atoms: C_3  and  C_4
REMARK    4  A    between atoms: C_3  and  N_71
REMARK    5  A    between atoms: C_5  and  C_6
REMARK    6  A    between atoms: C_5  and  N_71
REMARK    7  A    between atoms: C_7  and  C_11
REMARK    8  A    between atoms: C_11  and  C_12
REMARK    9  A    between atoms: C_12  and  C_13
REMARK   10  A    between atoms: C_21  and  C_31
REMARK   11  A    between atoms: C_25  and  C_26
REMARK   12  A    between atoms: C_25  and  C_27
REMARK   13  A    between atoms: C_27  and  O_29
REMARK   14  A    between atoms: O_29  and  C_30
REMARK                            x       y       z     vdW  Elec       q    Type
REMARK                         _______ _______ _______ _____ _____    ______ ____
ROOT
ATOM      1  C   UNL     1       1.873   5.504  -2.947  0.00  0.00    +0.021 C 
ATOM      2  C   UNL     1       2.146   5.193  -1.493  0.00  0.00    -0.073 C 
ATOM      3  C   UNL     1       1.270   4.543  -0.767  0.00  0.00    +0.008 C 
ATOM      4  C   UNL     1       3.460   5.653  -0.899  0.00  0.00    +0.031 C 
ATOM      5  C   UNL     1       4.594   5.165  -1.805  0.00  0.00    +0.009 C 
ATOM      6  C   UNL     1       4.354   5.649  -3.237  0.00  0.00    +0.012 C 
ATOM      7  C   UNL     1       3.067   5.031  -3.786  0.00  0.00    -0.022 C 
ATOM      8  C   UNL     1       2.854   5.481  -5.234  0.00  0.00    +0.007 C 
ATOM      9  C   UNL     1       4.043   5.043  -6.091  0.00  0.00    +0.002 C 
ATOM     10  C   UNL     1       5.320   5.686  -5.546  0.00  0.00    +0.018 C 
ATOM     11  C   UNL     1       5.541   5.224  -4.106  0.00  0.00    +0.068 C 
ATOM     12  C   UNL     1       6.823   5.858  -3.559  0.00  0.00    +0.023 C 
ATOM     13  C   UNL     1       3.164   3.506  -3.724  0.00  0.00    +0.012 C 
ENDROOT
BRANCH  11  14
ATOM     14  C   UNL     1       5.672   3.724  -4.076  0.00  0.00    +0.313 C 
ATOM     15  O   UNL     1       5.636   3.094  -5.107  0.00  0.00    -0.250 OA
BRANCH  14  16
ATOM     16  O   UNL     1       5.829   3.086  -2.905  0.00  0.00    -0.468 OA
ATOM     17  C   UNL     1       5.949   1.640  -2.953  0.00  0.00    +0.280 C 
ENDBRANCH  14  16
ENDBRANCH  11  14
BRANCH   1  18
ATOM     18  C   UNL     1       0.607   4.773  -3.398  0.00  0.00    +0.013 C 
BRANCH  18  19
ATOM     19  C   UNL     1      -0.617   5.432  -2.761  0.00  0.00    +0.039 C 
BRANCH  19  21
ATOM     20  C   UNL     1      -2.461   3.675  -2.852  0.00  0.00    +0.092 A 
ATOM     21  C   UNL     1      -1.871   4.796  -3.304  0.00  0.00    -0.008 A 
ATOM     22  C   UNL     1      -2.651   5.262  -4.386  0.00  0.00    +0.045 A 
ATOM     23  C   UNL     1      -3.673   4.398  -4.531  0.00  0.00    +0.195 A 
ATOM     24  O   UNL     1      -3.549   3.436  -3.602  0.00  0.00    -0.469 OA
BRANCH  20  25
ATOM     25  C   UNL     1      -1.980   2.828  -1.702  0.00  0.00    -0.003 C 
BRANCH  25  26
ATOM     26  N   UNL     1      -2.582   3.336  -0.451  0.00  0.00    +0.384 N 
ATOM     27  H   UNL     1      -2.410   4.346  -0.385  0.00  0.00    -0.081 HD
BRANCH  26  29
ATOM     28  C   UNL     1      -2.347   3.435   1.981  0.00  0.00    -0.017 C 
ATOM     29  C   UNL     1      -1.966   2.667   0.714  0.00  0.00    -0.082 C 
ENDBRANCH  26  29
BRANCH  26  30
ATOM     30  C   UNL     1      -4.040   3.097  -0.458  0.00  0.00    -0.082 C 
ATOM     31  C   UNL     1      -4.338   1.597  -0.408  0.00  0.00    -0.017 C 
ENDBRANCH  26  30
ENDBRANCH  25  26
ENDBRANCH  20  25
ENDBRANCH  19  21
ENDBRANCH  18  19
ENDBRANCH   1  18
TORSDOF 9
