REMARK  Name = ZINC38989928
REMARK  3 active torsions:
REMARK  status: ('A' for Active; 'I' for Inactive)
REMARK    1  A    between atoms: C_1  and  O_2
REMARK    2  A    between atoms: O_2  and  C_3
REMARK    3  A    between atoms: C_10  and  C_18
REMARK                            x       y       z     vdW  Elec       q    Type
REMARK                         _______ _______ _______ _____ _____    ______ ____
ROOT
ATOM      1  C   UNL     1      -1.200  -0.637   0.010  0.00  0.00    +0.121 A 
ATOM      2  C   UNL     1      -2.375   0.136   0.020  0.00  0.00    +0.047 A 
ATOM      3  C   UNL     1      -3.606  -0.417   0.033  0.00  0.00    +0.029 A 
ATOM      4  C   UNL     1      -3.753  -1.875   0.037  0.00  0.00    +0.043 A 
ATOM      5  N   UNL     1      -4.814  -2.649   0.026  0.00  0.00    -0.376 N 
ATOM      6  C   UNL     1      -4.374  -4.036   0.129  0.00  0.00    +0.128 C 
ATOM      7  C   UNL     1      -4.890  -4.905  -1.021  0.00  0.00    +0.121 C 
ATOM      8  N   UNL     1      -4.169  -6.187  -0.992  0.00  0.00    -0.307 NA
ATOM      9  C   UNL     1      -2.743  -6.055  -1.306  0.00  0.00    +0.086 C 
ATOM     10  C   UNL     1      -2.035  -5.237  -0.210  0.00  0.00    +0.048 C 
ATOM     11  C   UNL     1      -2.859  -3.987   0.008  0.00  0.00    -0.035 C 
ATOM     12  C   UNL     1      -2.514  -2.694   0.017  0.00  0.00    +0.003 A 
ATOM     13  C   UNL     1      -1.226  -1.991   0.003  0.00  0.00    +0.055 A 
ATOM     14  H   UNL     1      -4.303  -6.658  -0.110  0.00  0.00    +0.123 HD
ATOM     15  H   UNL     1      -5.734  -2.349  -0.039  0.00  0.00    +0.160 HD
ENDROOT
BRANCH   7  16
ATOM     16  C   UNL     1      -6.367  -5.149  -0.849  0.00  0.00    +0.100 A 
ATOM     17  H   UNL     1      -9.244  -4.532  -2.236  0.00  0.00    +0.173 HD
ATOM     18  C   UNL     1      -6.840  -5.880   0.234  0.00  0.00    +0.263 A 
ATOM     19  O   UNL     1      -5.989  -6.375   1.135  0.00  0.00    -0.267 OA
ATOM     20  N   UNL     1      -8.177  -6.087   0.368  0.00  0.00    -0.275 N 
ATOM     21  C   UNL     1      -9.040  -5.591  -0.538  0.00  0.00    +0.329 A 
ATOM     22  O   UNL     1     -10.231  -5.788  -0.399  0.00  0.00    -0.247 OA
ATOM     23  N   UNL     1      -8.605  -4.881  -1.594  0.00  0.00    -0.275 N 
ATOM     24  C   UNL     1      -7.277  -4.642  -1.767  0.00  0.00    +0.263 A 
ATOM     25  O   UNL     1      -6.852  -3.932  -2.814  0.00  0.00    -0.267 OA
ATOM     26  H   UNL     1      -8.512  -6.597   1.122  0.00  0.00    +0.173 HD
ENDBRANCH   7  16
BRANCH   1  28
ATOM     27  C   UNL     1      -0.017   1.425   0.010  0.00  0.00    +0.277 C 
ATOM     28  O   UNL     1       0.002  -0.004   0.002  0.00  0.00    -0.495 OA
ENDBRANCH   1  28
TORSDOF 2
