REMARK  Name = ZINC05140083
REMARK  10 active torsions:
REMARK  status: ('A' for Active; 'I' for Inactive)
REMARK    1  A    between atoms: C_1  and  C_2
REMARK    2  A    between atoms: C_2  and  O_3
REMARK    3  A    between atoms: O_3  and  C_4
REMARK    4  A    between atoms: C_7  and  C_12
REMARK    5  A    between atoms: C_9  and  O_10
REMARK    6  A    between atoms: O_10  and  C_11
REMARK    7  A    between atoms: C_13  and  C_14
REMARK    8  A    between atoms: C_15  and  C_29
REMARK    9  A    between atoms: C_15  and  C_30
REMARK   10  A    between atoms: C_18  and  C_28
REMARK                            x       y       z     vdW  Elec       q    Type
REMARK                         _______ _______ _______ _____ _____    ______ ____
ROOT
ATOM      1  C   UNL     1       0.710  -8.329  -1.106  0.00  0.00    +0.130 C 
ATOM      2  C   UNL     1      -0.681  -8.962  -1.241  0.00  0.00    +0.034 C 
ATOM      3  C   UNL     1      -0.749  -9.399  -2.677  0.00  0.00    -0.016 A 
ATOM      4  C   UNL     1      -1.806  -9.952  -3.376  0.00  0.00    +0.009 A 
ATOM      5  C   UNL     1      -1.593 -10.253  -4.716  0.00  0.00    -0.050 A 
ATOM      6  C   UNL     1      -0.378 -10.010  -5.322  0.00  0.00    +0.005 A 
ATOM      7  C   UNL     1       0.689  -9.462  -4.629  0.00  0.00    +0.024 A 
ATOM      8  C   UNL     1       0.491  -9.159  -3.277  0.00  0.00    +0.035 A 
ATOM      9  N   UNL     1       1.396  -8.647  -2.373  0.00  0.00    -0.304 N 
ATOM     10  C   UNL     1       2.850  -8.478  -2.522  0.00  0.00    +0.117 C 
ATOM     11  C   UNL     1       3.508  -9.363  -1.455  0.00  0.00    +0.115 C 
ATOM     12  C   UNL     1       2.747  -9.316  -0.167  0.00  0.00    +0.216 C 
ATOM     13  O   UNL     1       3.337  -9.661   0.835  0.00  0.00    -0.276 OA
ATOM     14  N   UNL     1       1.488  -8.911  -0.019  0.00  0.00    -0.290 N 
ATOM     15  C   UNL     1      -2.712 -10.858  -5.523  0.00  0.00    +0.044 C 
ATOM     16  C   UNL     1      -0.814 -10.167  -0.307  0.00  0.00    +0.020 C 
ATOM     17  C   UNL     1      -1.771  -7.930  -0.943  0.00  0.00    +0.020 C 
ATOM     18  H   UNL     1       1.064  -9.031   0.846  0.00  0.00    +0.151 HD
ENDROOT
BRANCH   1  20
ATOM     19  C   UNL     1       1.105  -6.019  -1.840  0.00  0.00    +0.007 C 
ATOM     20  C   UNL     1       0.594  -6.836  -0.929  0.00  0.00    +0.020 C 
BRANCH  19  24
ATOM     21  C   UNL     1       0.777  -1.810  -1.336  0.00  0.00    +0.162 A 
ATOM     22  C   UNL     1       0.242  -2.667  -0.385  0.00  0.00    +0.050 A 
ATOM     23  C   UNL     1       0.347  -4.033  -0.546  0.00  0.00    +0.012 A 
ATOM     24  C   UNL     1       0.992  -4.556  -1.667  0.00  0.00    -0.022 A 
ATOM     25  C   UNL     1       1.530  -3.695  -2.624  0.00  0.00    +0.057 A 
ATOM     26  C   UNL     1       1.417  -2.327  -2.460  0.00  0.00    +0.162 A 
BRANCH  26  27
ATOM     27  O   UNL     1       1.936  -1.485  -3.394  0.00  0.00    -0.491 OA
ATOM     28  C   UNL     1       2.579  -2.083  -4.521  0.00  0.00    +0.277 C 
ENDBRANCH  26  27
BRANCH  21  29
ATOM     29  O   UNL     1       0.671  -0.465  -1.174  0.00  0.00    -0.489 OA
BRANCH  29  31
ATOM     30  C   UNL     1      -0.019   1.526   0.010  0.00  0.00    +0.048 C 
ATOM     31  C   UNL     1       0.002  -0.004   0.002  0.00  0.00    +0.226 C 
ENDBRANCH  29  31
ENDBRANCH  21  29
ENDBRANCH  19  24
ENDBRANCH   1  20
TORSDOF 5
