REMARK  Name = ZINC06197951
REMARK  10 active torsions:
REMARK  status: ('A' for Active; 'I' for Inactive)
REMARK    1  A    between atoms: C_1  and  C_2
REMARK    2  A    between atoms: C_2  and  C_3
REMARK    3  A    between atoms: C_10  and  C_15
REMARK    4  A    between atoms: C_15  and  C_17
REMARK    5  A    between atoms: C_15  and  N_67
REMARK    6  A    between atoms: N_21  and  C_22
REMARK    7  A    between atoms: C_27  and  C_28
REMARK    8  A    between atoms: C_27  and  N_67
REMARK    9  A    between atoms: C_33  and  C_34
REMARK   10  A    between atoms: C_33  and  N_67
REMARK                            x       y       z     vdW  Elec       q    Type
REMARK                         _______ _______ _______ _____ _____    ______ ____
ROOT
ATOM      1  C   UNL     1       0.378   1.499   0.099  0.00  0.00    +0.040 C 
ENDROOT
BRANCH   1   9
ATOM      2  C   UNL     1      -1.529   2.643  -5.675  0.00  0.00    -0.047 A 
ATOM      3  C   UNL     1      -1.700   4.012  -5.514  0.00  0.00    +0.005 A 
ATOM      4  C   UNL     1      -1.437   4.616  -4.304  0.00  0.00    +0.026 A 
ATOM      5  C   UNL     1      -0.993   3.849  -3.232  0.00  0.00    +0.049 A 
ATOM      6  C   UNL     1      -0.820   2.462  -3.399  0.00  0.00    -0.001 A 
ATOM      7  C   UNL     1      -1.094   1.870  -4.636  0.00  0.00    +0.013 A 
ATOM      8  C   UNL     1      -0.353   1.664  -2.264  0.00  0.00    +0.017 A 
ATOM      9  C   UNL     1      -0.104   2.292  -1.089  0.00  0.00    +0.011 A 
ATOM     10  C   UNL     1      -0.299   3.685  -0.972  0.00  0.00    +0.251 A 
ATOM     11  O   UNL     1      -0.074   4.229   0.095  0.00  0.00    -0.268 OA
ATOM     12  N   UNL     1      -0.722   4.428  -2.010  0.00  0.00    -0.322 N 
ATOM     13  H   UNL     1      -0.842   5.413  -1.894  0.00  0.00    +0.169 HD
BRANCH   2  15
ATOM     14  C   UNL     1      -3.290   1.570  -7.052  0.00  0.00    +0.009 C 
ATOM     15  C   UNL     1      -1.824   2.006  -7.008  0.00  0.00    +0.032 C 
ENDBRANCH   2  15
ENDBRANCH   1   9
BRANCH   1  16
ATOM     16  C   UNL     1       1.775   1.933   0.460  0.00  0.00    +0.143 A 
ATOM     17  N   UNL     1       2.117   3.043   1.067  0.00  0.00    -0.115 NA
ATOM     18  N   UNL     1       3.399   3.048   1.195  0.00  0.00    -0.023 NA
ATOM     19  N   UNL     1       3.884   1.970   0.684  0.00  0.00    -0.044 NA
ATOM     20  N   UNL     1       2.913   1.254   0.225  0.00  0.00    -0.227 N 
BRANCH  20  21
ATOM     21  C   UNL     1       3.029  -0.051  -0.431  0.00  0.00    +0.111 C 
ATOM     22  C   UNL     1       3.726  -1.055   0.509  0.00  0.00    +0.027 C 
ATOM     23  C   UNL     1       4.606  -1.911  -0.436  0.00  0.00    +0.002 C 
ATOM     24  C   UNL     1       5.118  -0.871  -1.464  0.00  0.00    +0.002 C 
ATOM     25  C   UNL     1       3.912   0.066  -1.685  0.00  0.00    +0.027 C 
ENDBRANCH  20  21
ENDBRANCH   1  16
BRANCH   1  26
ATOM     26  N   UNL     1      -0.517   1.762   1.246  0.00  0.00    +0.397 N 
ATOM     27  H   UNL     1      -0.475   2.760   1.480  0.00  0.00    -0.079 HD
BRANCH  26  28
ATOM     28  C   UNL     1      -1.908   1.409   0.893  0.00  0.00    -0.001 C 
BRANCH  28  29
ATOM     29  C   UNL     1      -1.988  -0.021   0.425  0.00  0.00    +0.089 A 
ATOM     30  C   UNL     1      -2.309  -1.081   1.188  0.00  0.00    +0.042 A 
ATOM     31  C   UNL     1      -2.263  -2.219   0.350  0.00  0.00    +0.041 A 
ATOM     32  C   UNL     1      -1.917  -1.785  -0.876  0.00  0.00    +0.195 A 
ATOM     33  O   UNL     1      -1.758  -0.453  -0.825  0.00  0.00    -0.470 OA
ENDBRANCH  28  29
ENDBRANCH  26  28
BRANCH  26  34
ATOM     34  C   UNL     1      -0.078   0.975   2.418  0.00  0.00    -0.034 C 
BRANCH  34  35
ATOM     35  C   UNL     1      -0.756   1.522   3.649  0.00  0.00    -0.027 A 
ATOM     36  C   UNL     1      -1.881   1.089   4.267  0.00  0.00    +0.009 A 
ATOM     37  C   UNL     1      -2.323   1.752   5.396  0.00  0.00    +0.008 A 
ATOM     38  C   UNL     1      -1.617   2.815   5.853  0.00  0.00    +0.045 A 
ATOM     39  S   UNL     1      -0.279   2.903   4.675  0.00  0.00    -0.103 S 
ENDBRANCH  34  35
ENDBRANCH  26  34
ENDBRANCH   1  26
TORSDOF 9
