REMARK  Name = ZINC04663691
REMARK  11 active torsions:
REMARK  status: ('A' for Active; 'I' for Inactive)
REMARK    1  A    between atoms: C_1  and  C_2
REMARK    2  A    between atoms: C_6  and  C_30
REMARK    3  A    between atoms: C_6  and  C_31
REMARK    4  A    between atoms: C_11  and  C_28
REMARK    5  A    between atoms: C_11  and  O_29
REMARK    6  A    between atoms: C_12  and  C_14
REMARK    7  A    between atoms: C_14  and  C_15
REMARK    8  A    between atoms: N_17  and  N_18
REMARK    9  A    between atoms: N_18  and  C_19
REMARK   10  A    between atoms: C_19  and  N_21
REMARK   11  A    between atoms: N_21  and  C_22
REMARK                            x       y       z     vdW  Elec       q    Type
REMARK                         _______ _______ _______ _____ _____    ______ ____
ROOT
ATOM      1  C   UNL     1       0.153   0.547  -2.313  0.00  0.00    +0.104 C 
ENDROOT
BRANCH   1  12
ATOM      2  C   UNL     1       1.032   1.932  -0.075  0.00  0.00    +0.012 C 
ATOM      3  C   UNL     1       0.980   0.409   0.038  0.00  0.00    -0.023 C 
ATOM      4  C   UNL     1      -0.393   0.018   0.608  0.00  0.00    +0.007 C 
ATOM      5  C   UNL     1      -0.532   0.553   2.032  0.00  0.00    +0.001 C 
ATOM      6  C   UNL     1       0.524  -0.080   2.929  0.00  0.00    +0.007 C 
ATOM      7  C   UNL     1       1.938   0.179   2.407  0.00  0.00    -0.032 C 
ATOM      8  C   UNL     1       2.068  -0.158   0.937  0.00  0.00    +0.001 C 
ATOM      9  C   UNL     1       3.440   0.203   0.373  0.00  0.00    +0.007 C 
ATOM     10  C   UNL     1       3.610  -0.503  -0.971  0.00  0.00    +0.035 C 
ATOM     11  C   UNL     1       2.501  -0.171  -1.953  0.00  0.00    +0.067 C 
ATOM     12  C   UNL     1       1.104  -0.199  -1.362  0.00  0.00    +0.035 C 
ATOM     13  C   UNL     1       2.787   1.173  -2.634  0.00  0.00    +0.041 C 
ATOM     14  C   UNL     1       2.872  -0.768   3.201  0.00  0.00    +0.011 C 
ATOM     15  C   UNL     1       2.365   1.607   2.735  0.00  0.00    +0.011 C 
BRANCH  11  16
ATOM     16  O   UNL     1       2.542  -1.176  -2.997  0.00  0.00    -0.389 OA
ATOM     17  H   UNL     1       3.379  -1.208  -3.480  0.00  0.00    +0.210 HD
ENDBRANCH  11  16
ENDBRANCH   1  12
BRANCH   1  18
ATOM     18  C   UNL     1       0.061  -0.200  -3.619  0.00  0.00    +0.229 C 
ATOM     19  O   UNL     1       0.466  -1.340  -3.695  0.00  0.00    -0.274 OA
ATOM     20  N   UNL     1      -0.471   0.400  -4.702  0.00  0.00    -0.235 N 
ATOM     21  H   UNL     1      -0.795   1.312  -4.641  0.00  0.00    +0.173 HD
BRANCH  20  22
ATOM     22  N   UNL     1      -0.556  -0.294  -5.916  0.00  0.00    -0.246 N 
ATOM     23  H   UNL     1      -0.233  -1.207  -5.976  0.00  0.00    +0.172 HD
BRANCH  22  24
ATOM     24  C   UNL     1      -1.089   0.305  -6.999  0.00  0.00    +0.151 C 
ATOM     25  S   UNL     1      -1.193  -0.543  -8.482  0.00  0.00    -0.017 S 
BRANCH  24  26
ATOM     26  N   UNL     1      -1.539   1.573  -6.915  0.00  0.00    -0.296 N 
ATOM     27  H   UNL     1      -1.407   2.081  -6.099  0.00  0.00    +0.154 HD
BRANCH  26  28
ATOM     28  C   UNL     1      -2.195   2.156  -8.004  0.00  0.00    +0.033 A 
ATOM     29  C   UNL     1      -3.106   1.415  -8.746  0.00  0.00    +0.023 A 
ATOM     30  C   UNL     1      -3.752   1.994  -9.820  0.00  0.00    +0.002 A 
ATOM     31  C   UNL     1      -3.493   3.310 -10.158  0.00  0.00    +0.000 A 
ATOM     32  C   UNL     1      -2.587   4.050  -9.421  0.00  0.00    +0.002 A 
ATOM     33  C   UNL     1      -1.941   3.479  -8.342  0.00  0.00    +0.023 A 
ENDBRANCH  26  28
ENDBRANCH  24  26
ENDBRANCH  22  24
ENDBRANCH  20  22
ENDBRANCH   1  18
TORSDOF 7
