REMARK  Name = ZINC16190916
REMARK  6 active torsions:
REMARK  status: ('A' for Active; 'I' for Inactive)
REMARK    1  A    between atoms: C_3  and  N_10
REMARK    2  A    between atoms: C_6  and  C_7
REMARK    3  A    between atoms: N_10  and  N_11
REMARK    4  A    between atoms: N_11  and  C_12
REMARK    5  A    between atoms: C_12  and  N_14
REMARK    6  A    between atoms: N_14  and  C_15
REMARK                            x       y       z     vdW  Elec       q    Type
REMARK                         _______ _______ _______ _____ _____    ______ ____
ROOT
ATOM      1  N   UNL     1       4.789   1.443  -0.036  0.00  0.00    -0.248 N 
ATOM      2  H   UNL     1       4.804   0.473  -0.041  0.00  0.00    +0.172 HD
ENDROOT
BRANCH   1   3
ATOM      3  N   UNL     1       3.565   2.125  -0.021  0.00  0.00    -0.265 N 
ATOM      4  H   UNL     1       3.551   3.095  -0.016  0.00  0.00    +0.170 HD
BRANCH   3   7
ATOM      5  C   UNL     1      -0.017   1.395   0.010  0.00  0.00    +0.017 A 
ATOM      6  C   UNL     1       1.157   2.093   0.002  0.00  0.00    +0.025 A 
ATOM      7  C   UNL     1       2.373   1.413  -0.013  0.00  0.00    +0.044 A 
ATOM      8  C   UNL     1       2.396   0.020  -0.021  0.00  0.00    +0.025 A 
ATOM      9  C   UNL     1       1.226  -0.684  -0.014  0.00  0.00    +0.017 A 
ATOM     10  C   UNL     1       0.002  -0.004   0.002  0.00  0.00    +0.063 A 
BRANCH  10  11
ATOM     11  C   UNL     1      -1.261  -0.759   0.011  0.00  0.00    +0.387 C 
ATOM     12  O   UNL     1      -2.329  -0.163   0.024  0.00  0.00    -0.241 OA
ATOM     13  O   UNL     1      -1.243  -1.982   0.004  0.00  0.00    -0.241 OA
ENDBRANCH  10  11
ENDBRANCH   3   7
ENDBRANCH   1   3
BRANCH   1  14
ATOM     14  C   UNL     1       5.946   2.135  -0.044  0.00  0.00    +0.147 C 
ATOM     15  S   UNL     1       7.441   1.301  -0.063  0.00  0.00    -0.017 S 
BRANCH  14  16
ATOM     16  N   UNL     1       5.926   3.482  -0.037  0.00  0.00    -0.322 N 
ATOM     17  H   UNL     1       5.079   3.954  -0.027  0.00  0.00    +0.148 HD
BRANCH  16  18
ATOM     18  C   UNL     1       7.183   4.234  -0.046  0.00  0.00    +0.075 C 
ATOM     19  C   UNL     1       7.686   4.460   1.399  0.00  0.00    +0.026 C 
ATOM     20  C   UNL     1       7.714   6.010   1.568  0.00  0.00    -0.009 C 
ATOM     21  C   UNL     1       8.906   6.478   0.679  0.00  0.00    +0.004 C 
ATOM     22  C   UNL     1       8.424   6.252  -0.772  0.00  0.00    +0.005 C 
ATOM     23  C   UNL     1       6.956   5.667  -0.616  0.00  0.00    +0.010 C 
ATOM     24  C   UNL     1       6.486   6.421   0.681  0.00  0.00    +0.009 C 
ENDBRANCH  16  18
ENDBRANCH  14  16
ENDBRANCH   1  14
TORSDOF 6
