REMARK  Name = ZINC39690754
REMARK  11 active torsions:
REMARK  status: ('A' for Active; 'I' for Inactive)
REMARK    1  A    between atoms: C_1  and  C_2
REMARK    2  A    between atoms: C_2  and  C_3
REMARK    3  A    between atoms: C_2  and  C_4
REMARK    4  A    between atoms: C_4  and  N_5
REMARK    5  A    between atoms: C_6  and  S_17
REMARK    6  A    between atoms: S_17  and  C_18
REMARK    7  A    between atoms: C_18  and  C_19
REMARK    8  A    between atoms: N_21  and  CA_22
REMARK    9  A    between atoms: CA_22  and  CB_24
REMARK   10  A    between atoms: CA_22  and  C_34
REMARK   11  A    between atoms: CB_24  and  CG_25
REMARK                            x       y       z     vdW  Elec       q    Type
REMARK                         _______ _______ _______ _____ _____    ______ ____
ROOT
ATOM      1  C   UNK A   0      -5.186  -4.456  -0.880  0.00  0.00    +0.224 C 
ATOM      2  O   UNK A   0      -5.765  -3.995  -1.841  0.00  0.00    -0.275 OA
ATOM      3  N   TRP A   1      -5.827  -5.299  -0.048  0.00  0.00    -0.301 N 
ATOM      4  H   TRP A   1      -5.364  -5.668   0.721  0.00  0.00    +0.150 HD
ENDROOT
BRANCH   1   5
ATOM      5  C   UNK A   0      -3.749  -4.084  -0.617  0.00  0.00    +0.168 C 
BRANCH   5   6
ATOM      6  S   UNK A   0      -3.174  -2.942  -1.904  0.00  0.00    -0.110 S 
BRANCH   6   8
ATOM      7  N   UNK A   0      -1.416  -1.993  -0.116  0.00  0.00    -0.270 N 
ATOM      8  C   UNK A   0      -1.453  -2.598  -1.447  0.00  0.00    +0.222 C 
ATOM      9  N   UNK A   0      -0.690  -3.851  -1.458  0.00  0.00    -0.317 N 
ATOM     10  C   UNK A   0      -0.839  -4.735  -0.395  0.00  0.00    +0.041 A 
ATOM     11  C   UNK A   0      -0.670  -6.100  -0.552  0.00  0.00    +0.024 A 
ATOM     12  C   UNK A   0      -0.817  -6.937   0.537  0.00  0.00    +0.002 A 
ATOM     13  C   UNK A   0      -1.131  -6.422   1.785  0.00  0.00    +0.001 A 
ATOM     14  C   UNK A   0      -1.307  -5.064   1.958  0.00  0.00    +0.015 A 
ATOM     15  C   UNK A   0      -1.166  -4.209   0.867  0.00  0.00    +0.058 A 
ATOM     16  C   UNK A   0      -1.362  -2.755   0.995  0.00  0.00    +0.250 C 
ATOM     17  O   UNK A   0      -1.478  -2.247   2.094  0.00  0.00    -0.270 OA
ATOM     18  H   UNK A   0      -0.094  -4.061  -2.194  0.00  0.00    +0.149 HD
BRANCH   7  19
ATOM     19  C   UNK A   0      -1.433  -0.534   0.013  0.00  0.00    +0.113 C 
BRANCH  19  21
ATOM     20  C   UNK A   0      -0.019   1.526   0.010  0.00  0.00    +0.009 C 
ATOM     21  C   UNK A   0       0.002  -0.004   0.002  0.00  0.00    +0.000 C 
ATOM     22  C   UNK A   0       0.742  -0.511   1.242  0.00  0.00    +0.009 C 
ENDBRANCH  19  21
ENDBRANCH   7  19
ENDBRANCH   6   8
ENDBRANCH   5   6
ENDBRANCH   1   5
BRANCH   3  23
ATOM     23  CA  TRP A   1      -7.224  -5.660  -0.304  0.00  0.00    +0.191 C 
BRANCH  23  24
ATOM     24  C   TRP A   1      -8.130  -4.614   0.291  0.00  0.00    +0.376 C 
ATOM     25  O   TRP A   1      -9.213  -4.385  -0.219  0.00  0.00    -0.244 OA
ATOM     26  OXT TRP A   1      -7.780  -3.997   1.283  0.00  0.00    -0.244 OA
ENDBRANCH  23  24
BRANCH  23  27
ATOM     27  CB  TRP A   1      -7.524  -7.018   0.334  0.00  0.00    +0.071 C 
BRANCH  27  28
ATOM     28  CG  TRP A   1      -6.706  -8.085  -0.346  0.00  0.00    -0.020 A 
ATOM     29  CD2 TRP A   1      -5.326  -8.460  -0.028  0.00  0.00    +0.003 A 
ATOM     30  CE3 TRP A   1      -4.391  -8.014   0.908  0.00  0.00    +0.010 A 
ATOM     31  CZ3 TRP A   1      -3.150  -8.586   0.953  0.00  0.00    +0.001 A 
ATOM     32  CH2 TRP A   1      -2.812  -9.607   0.075  0.00  0.00    +0.002 A 
ATOM     33  CZ2 TRP A   1      -3.720 -10.062  -0.857  0.00  0.00    +0.026 A 
ATOM     34  CE2 TRP A   1      -4.988  -9.494  -0.920  0.00  0.00    +0.047 A 
ATOM     35  NE1 TRP A   1      -6.090  -9.721  -1.714  0.00  0.00    -0.360 N 
ATOM     36  CD1 TRP A   1      -7.105  -8.876  -1.354  0.00  0.00    +0.087 A 
ATOM     37  HE1 TRP A   1      -6.140 -10.383  -2.421  0.00  0.00    +0.165 HD
ENDBRANCH  27  28
ENDBRANCH  23  27
ENDBRANCH   3  23
TORSDOF 9
