REMARK  Name = ZINC12163955
REMARK  10 active torsions:
REMARK  status: ('A' for Active; 'I' for Inactive)
REMARK    1  A    between atoms: C_1  and  C_2
REMARK    2  A    between atoms: C_2  and  C_3
REMARK    3  A    between atoms: C_3  and  C_4
REMARK    4  A    between atoms: C_4  and  C_19
REMARK    5  A    between atoms: N_7  and  C_11
REMARK    6  A    between atoms: C_11  and  C_12
REMARK    7  A    between atoms: C_12  and  C_13
REMARK    8  A    between atoms: C_18  and  N_74
REMARK    9  A    between atoms: C_25  and  C_27
REMARK   10  A    between atoms: C_27  and  C_28
REMARK                            x       y       z     vdW  Elec       q    Type
REMARK                         _______ _______ _______ _____ _____    ______ ____
ROOT
ATOM      1  C   UNL     1      -3.776  -1.738  -4.269  0.00  0.00    +0.115 C 
ATOM      2  C   UNL     1      -3.057  -0.667  -3.473  0.00  0.00    +0.247 C 
ATOM      3  O   UNL     1      -2.715   0.429  -3.862  0.00  0.00    -0.273 OA
ATOM      4  N   UNL     1      -2.874  -1.188  -2.243  0.00  0.00    -0.224 N 
ATOM      5  C   UNL     1      -3.380  -2.423  -2.150  0.00  0.00    +0.309 C 
ATOM      6  O   UNL     1      -3.340  -3.095  -1.139  0.00  0.00    -0.252 OA
ATOM      7  N   UNL     1      -3.937  -2.838  -3.302  0.00  0.00    -0.285 N 
ATOM      8  H   UNL     1      -4.362  -3.695  -3.465  0.00  0.00    +0.151 HD
ENDROOT
BRANCH   1   9
ATOM      9  C   UNL     1      -5.141  -1.231  -4.740  0.00  0.00    +0.024 C 
ATOM     10  C   UNL     1      -4.944  -0.166  -5.821  0.00  0.00    +0.025 C 
ATOM     11  C   UNL     1      -6.313   0.314  -6.315  0.00  0.00    +0.108 C 
ATOM     12  N   UNL     1      -7.101   0.765  -5.160  0.00  0.00    -0.301 N 
ATOM     13  C   UNL     1      -7.276  -0.150  -4.023  0.00  0.00    +0.108 C 
ATOM     14  C   UNL     1      -5.896  -0.625  -3.555  0.00  0.00    +0.025 C 
ATOM     15  C   UNL     1      -7.652   1.994  -5.143  0.00  0.00    +0.220 C 
ATOM     16  O   UNL     1      -8.300   2.355  -4.183  0.00  0.00    -0.275 OA
BRANCH  15  17
ATOM     17  C   UNL     1      -7.463   2.921  -6.316  0.00  0.00    +0.131 C 
BRANCH  17  18
ATOM     18  C   UNL     1      -8.174   4.223  -6.048  0.00  0.00    -0.035 A 
ATOM     19  C   UNL     1      -9.491   4.382  -6.436  0.00  0.00    +0.008 A 
ATOM     20  C   UNL     1     -10.149   5.572  -6.188  0.00  0.00    +0.050 A 
ATOM     21  C   UNL     1      -9.486   6.612  -5.558  0.00  0.00    +0.166 A 
ATOM     22  C   UNL     1      -8.158   6.454  -5.171  0.00  0.00    +0.166 A 
ATOM     23  C   UNL     1      -7.506   5.256  -5.419  0.00  0.00    +0.053 A 
ATOM     24  O   UNL     1      -7.735   7.609  -4.579  0.00  0.00    -0.453 OA
ATOM     25  C   UNL     1      -8.935   8.328  -4.239  0.00  0.00    +0.466 C 
ATOM     26  O   UNL     1      -9.896   7.867  -5.207  0.00  0.00    -0.453 OA
ENDBRANCH  17  18
ENDBRANCH  15  17
ENDBRANCH   1   9
BRANCH   1  27
ATOM     27  C   UNL     1      -2.930  -2.188  -5.461  0.00  0.00    +0.035 C 
BRANCH  27  29
ATOM     28  C   UNL     1      -0.755  -3.205  -6.150  0.00  0.00    +0.004 C 
ATOM     29  C   UNL     1      -1.601  -2.755  -4.958  0.00  0.00    -0.001 C 
ENDBRANCH  27  29
ENDBRANCH   1  27
BRANCH   4  30
ATOM     30  C   UNL     1      -2.210  -0.485  -1.142  0.00  0.00    +0.116 C 
BRANCH  30  31
ATOM     31  C   UNL     1      -0.711  -0.790  -1.174  0.00  0.00    +0.004 C 
BRANCH  31  32
ATOM     32  C   UNL     1       0.001   0.041  -0.105  0.00  0.00    -0.068 C 
ATOM     33  C   UNL     1      -0.461  -0.401   1.299  0.00  0.00    -0.017 C 
ATOM     34  C   UNL     1       0.842  -0.323   2.137  0.00  0.00    -0.020 C 
ATOM     35  C   UNL     1       1.906  -0.771   1.104  0.00  0.00    -0.079 C 
ATOM     36  C   UNL     1       1.794  -1.067  -1.305  0.00  0.00    -0.096 C 
ATOM     37  N   UNL     1       1.458  -0.172  -0.167  0.00  0.00    +0.380 N 
ATOM     38  H   UNL     1       1.929   0.731  -0.301  0.00  0.00    -0.082 HD
ENDBRANCH  31  32
ENDBRANCH  30  31
ENDBRANCH   4  30
TORSDOF 8
