REMARK  Name = ZINC03011829
REMARK  7 active torsions:
REMARK  status: ('A' for Active; 'I' for Inactive)
REMARK    1  A    between atoms: C_1  and  C_2
REMARK    2  A    between atoms: C_5  and  C_8
REMARK    3  A    between atoms: C_11  and  C_30
REMARK    4  A    between atoms: C_16  and  C_18
REMARK    5  A    between atoms: N_20  and  C_21
REMARK    6  A    between atoms: C_25  and  C_28
REMARK    7  A    between atoms: C_26  and  C_27
REMARK                            x       y       z     vdW  Elec       q    Type
REMARK                         _______ _______ _______ _____ _____    ______ ____
ROOT
ATOM      1  C   UNL     1       0.087  -4.260   0.017  0.00  0.00    +0.104 C 
ATOM      2  C   UNL     1       1.512  -4.762   0.271  0.00  0.00    +0.063 C 
ATOM      3  C   UNL     1       1.550  -6.292   0.188  0.00  0.00    +0.215 C 
ATOM      4  N   UNL     1       0.479  -6.839   1.026  0.00  0.00    -0.238 N 
ATOM      5  C   UNL     1      -0.605  -6.117   1.437  0.00  0.00    +0.119 A 
ATOM      6  C   UNL     1      -1.383  -6.921   2.189  0.00  0.00    +0.078 A 
ATOM      7  C   UNL     1      -0.760  -8.188   2.244  0.00  0.00    +0.149 A 
ATOM      8  N   UNL     1       0.357  -8.129   1.542  0.00  0.00    -0.164 NA
ATOM      9  N   UNL     1      -0.795  -4.778   1.082  0.00  0.00    -0.322 N 
ATOM     10  H   UNL     1      -1.463  -4.221   1.512  0.00  0.00    +0.148 HD
ENDROOT
BRANCH   1  15
ATOM     11  C   UNL     1       0.018   1.518   0.080  0.00  0.00    +0.044 C 
ATOM     12  C   UNL     1       0.036   0.011   0.063  0.00  0.00    -0.050 A 
ATOM     13  C   UNL     1       0.045  -0.667  -1.141  0.00  0.00    +0.004 A 
ATOM     14  C   UNL     1       0.062  -2.049  -1.157  0.00  0.00    +0.006 A 
ATOM     15  C   UNL     1       0.070  -2.753   0.033  0.00  0.00    -0.027 A 
ATOM     16  C   UNL     1       0.061  -2.075   1.238  0.00  0.00    +0.006 A 
ATOM     17  C   UNL     1       0.049  -0.693   1.253  0.00  0.00    +0.004 A 
ENDBRANCH   1  15
BRANCH   7  18
ATOM     18  C   UNL     1      -1.270  -9.373   2.964  0.00  0.00    +0.268 C 
ATOM     19  O   UNL     1      -2.316  -9.307   3.580  0.00  0.00    -0.268 OA
ATOM     20  N   UNL     1      -0.575 -10.528   2.937  0.00  0.00    -0.280 N 
ATOM     21  H   UNL     1       0.216 -10.605   2.381  0.00  0.00    +0.155 HD
BRANCH  20  22
ATOM     22  C   UNL     1      -0.996 -11.615   3.710  0.00  0.00    +0.037 A 
ATOM     23  C   UNL     1      -1.758 -11.404   4.852  0.00  0.00    +0.023 A 
ATOM     24  C   UNL     1      -2.172 -12.479   5.613  0.00  0.00    +0.002 A 
ATOM     25  C   UNL     1      -1.827 -13.766   5.239  0.00  0.00    +0.004 A 
ATOM     26  C   UNL     1      -1.069 -13.979   4.103  0.00  0.00    -0.046 A 
ATOM     27  C   UNL     1      -0.657 -12.909   3.334  0.00  0.00    -0.026 A 
ATOM     28  C   UNL     1       0.165 -13.143   2.093  0.00  0.00    +0.046 C 
ATOM     29  C   UNL     1      -0.696 -15.383   3.700  0.00  0.00    +0.044 C 
ENDBRANCH  20  22
ENDBRANCH   7  18
BRANCH   3  30
ATOM     30  C   UNL     1       2.905  -6.799   0.687  0.00  0.00    +0.412 C 
ATOM     31  F   UNL     1       3.091  -6.401   2.015  0.00  0.00    -0.168 F 
ATOM     32  F   UNL     1       2.937  -8.195   0.610  0.00  0.00    -0.168 F 
ATOM     33  F   UNL     1       3.925  -6.264  -0.107  0.00  0.00    -0.168 F 
ENDBRANCH   3  30
TORSDOF 4
