REMARK  Name = ZINC12347486
REMARK  6 active torsions:
REMARK  status: ('A' for Active; 'I' for Inactive)
REMARK    1  A    between atoms: C_1  and  C_2
REMARK    2  A    between atoms: C_2  and  C_27
REMARK    3  A    between atoms: C_6  and  C_16
REMARK    4  A    between atoms: C_13  and  O_14
REMARK    5  A    between atoms: C_19  and  S_22
REMARK    6  A    between atoms: S_22  and  C_23
REMARK                            x       y       z     vdW  Elec       q    Type
REMARK                         _______ _______ _______ _____ _____    ______ ____
ROOT
ATOM      1  C   UNL     1      -3.174   3.530   3.486  0.00  0.00    +0.011 C 
ATOM      2  C   UNL     1      -4.220   2.432   3.688  0.00  0.00    -0.023 C 
ATOM      3  C   UNL     1      -5.176   2.405   2.495  0.00  0.00    +0.058 C 
ATOM      4  C   UNL     1      -4.407   2.098   1.231  0.00  0.00    +0.017 C 
ATOM      5  C   UNL     1      -3.303   1.319   1.264  0.00  0.00    +0.024 C 
ATOM      6  C   UNL     1      -2.513   0.976   0.020  0.00  0.00    +0.092 C 
ATOM      7  C   UNL     1      -3.312   1.334  -1.201  0.00  0.00    +0.067 A 
ATOM      8  C   UNL     1      -4.428   2.126  -1.143  0.00  0.00    +0.126 A 
ATOM      9  N   UNL     1      -4.904   2.258  -2.395  0.00  0.00    -0.260 N 
ATOM     10  H   UNL     1      -5.711   2.783  -2.666  0.00  0.00    +0.190 HD
ATOM     11  N   UNL     1      -4.066   1.526  -3.251  0.00  0.00    -0.134 NA
ATOM     12  C   UNL     1      -3.114   0.975  -2.531  0.00  0.00    +0.237 A 
ATOM     13  N   UNL     1      -4.889   2.637   0.064  0.00  0.00    -0.303 N 
ATOM     14  C   UNL     1      -2.832   0.788   2.478  0.00  0.00    +0.162 C 
ATOM     15  O   UNL     1      -1.840   0.086   2.474  0.00  0.00    -0.292 OA
ATOM     16  C   UNL     1      -3.527   1.069   3.781  0.00  0.00    +0.086 C 
ATOM     17  C   UNL     1      -5.007   2.700   4.973  0.00  0.00    +0.011 C 
ATOM     18  H   UNL     1      -5.538   3.358   0.082  0.00  0.00    +0.153 HD
ENDROOT
BRANCH   6  19
ATOM     19  C   UNL     1      -1.220   1.750   0.017  0.00  0.00    -0.035 A 
ATOM     20  C   UNL     1      -0.013   1.076   0.008  0.00  0.00    +0.005 A 
ATOM     21  C   UNL     1       1.174   1.782   0.000  0.00  0.00    +0.015 A 
ATOM     22  C   UNL     1       1.154   3.171   0.008  0.00  0.00    +0.008 A 
ATOM     23  C   UNL     1      -0.061   3.845   0.022  0.00  0.00    +0.015 A 
ATOM     24  C   UNL     1      -1.244   3.133   0.030  0.00  0.00    +0.005 A 
BRANCH  22  25
ATOM     25  S   UNL     1       2.666   4.076  -0.001  0.00  0.00    -0.129 S 
ATOM     26  C   UNL     1       2.139   5.812   0.012  0.00  0.00    +0.090 C 
ENDBRANCH  22  25
ENDBRANCH   6  19
BRANCH  12  27
ATOM     27  O   UNL     1      -2.109   0.190  -3.004  0.00  0.00    -0.491 OA
ATOM     28  H   UNL     1      -2.202   0.091  -3.995  0.00  0.00    +0.294 HD
ENDBRANCH  12  27
TORSDOF 3
