REMARK  Name = ZINC12035245
REMARK  10 active torsions:
REMARK  status: ('A' for Active; 'I' for Inactive)
REMARK    1  A    between atoms: C_1  and  C_2
REMARK    2  A    between atoms: C_2  and  C_3
REMARK    3  A    between atoms: C_2  and  C_4
REMARK    4  A    between atoms: C_2  and  O_32
REMARK    5  A    between atoms: C_5  and  C_6
REMARK    6  A    between atoms: C_9  and  C_12
REMARK    7  A    between atoms: C_12  and  N_64
REMARK    8  A    between atoms: C_15  and  C_18
REMARK    9  A    between atoms: C_18  and  C_25
REMARK   10  A    between atoms: C_25  and  C_26
REMARK                            x       y       z     vdW  Elec       q    Type
REMARK                         _______ _______ _______ _____ _____    ______ ____
ROOT
ATOM      1  C   UNL     1       1.344   2.014   0.000  0.00  0.00    -0.078 C 
ATOM      2  C   UNL     1       2.086   1.565   1.261  0.00  0.00    -0.013 C 
ATOM      3  C   UNL     1       2.133   0.035   1.302  0.00  0.00    +0.018 C 
ATOM      4  C   UNL     1       0.704  -0.513   1.263  0.00  0.00    -0.013 C 
ATOM      5  C   UNL     1       0.002  -0.004   0.002  0.00  0.00    -0.078 C 
ATOM      6  N   UNL     1      -0.032   1.474   0.035  0.00  0.00    +0.382 N 
ATOM      7  H   UNL     1      -0.487   1.777   0.904  0.00  0.00    -0.081 HD
ENDROOT
BRANCH   3   8
ATOM      8  C   UNL     1       2.821  -0.422   2.591  0.00  0.00    +0.119 C 
ATOM      9  C   UNL     1       2.812  -1.934   2.692  0.00  0.00    +0.244 C 
ATOM     10  O   UNL     1       3.330  -2.722   1.930  0.00  0.00    -0.273 OA
ATOM     11  N   UNL     1       2.110  -2.221   3.806  0.00  0.00    -0.238 N 
ATOM     12  C   UNL     1       1.679  -1.111   4.417  0.00  0.00    +0.307 C 
ATOM     13  O   UNL     1       1.024  -1.114   5.441  0.00  0.00    -0.252 OA
ATOM     14  N   UNL     1       2.053   0.012   3.770  0.00  0.00    -0.284 N 
ATOM     15  H   UNL     1       1.940  -3.120   4.127  0.00  0.00    +0.159 HD
ATOM     16  H   UNL     1       1.855   0.926   4.029  0.00  0.00    +0.151 HD
BRANCH   8  17
ATOM     17  C   UNL     1       4.253   0.114   2.654  0.00  0.00    +0.070 C 
BRANCH  17  18
ATOM     18  C   UNL     1       4.906  -0.350   3.930  0.00  0.00    -0.045 A 
ATOM     19  C   UNL     1       4.819   0.424   5.072  0.00  0.00    +0.004 A 
ATOM     20  C   UNL     1       5.415  -0.003   6.244  0.00  0.00    +0.000 A 
ATOM     21  C   UNL     1       6.107  -1.200   6.271  0.00  0.00    +0.000 A 
ATOM     22  C   UNL     1       6.199  -1.971   5.127  0.00  0.00    +0.000 A 
ATOM     23  C   UNL     1       5.599  -1.546   3.957  0.00  0.00    +0.004 A 
ENDBRANCH  17  18
ENDBRANCH   8  17
ENDBRANCH   3   8
BRANCH   6  24
ATOM     24  C   UNL     1      -0.804   1.986  -1.115  0.00  0.00    -0.043 C 
BRANCH  24  28
ATOM     25  C   UNL     1      -1.386   6.194  -0.619  0.00  0.00    +0.025 A 
ATOM     26  C   UNL     1      -0.273   5.717  -1.313  0.00  0.00    +0.017 A 
ATOM     27  C   UNL     1      -0.091   4.358  -1.469  0.00  0.00    +0.003 A 
ATOM     28  C   UNL     1      -1.009   3.469  -0.940  0.00  0.00    -0.064 A 
ATOM     29  C   UNL     1      -2.118   3.935  -0.256  0.00  0.00    +0.003 A 
ATOM     30  C   UNL     1      -2.308   5.291  -0.088  0.00  0.00    +0.017 A 
BRANCH  25  32
ATOM     31  C   UNL     1      -1.740   8.758  -0.318  0.00  0.00    -0.063 C 
ATOM     32  C   UNL     1      -1.581   7.603  -0.454  0.00  0.00    -0.063 C 
BRANCH  31  34
ATOM     33  C   UNL     1      -3.227  10.453   0.644  0.00  0.00    +0.055 C 
ATOM     34  C   UNL     1      -1.941  10.206  -0.148  0.00  0.00    +0.121 C 
ATOM     35  C   UNL     1      -0.753  10.800   0.612  0.00  0.00    +0.055 C 
BRANCH  34  36
ATOM     36  O   UNL     1      -2.044  10.826  -1.431  0.00  0.00    -0.377 OA
ATOM     37  H   UNL     1      -2.178  11.784  -1.395  0.00  0.00    +0.211 HD
ENDBRANCH  34  36
ENDBRANCH  31  34
ENDBRANCH  25  32
ENDBRANCH  24  28
ENDBRANCH   6  24
TORSDOF 8
