REMARK  Name = ZINC16599785
REMARK  10 active torsions:
REMARK  status: ('A' for Active; 'I' for Inactive)
REMARK    1  A    between atoms: C_1  and  N_64
REMARK    2  A    between atoms: C_2  and  N_64
REMARK    3  A    between atoms: C_3  and  C_5
REMARK    4  A    between atoms: C_3  and  C_31
REMARK    5  A    between atoms: C_3  and  N_64
REMARK    6  A    between atoms: C_5  and  N_6
REMARK    7  A    between atoms: C_7  and  C_9
REMARK    8  A    between atoms: C_11  and  C_25
REMARK    9  A    between atoms: N_17  and  C_18
REMARK   10  A    between atoms: C_18  and  C_19
REMARK                            x       y       z     vdW  Elec       q    Type
REMARK                         _______ _______ _______ _____ _____    ______ ____
ROOT
ATOM      1  C   UNL     1       1.626  -1.714  -4.847  0.00  0.00    +0.051 A 
ATOM      2  C   UNL     1       0.900  -2.900  -4.865  0.00  0.00    +0.042 A 
ATOM      3  C   UNL     1       0.030  -3.185  -3.809  0.00  0.00    +0.074 A 
ATOM      4  N   UNL     1      -0.117  -2.352  -2.792  0.00  0.00    -0.228 NA
ATOM      5  C   UNL     1       0.552  -1.212  -2.720  0.00  0.00    +0.160 A 
ATOM      6  C   UNL     1       1.447  -0.844  -3.747  0.00  0.00    +0.051 A 
ATOM      7  C   UNL     1       1.994   0.407  -3.392  0.00  0.00    +0.145 A 
ATOM      8  N   UNL     1       1.479   0.779  -2.255  0.00  0.00    -0.177 NA
ATOM      9  N   UNL     1       0.578  -0.193  -1.803  0.00  0.00    -0.242 N 
ENDROOT
BRANCH   3  10
ATOM     10  C   UNL     1      -0.745  -4.449  -3.829  0.00  0.00    +0.000 A 
ATOM     11  C   UNL     1      -0.607  -5.337  -4.894  0.00  0.00    +0.010 A 
ATOM     12  C   UNL     1      -1.327  -6.515  -4.905  0.00  0.00    +0.001 A 
ATOM     13  C   UNL     1      -2.192  -6.809  -3.866  0.00  0.00    +0.000 A 
ATOM     14  C   UNL     1      -2.336  -5.929  -2.808  0.00  0.00    +0.001 A 
ATOM     15  C   UNL     1      -1.617  -4.752  -2.784  0.00  0.00    +0.010 A 
ENDBRANCH   3  10
BRANCH   1  17
ATOM     16  N   UNL     1       2.713  -2.217  -6.982  0.00  0.00    -0.313 N 
ATOM     17  C   UNL     1       2.558  -1.373  -5.944  0.00  0.00    +0.245 C 
ATOM     18  O   UNL     1       3.183  -0.332  -5.908  0.00  0.00    -0.270 OA
ATOM     19  H   UNL     1       2.213  -3.049  -7.011  0.00  0.00    +0.149 HD
BRANCH  16  20
ATOM     20  C   UNL     1       3.636  -1.880  -8.069  0.00  0.00    +0.094 C 
BRANCH  20  21
ATOM     21  C   UNL     1       3.723  -3.053  -9.047  0.00  0.00    -0.021 C 
BRANCH  21  22
ATOM     22  C   UNL     1       4.304  -4.252  -8.343  0.00  0.00    -0.059 A 
ATOM     23  C   UNL     1       5.671  -4.353  -8.162  0.00  0.00    +0.002 A 
ATOM     24  C   UNL     1       6.204  -5.450  -7.513  0.00  0.00    +0.000 A 
ATOM     25  C   UNL     1       5.370  -6.452  -7.051  0.00  0.00    +0.000 A 
ATOM     26  C   UNL     1       4.004  -6.354  -7.236  0.00  0.00    +0.000 A 
ATOM     27  C   UNL     1       3.471  -5.254  -7.882  0.00  0.00    +0.002 A 
ENDBRANCH  21  22
BRANCH  21  30
ATOM     28  C   UNL     1       4.650  -3.771 -11.165  0.00  0.00    -0.096 C 
ATOM     29  C   UNL     1       4.130  -1.435 -10.801  0.00  0.00    -0.096 C 
ATOM     30  N   UNL     1       4.611  -2.681 -10.168  0.00  0.00    +0.382 N 
ATOM     31  H   UNL     1       5.559  -2.526  -9.806  0.00  0.00    -0.082 HD
ENDBRANCH  21  30
ENDBRANCH  20  21
ENDBRANCH  16  20
ENDBRANCH   1  17
BRANCH   9  32
ATOM     32  C   UNL     1      -0.198  -0.134  -0.561  0.00  0.00    +0.181 C 
BRANCH  32  33
ATOM     33  C   UNL     1      -1.518   0.542  -0.826  0.00  0.00    -0.023 A 
ATOM     34  C   UNL     1      -2.629  -0.195  -1.207  0.00  0.00    +0.025 A 
ATOM     35  C   UNL     1      -3.822   0.461  -1.446  0.00  0.00    +0.111 A 
ATOM     36  N   UNL     1      -3.913   1.769  -1.306  0.00  0.00    -0.263 NA
ATOM     37  C   UNL     1      -2.878   2.501  -0.946  0.00  0.00    +0.111 A 
ATOM     38  C   UNL     1      -1.651   1.916  -0.695  0.00  0.00    +0.025 A 
ENDBRANCH  32  33
ENDBRANCH   9  32
TORSDOF 8
