REMARK  Name = ZINC30446454
REMARK  3 active torsions:
REMARK  status: ('A' for Active; 'I' for Inactive)
REMARK    1  A    between atoms: C_1  and  C_2
REMARK    2  A    between atoms: N_10  and  S_13
REMARK    3  A    between atoms: S_13  and  C_16
REMARK                            x       y       z     vdW  Elec       q    Type
REMARK                         _______ _______ _______ _____ _____    ______ ____
ROOT
ATOM      1  C   UNL     1      -0.013   1.086   0.008  0.00  0.00    +0.066 C 
ATOM      2  C   UNL     1      -0.718   1.572   1.248  0.00  0.00    +0.047 A 
ATOM      3  C   UNL     1      -0.029   1.806   2.390  0.00  0.00    +0.071 A 
ATOM      4  S   UNL     1      -1.348   2.342   3.470  0.00  0.00    -0.060 S 
ATOM      5  C   UNL     1      -2.647   2.204   2.327  0.00  0.00    +0.161 A 
ATOM      6  N   UNL     1      -2.021   1.784   1.244  0.00  0.00    -0.230 NA
ATOM      7  N   UNL     1      -3.995   2.473   2.504  0.00  0.00    -0.307 N 
ATOM      8  C   UNL     1      -4.473   3.447   1.514  0.00  0.00    +0.124 C 
ATOM      9  C   UNL     1      -5.995   3.580   1.626  0.00  0.00    +0.128 C 
ATOM     10  N   UNL     1      -6.336   3.894   3.022  0.00  0.00    -0.178 NA
ATOM     11  C   UNL     1      -5.780   3.040   4.082  0.00  0.00    +0.128 C 
ATOM     12  C   UNL     1      -4.266   2.928   3.874  0.00  0.00    +0.124 C 
ENDROOT
BRANCH  10  13
ATOM     13  S   UNL     1      -7.319   5.175   3.390  0.00  0.00    +0.029 S 
ATOM     14  O   UNL     1      -8.122   5.360   2.232  0.00  0.00    -0.158 OA
ATOM     15  O   UNL     1      -7.911   4.831   4.635  0.00  0.00    -0.158 OA
ATOM     16  C   UNL     1      -6.192   6.581   3.600  0.00  0.00    +0.215 C 
ENDBRANCH  10  13
TORSDOF 1
