REMARK  Name = ZINC65292405
REMARK  8 active torsions:
REMARK  status: ('A' for Active; 'I' for Inactive)
REMARK    1  A    between atoms: C_1  and  C_2
REMARK    2  A    between atoms: C_2  and  C_4
REMARK    3  A    between atoms: C_2  and  N_9
REMARK    4  A    between atoms: C_10  and  C_12
REMARK    5  A    between atoms: N_17  and  C_26
REMARK    6  A    between atoms: C_26  and  C_27
REMARK    7  A    between atoms: C_27  and  C_28
REMARK    8  A    between atoms: C_27  and  C_29
REMARK                            x       y       z     vdW  Elec       q    Type
REMARK                         _______ _______ _______ _____ _____    ______ ____
ROOT
ATOM      1  C   UNL     1       0.766  -1.123   3.552  0.00  0.00    +0.148 A 
ATOM      2  C   UNL     1       0.208  -1.327   4.829  0.00  0.00    +0.068 A 
ATOM      3  C   UNL     1       1.248  -1.784   5.609  0.00  0.00    +0.133 A 
ATOM      4  C   UNL     1       1.343  -2.182   7.017  0.00  0.00    +0.277 A 
ATOM      5  O   UNL     1       0.362  -2.136   7.736  0.00  0.00    -0.265 OA
ATOM      6  N   UNL     1       2.528  -2.599   7.510  0.00  0.00    -0.305 N 
ATOM      7  C   UNL     1       3.651  -2.651   6.687  0.00  0.00    +0.070 A 
ATOM      8  C   UNL     1       4.865  -3.083   7.208  0.00  0.00    +0.028 A 
ATOM      9  C   UNL     1       5.983  -3.139   6.401  0.00  0.00    +0.002 A 
ATOM     10  C   UNL     1       5.901  -2.765   5.070  0.00  0.00    +0.002 A 
ATOM     11  C   UNL     1       4.701  -2.336   4.542  0.00  0.00    +0.030 A 
ATOM     12  C   UNL     1       3.570  -2.276   5.346  0.00  0.00    +0.090 A 
ATOM     13  N   UNL     1       2.357  -1.839   4.805  0.00  0.00    -0.225 N 
ATOM     14  N   UNL     1       2.043  -1.454   3.618  0.00  0.00    -0.161 NA
ENDROOT
BRANCH   1  16
ATOM     15  N   UNL     1       0.711  -0.489   1.189  0.00  0.00    -0.303 N 
ATOM     16  C   UNL     1       0.051  -0.633   2.355  0.00  0.00    +0.265 C 
ATOM     17  O   UNL     1      -1.132  -0.361   2.423  0.00  0.00    -0.268 OA
ATOM     18  H   UNL     1       1.654  -0.707   1.135  0.00  0.00    +0.150 HD
BRANCH  15  20
ATOM     19  C   UNL     1      -0.019   1.526   0.010  0.00  0.00    +0.033 C 
ATOM     20  C   UNL     1       0.002  -0.004   0.002  0.00  0.00    +0.107 C 
BRANCH  20  21
ATOM     21  C   UNL     1       0.707  -0.490  -1.238  0.00  0.00    +0.010 A 
ATOM     22  C   UNL     1       0.176  -0.943  -2.400  0.00  0.00    +0.013 A 
ATOM     23  C   UNL     1       1.026  -1.340  -3.415  0.00  0.00    +0.008 A 
ATOM     24  C   UNL     1       2.365  -1.266  -3.219  0.00  0.00    +0.045 A 
ATOM     25  S   UNL     1       2.459  -0.612  -1.560  0.00  0.00    -0.100 S 
ENDBRANCH  20  21
ENDBRANCH  15  20
ENDBRANCH   1  16
BRANCH   6  26
ATOM     26  C   UNL     1       2.634  -2.997   8.916  0.00  0.00    +0.128 C 
BRANCH  26  27
ATOM     27  C   UNL     1       2.343  -4.494   9.045  0.00  0.00    +0.003 C 
ATOM     28  C   UNL     1       2.575  -4.935  10.492  0.00  0.00    +0.009 C 
ATOM     29  C   UNL     1       0.888  -4.766   8.656  0.00  0.00    +0.009 C 
ENDBRANCH  26  27
ENDBRANCH   6  26
TORSDOF 5
