REMARK  Name = ZINC44876498
REMARK  11 active torsions:
REMARK  status: ('A' for Active; 'I' for Inactive)
REMARK    1  A    between atoms: C_1  and  C_2
REMARK    2  A    between atoms: C_2  and  S_3
REMARK    3  A    between atoms: S_3  and  N_6
REMARK    4  A    between atoms: N_6  and  C_7
REMARK    5  A    between atoms: N_6  and  C_26
REMARK    6  A    between atoms: C_7  and  C_8
REMARK    7  A    between atoms: N_10  and  C_11
REMARK    8  A    between atoms: C_11  and  C_12
REMARK    9  A    between atoms: C_15  and  C_18
REMARK   10  A    between atoms: C_18  and  N_19
REMARK   11  A    between atoms: C_22  and  C_25
REMARK                            x       y       z     vdW  Elec       q    Type
REMARK                         _______ _______ _______ _____ _____    ______ ____
ROOT
ATOM      1  C   UNL     1       3.283  -2.960   1.750  0.00  0.00    +0.232 C 
ATOM      2  O   UNL     1       3.010  -2.676   2.897  0.00  0.00    -0.274 OA
ATOM      3  N   UNL     1       4.505  -3.444   1.448  0.00  0.00    -0.310 N 
ATOM      4  H   UNL     1       4.723  -3.671   0.531  0.00  0.00    +0.149 HD
ENDROOT
BRANCH   1   5
ATOM      5  C   UNL     1       2.257  -2.773   0.663  0.00  0.00    +0.226 C 
BRANCH   5   6
ATOM      6  N   UNL     1       1.022  -2.239   1.243  0.00  0.00    -0.198 N 
BRANCH   6   7
ATOM      7  C   UNL     1       0.078  -3.108   1.800  0.00  0.00    +0.055 A 
ATOM      8  C   UNL     1      -0.517  -4.085   1.011  0.00  0.00    +0.028 A 
ATOM      9  C   UNL     1      -1.450  -4.944   1.559  0.00  0.00    +0.051 A 
ATOM     10  C   UNL     1      -1.794  -4.835   2.897  0.00  0.00    +0.166 A 
ATOM     11  C   UNL     1      -1.200  -3.857   3.690  0.00  0.00    +0.168 A 
ATOM     12  C   UNL     1      -0.261  -2.999   3.141  0.00  0.00    +0.074 A 
ATOM     13  O   UNL     1      -1.703  -3.956   4.955  0.00  0.00    -0.453 OA
ATOM     14  C   UNL     1      -2.908  -4.734   4.830  0.00  0.00    +0.466 C 
ATOM     15  O   UNL     1      -2.671  -5.546   3.666  0.00  0.00    -0.453 OA
ENDBRANCH   6   7
BRANCH   6  16
ATOM     16  S   UNL     1       0.745  -0.606   1.241  0.00  0.00    +0.046 S 
ATOM     17  O   UNL     1       2.035  -0.019   1.344  0.00  0.00    -0.155 OA
ATOM     18  O   UNL     1      -0.227  -0.402   2.257  0.00  0.00    -0.155 OA
BRANCH  16  20
ATOM     19  C   UNL     1      -0.093   1.256  -0.579  0.00  0.00    +0.030 C 
ATOM     20  C   UNL     1       0.028  -0.258  -0.388  0.00  0.00    +0.185 C 
ENDBRANCH  16  20
ENDBRANCH   6  16
ENDBRANCH   5   6
ENDBRANCH   1   5
BRANCH   3  21
ATOM     21  C   UNL     1       5.502  -3.627   2.506  0.00  0.00    +0.139 C 
BRANCH  21  22
ATOM     22  C   UNL     1       6.772  -4.176   1.908  0.00  0.00    -0.030 A 
ATOM     23  C   UNL     1       6.956  -5.542   1.811  0.00  0.00    +0.005 A 
ATOM     24  C   UNL     1       8.121  -6.046   1.264  0.00  0.00    +0.002 A 
ATOM     25  C   UNL     1       9.102  -5.183   0.812  0.00  0.00    -0.064 A 
ATOM     26  C   UNL     1       8.918  -3.817   0.909  0.00  0.00    +0.002 A 
ATOM     27  C   UNL     1       7.751  -3.313   1.453  0.00  0.00    +0.005 A 
BRANCH  25  28
ATOM     28  C   UNL     1      10.372  -5.732   0.216  0.00  0.00    -0.043 C 
BRANCH  28  29
ATOM     29  N   UNL     1      10.200  -5.902  -1.233  0.00  0.00    +0.382 N 
ATOM     30  C   UNL     1      10.004  -4.588  -1.857  0.00  0.00    -0.078 C 
ATOM     31  C   UNL     1       9.743  -4.765  -3.355  0.00  0.00    -0.016 C 
ATOM     32  C   UNL     1      10.945  -5.463  -3.998  0.00  0.00    -0.018 C 
ATOM     33  C   UNL     1      11.186  -6.799  -3.289  0.00  0.00    -0.016 C 
ATOM     34  C   UNL     1      11.393  -6.547  -1.794  0.00  0.00    -0.078 C 
ATOM     35  C   UNL     1      10.658  -5.715  -5.479  0.00  0.00    +0.007 C 
ATOM     36  H   UNL     1       9.392  -6.480  -1.409  0.00  0.00    -0.081 HD
ENDBRANCH  28  29
ENDBRANCH  25  28
ENDBRANCH  21  22
ENDBRANCH   3  21
TORSDOF 9
