REMARK  Name = ZINC40209974
REMARK  15 active torsions:
REMARK  status: ('A' for Active; 'I' for Inactive)
REMARK    1  A    between atoms: C_1  and  C_2
REMARK    2  A    between atoms: C_5  and  C_38
REMARK    3  A    between atoms: C_6  and  O_8
REMARK    4  A    between atoms: O_8  and  C_9
REMARK    5  A    between atoms: C_9  and  C_10
REMARK    6  A    between atoms: N_12  and  C_13
REMARK    7  A    between atoms: C_13  and  C_14
REMARK    8  A    between atoms: C_14  and  C_15
REMARK    9  A    between atoms: C_15  and  C_16
REMARK   10  A    between atoms: N_24  and  C_25
REMARK   11  A    between atoms: C_25  and  C_26
REMARK   12  A    between atoms: N_28  and  C_29
REMARK   13  A    between atoms: N_28  and  C_35
REMARK   14  A    between atoms: C_35  and  C_36
REMARK   15  A    between atoms: C_35  and  C_37
REMARK                            x       y       z     vdW  Elec       q    Type
REMARK                         _______ _______ _______ _____ _____    ______ ____
ROOT
ATOM      1  C   UNL     1      -0.432  -2.262   9.250  0.00  0.00    +0.111 A 
ATOM      2  N   UNL     1       0.813  -1.914   9.399  0.00  0.00    -0.232 NA
ATOM      3  C   UNL     1       1.004  -1.426  10.651  0.00  0.00    +0.089 A 
ATOM      4  C   UNL     1       2.117  -0.922  11.330  0.00  0.00    +0.030 A 
ATOM      5  C   UNL     1       1.990  -0.495  12.621  0.00  0.00    +0.002 A 
ATOM      6  C   UNL     1       0.765  -0.556  13.271  0.00  0.00    +0.002 A 
ATOM      7  C   UNL     1      -0.346  -1.049  12.621  0.00  0.00    +0.028 A 
ATOM      8  C   UNL     1      -0.237  -1.487  11.308  0.00  0.00    +0.069 A 
ATOM      9  N   UNL     1      -1.126  -2.015  10.393  0.00  0.00    -0.319 N 
ENDROOT
BRANCH   1  10
ATOM     10  C   UNL     1      -1.020  -2.847   7.992  0.00  0.00    +0.076 C 
BRANCH  10  11
ATOM     11  C   UNL     1      -1.527  -1.717   7.093  0.00  0.00    +0.026 C 
BRANCH  11  12
ATOM     12  C   UNL     1      -2.124  -2.311   5.815  0.00  0.00    +0.104 C 
BRANCH  12  15
ATOM     13  C   UNL     1      -3.180  -1.517   3.768  0.00  0.00    +0.251 C 
ATOM     14  O   UNL     1      -3.291  -2.671   3.412  0.00  0.00    -0.272 OA
ATOM     15  N   UNL     1      -2.610  -1.229   4.955  0.00  0.00    -0.312 N 
ATOM     16  H   UNL     1      -2.521  -0.306   5.239  0.00  0.00    +0.149 HD
BRANCH  13  17
ATOM     17  C   UNL     1      -3.679  -0.404   2.882  0.00  0.00    +0.324 C 
BRANCH  17  18
ATOM     18  O   UNL     1      -4.237  -0.959   1.689  0.00  0.00    -0.483 OA
BRANCH  18  24
ATOM     19  C   UNL     1      -5.148   3.650   0.365  0.00  0.00    +0.044 C 
ATOM     20  C   UNL     1      -5.198   2.168   0.096  0.00  0.00    -0.047 A 
ATOM     21  C   UNL     1      -5.752   1.697  -1.080  0.00  0.00    +0.004 A 
ATOM     22  C   UNL     1      -5.799   0.338  -1.330  0.00  0.00    +0.007 A 
ATOM     23  C   UNL     1      -5.293  -0.553  -0.404  0.00  0.00    -0.009 A 
ATOM     24  C   UNL     1      -4.736  -0.084   0.777  0.00  0.00    +0.124 A 
ATOM     25  C   UNL     1      -4.684   1.281   1.022  0.00  0.00    +0.049 A 
ATOM     26  C   UNL     1      -5.345  -2.035  -0.676  0.00  0.00    +0.047 C 
ENDBRANCH  18  24
ENDBRANCH  17  18
ENDBRANCH  13  17
ENDBRANCH  12  15
ENDBRANCH  11  12
ENDBRANCH  10  11
ENDBRANCH   1  10
BRANCH   9  27
ATOM     27  C   UNL     1      -2.552  -2.267  10.614  0.00  0.00    +0.219 C 
BRANCH  27  28
ATOM     28  C   UNL     1      -2.739  -3.660  11.156  0.00  0.00    +0.240 C 
ATOM     29  O   UNL     1      -1.775  -4.374  11.339  0.00  0.00    -0.273 OA
ATOM     30  N   UNL     1      -3.977  -4.114  11.437  0.00  0.00    -0.267 N 
BRANCH  30  31
ATOM     31  C   UNL     1      -4.160  -5.440  11.844  0.00  0.00    +0.037 A 
ATOM     32  C   UNL     1      -4.089  -5.771  13.191  0.00  0.00    +0.023 A 
ATOM     33  C   UNL     1      -4.270  -7.081  13.589  0.00  0.00    +0.002 A 
ATOM     34  C   UNL     1      -4.522  -8.063  12.648  0.00  0.00    +0.000 A 
ATOM     35  C   UNL     1      -4.593  -7.737  11.306  0.00  0.00    +0.002 A 
ATOM     36  C   UNL     1      -4.418  -6.428  10.902  0.00  0.00    +0.023 A 
ENDBRANCH  30  31
BRANCH  30  37
ATOM     37  C   UNL     1      -5.130  -3.219  11.316  0.00  0.00    +0.075 C 
ATOM     38  C   UNL     1      -6.157  -3.836  10.364  0.00  0.00    +0.028 C 
ATOM     39  C   UNL     1      -5.766  -3.019  12.693  0.00  0.00    +0.028 C 
ENDBRANCH  30  37
ENDBRANCH  27  28
ENDBRANCH   9  27
TORSDOF 11
