REMARK  Name = ZINC14272749
REMARK  13 active torsions:
REMARK  status: ('A' for Active; 'I' for Inactive)
REMARK    1  A    between atoms: C_1  and  C_2
REMARK    2  A    between atoms: C_5  and  C_32
REMARK    3  A    between atoms: C_6  and  O_8
REMARK    4  A    between atoms: O_8  and  C_9
REMARK    5  A    between atoms: C_9  and  C_10
REMARK    6  A    between atoms: N_12  and  C_13
REMARK    7  A    between atoms: C_18  and  C_19
REMARK    8  A    between atoms: N_21  and  C_23
REMARK    9  A    between atoms: C_26  and  C_29
REMARK   10  A    between atoms: C_29  and  C_30
REMARK   11  A    between atoms: C_29  and  C_31
REMARK   12  A    between atoms: C_32  and  C_33
REMARK   13  A    between atoms: C_32  and  C_34
REMARK                            x       y       z     vdW  Elec       q    Type
REMARK                         _______ _______ _______ _____ _____    ______ ____
ROOT
ATOM      1  C   UNL     1      -4.837   3.666   8.475  0.00  0.00    +0.039 A 
ATOM      2  C   UNL     1      -4.414   2.610   7.722  0.00  0.00    +0.055 A 
ATOM      3  C   UNL     1      -3.744   2.849   6.511  0.00  0.00    +0.115 A 
ATOM      4  C   UNL     1      -3.517   4.240   6.088  0.00  0.00    +0.114 A 
ATOM      5  C   UNL     1      -3.978   5.284   6.910  0.00  0.00    +0.037 A 
ATOM      6  C   UNL     1      -4.619   4.990   8.070  0.00  0.00    -0.027 A 
ATOM      7  C   UNL     1      -5.110   6.115   8.944  0.00  0.00    +0.046 C 
ATOM      8  N   UNL     1      -2.872   4.141   4.937  0.00  0.00    -0.147 NA
ATOM      9  N   UNL     1      -2.715   2.895   4.653  0.00  0.00    -0.149 N 
ATOM     10  N   UNL     1      -3.207   2.114   5.550  0.00  0.00    -0.147 NA
ENDROOT
BRANCH   9  11
ATOM     11  C   UNL     1      -2.071   2.438   3.496  0.00  0.00    +0.086 A 
ATOM     12  C   UNL     1      -1.937   1.075   3.266  0.00  0.00    +0.030 A 
ATOM     13  C   UNL     1      -1.303   0.629   2.123  0.00  0.00    +0.006 A 
ATOM     14  C   UNL     1      -0.801   1.537   1.209  0.00  0.00    -0.045 A 
ATOM     15  C   UNL     1      -0.928   2.895   1.438  0.00  0.00    +0.006 A 
ATOM     16  C   UNL     1      -1.566   3.348   2.576  0.00  0.00    +0.030 A 
BRANCH  14  17
ATOM     17  C   UNL     1      -0.109   1.046  -0.036  0.00  0.00    +0.013 C 
ATOM     18  C   UNL     1       1.329   1.567  -0.060  0.00  0.00    +0.012 C 
ATOM     19  C   UNL     1      -0.857   1.556  -1.270  0.00  0.00    +0.012 C 
ENDBRANCH  14  17
ENDBRANCH   9  11
BRANCH   1  22
ATOM     20  C   UNL     1      -5.300   2.266  10.342  0.00  0.00    +0.255 C 
ATOM     21  O   UNL     1      -4.464   1.481   9.947  0.00  0.00    -0.272 OA
ATOM     22  N   UNL     1      -5.505   3.422   9.681  0.00  0.00    -0.282 N 
ATOM     23  H   UNL     1      -6.115   4.085  10.040  0.00  0.00    +0.155 HD
BRANCH  20  24
ATOM     24  C   UNL     1      -6.110   1.947  11.572  0.00  0.00    +0.324 C 
BRANCH  24  25
ATOM     25  O   UNL     1      -5.712   0.676  12.089  0.00  0.00    -0.482 OA
BRANCH  25  31
ATOM     26  C   UNL     1      -9.060   1.408  15.564  0.00  0.00    +0.044 C 
ATOM     27  C   UNL     1      -7.986   0.565  14.927  0.00  0.00    -0.047 A 
ATOM     28  C   UNL     1      -7.648  -0.657  15.479  0.00  0.00    +0.004 A 
ATOM     29  C   UNL     1      -6.663  -1.433  14.897  0.00  0.00    +0.008 A 
ATOM     30  C   UNL     1      -6.013  -0.988  13.762  0.00  0.00    -0.003 A 
ATOM     31  C   UNL     1      -6.350   0.237  13.206  0.00  0.00    +0.125 A 
ATOM     32  C   UNL     1      -7.335   1.016  13.795  0.00  0.00    +0.049 A 
BRANCH  30  33
ATOM     33  C   UNL     1      -4.939  -1.834  13.128  0.00  0.00    +0.016 C 
ATOM     34  C   UNL     1      -3.809  -2.063  14.134  0.00  0.00    +0.012 C 
ATOM     35  C   UNL     1      -5.532  -3.182  12.711  0.00  0.00    +0.012 C 
ENDBRANCH  30  33
ENDBRANCH  25  31
ENDBRANCH  24  25
ENDBRANCH  20  24
ENDBRANCH   1  22
TORSDOF 7
