REMARK  Name = ZINC14984406
REMARK  11 active torsions:
REMARK  status: ('A' for Active; 'I' for Inactive)
REMARK    1  A    between atoms: C_1  and  C_2
REMARK    2  A    between atoms: C_2  and  C_3
REMARK    3  A    between atoms: C_3  and  C_5
REMARK    4  A    between atoms: C_3  and  C_6
REMARK    5  A    between atoms: C_6  and  N_71
REMARK    6  A    between atoms: C_9  and  C_12
REMARK    7  A    between atoms: C_9  and  O_36
REMARK    8  A    between atoms: C_19  and  C_21
REMARK    9  A    between atoms: N_23  and  C_24
REMARK   10  A    between atoms: N_23  and  C_25
REMARK   11  A    between atoms: C_25  and  C_26
REMARK                            x       y       z     vdW  Elec       q    Type
REMARK                         _______ _______ _______ _____ _____    ______ ____
ROOT
ATOM      1  C   UNL     1      -2.513   8.809   0.521  0.00  0.00    -0.015 A 
ATOM      2  C   UNL     1      -1.198   8.672   0.096  0.00  0.00    +0.010 A 
ATOM      3  C   UNL     1      -0.586   7.437   0.086  0.00  0.00    +0.047 A 
ATOM      4  C   UNL     1      -1.289   6.313   0.503  0.00  0.00    +0.136 A 
ATOM      5  C   UNL     1      -2.622   6.457   0.932  0.00  0.00    +0.021 A 
ATOM      6  C   UNL     1      -3.224   7.718   0.935  0.00  0.00    +0.018 A 
ATOM      7  C   UNL     1      -3.068   5.114   1.298  0.00  0.00    +0.063 A 
ATOM      8  C   UNL     1      -2.012   4.291   1.071  0.00  0.00    +0.191 A 
ATOM      9  O   UNL     1      -0.967   5.009   0.608  0.00  0.00    -0.450 OA
ENDROOT
BRANCH   1  12
ATOM     10  C   UNL     1      -2.748  12.625   0.700  0.00  0.00    -0.076 C 
ATOM     11  C   UNL     1      -2.095  11.243   0.758  0.00  0.00    +0.021 C 
ATOM     12  C   UNL     1      -3.161  10.169   0.523  0.00  0.00    +0.088 C 
ATOM     13  C   UNL     1      -3.836  10.417  -0.828  0.00  0.00    +0.021 C 
ATOM     14  C   UNL     1      -4.438  11.824  -0.842  0.00  0.00    -0.076 C 
ATOM     15  N   UNL     1      -3.357  12.812  -0.635  0.00  0.00    +0.380 N 
ATOM     16  H   UNL     1      -2.637  12.672  -1.352  0.00  0.00    -0.082 HD
BRANCH  12  17
ATOM     17  O   UNL     1      -4.138  10.231   1.564  0.00  0.00    -0.384 OA
ATOM     18  H   UNL     1      -4.846   9.578   1.478  0.00  0.00    +0.211 HD
ENDBRANCH  12  17
BRANCH  15  19
ATOM     19  C   UNL     1      -3.896  14.182  -0.756  0.00  0.00    -0.076 C 
BRANCH  19  20
ATOM     20  C   UNL     1      -4.616  14.317  -2.099  0.00  0.00    -0.031 C 
ATOM     21  C   UNL     1      -5.270  15.697  -2.192  0.00  0.00    +0.005 C 
BRANCH  20  23
ATOM     22  C   UNL     1      -4.344  14.164  -4.578  0.00  0.00    +0.004 C 
ATOM     23  C   UNL     1      -3.607  14.154  -3.238  0.00  0.00    -0.002 C 
ENDBRANCH  20  23
ENDBRANCH  19  20
ENDBRANCH  15  19
ENDBRANCH   1  12
BRANCH   8  24
ATOM     24  C   UNL     1      -2.005   2.840   1.301  0.00  0.00    +0.282 C 
ATOM     25  O   UNL     1      -3.030   2.271   1.627  0.00  0.00    -0.267 OA
ATOM     26  N   UNL     1      -0.864   2.139   1.151  0.00  0.00    -0.294 N 
ATOM     27  C   UNL     1       0.394   2.837   0.873  0.00  0.00    +0.133 C 
BRANCH  26  28
ATOM     28  C   UNL     1      -0.881   0.678   1.260  0.00  0.00    +0.143 C 
BRANCH  28  29
ATOM     29  C   UNL     1      -0.565   0.276   2.677  0.00  0.00    -0.021 A 
ATOM     30  C   UNL     1      -0.232   1.221   3.599  0.00  0.00    +0.006 A 
ATOM     31  C   UNL     1       0.056   0.865   4.915  0.00  0.00    +0.002 A 
ATOM     32  C   UNL     1       0.027  -0.436   5.314  0.00  0.00    +0.028 A 
ATOM     33  C   UNL     1      -0.306  -1.441   4.389  0.00  0.00    +0.071 A 
ATOM     34  C   UNL     1      -0.606  -1.076   3.053  0.00  0.00    +0.005 A 
ATOM     35  C   UNL     1      -0.939  -2.085   2.129  0.00  0.00    +0.012 A 
ATOM     36  C   UNL     1      -0.957  -3.379   2.566  0.00  0.00    +0.020 A 
ATOM     37  C   UNL     1      -0.652  -3.669   3.894  0.00  0.00    +0.111 A 
ATOM     38  N   UNL     1      -0.343  -2.727   4.752  0.00  0.00    -0.255 NA
ENDBRANCH  28  29
ENDBRANCH  26  28
ENDBRANCH   8  24
TORSDOF 8
