REMARK  Name = ZINC08385096
REMARK  11 active torsions:
REMARK  status: ('A' for Active; 'I' for Inactive)
REMARK    1  A    between atoms: C_1  and  C_2
REMARK    2  A    between atoms: C_3  and  C_34
REMARK    3  A    between atoms: C_5  and  N_26
REMARK    4  A    between atoms: C_6  and  C_7
REMARK    5  A    between atoms: C_7  and  C_9
REMARK    6  A    between atoms: C_7  and  N_19
REMARK    7  A    between atoms: C_12  and  O_17
REMARK    8  A    between atoms: C_13  and  O_15
REMARK    9  A    between atoms: O_15  and  C_16
REMARK   10  A    between atoms: O_17  and  C_18
REMARK   11  A    between atoms: C_27  and  C_29
REMARK                            x       y       z     vdW  Elec       q    Type
REMARK                         _______ _______ _______ _____ _____    ______ ____
ROOT
ATOM      1  C   UNL     1       0.287  -0.262   2.636  0.00  0.00    +0.135 C 
ENDROOT
BRANCH   1   2
ATOM      2  N   UNL     1      -0.947  -0.680   3.306  0.00  0.00    -0.320 N 
ATOM      3  C   UNL     1      -2.028   0.190   3.378  0.00  0.00    +0.097 A 
ATOM      4  C   UNL     1      -1.975   1.411   2.713  0.00  0.00    +0.041 A 
ATOM      5  C   UNL     1      -3.058   2.268   2.794  0.00  0.00    +0.005 A 
ATOM      6  C   UNL     1      -4.161   1.874   3.539  0.00  0.00    +0.018 A 
ATOM      7  C   UNL     1      -4.145   0.648   4.173  0.00  0.00    +0.084 A 
ATOM      8  N   UNL     1      -3.100  -0.152   4.075  0.00  0.00    -0.350 N 
ATOM      9  H   UNL     1      -1.009  -1.565   3.699  0.00  0.00    +0.148 HD
ATOM     10  H   UNL     1      -3.117  -1.010   4.527  0.00  0.00    +0.166 HD
ENDBRANCH   1   2
BRANCH   1  16
ATOM     11  C   UNL     1       1.328   1.848   0.918  0.00  0.00    +0.045 C 
ATOM     12  C   UNL     1       0.589   0.676   0.327  0.00  0.00    -0.033 A 
ATOM     13  C   UNL     1       0.403   0.585  -1.012  0.00  0.00    -0.008 A 
ATOM     14  S   UNL     1      -0.500  -0.948  -1.160  0.00  0.00    -0.078 S 
ATOM     15  C   UNL     1      -0.572  -1.368   0.573  0.00  0.00    +0.078 A 
ATOM     16  C   UNL     1       0.095  -0.326   1.143  0.00  0.00    +0.009 A 
ATOM     17  C   UNL     1       0.845   1.533  -2.097  0.00  0.00    +0.052 C 
BRANCH  15  18
ATOM     18  N   UNL     1      -1.156  -2.479   1.186  0.00  0.00    -0.273 N 
ATOM     19  C   UNL     1      -1.664  -3.474   0.432  0.00  0.00    +0.284 C 
ATOM     20  O   UNL     1      -1.534  -3.449  -0.778  0.00  0.00    -0.266 OA
ATOM     21  H   UNL     1      -1.195  -2.534   2.153  0.00  0.00    +0.156 HD
BRANCH  19  22
ATOM     22  C   UNL     1      -2.373  -4.588   1.070  0.00  0.00    +0.189 A 
ATOM     23  C   UNL     1      -2.855  -5.699   0.439  0.00  0.00    +0.054 A 
ATOM     24  C   UNL     1      -3.456  -6.495   1.427  0.00  0.00    +0.042 A 
ATOM     25  C   UNL     1      -3.317  -5.843   2.602  0.00  0.00    +0.196 A 
ATOM     26  O   UNL     1      -2.658  -4.697   2.384  0.00  0.00    -0.458 OA
ENDBRANCH  19  22
ENDBRANCH  15  18
ENDBRANCH   1  16
BRANCH   1  27
ATOM     27  C   UNL     1       1.413  -1.181   3.038  0.00  0.00    -0.019 A 
ATOM     28  C   UNL     1       1.169  -2.529   3.224  0.00  0.00    +0.009 A 
ATOM     29  C   UNL     1       2.198  -3.376   3.591  0.00  0.00    +0.050 A 
ATOM     30  C   UNL     1       3.477  -2.874   3.774  0.00  0.00    +0.162 A 
ATOM     31  C   UNL     1       3.722  -1.517   3.586  0.00  0.00    +0.162 A 
ATOM     32  C   UNL     1       2.687  -0.675   3.213  0.00  0.00    +0.055 A 
BRANCH  31  33
ATOM     33  O   UNL     1       4.975  -1.020   3.764  0.00  0.00    -0.491 OA
ATOM     34  C   UNL     1       5.153   0.382   3.554  0.00  0.00    +0.277 C 
ENDBRANCH  31  33
BRANCH  30  35
ATOM     35  O   UNL     1       4.490  -3.706   4.136  0.00  0.00    -0.491 OA
ATOM     36  C   UNL     1       4.165  -5.086   4.312  0.00  0.00    +0.277 C 
ENDBRANCH  30  35
ENDBRANCH   1  27
TORSDOF 7
