REMARK  Name = ZINC21526700
REMARK  12 active torsions:
REMARK  status: ('A' for Active; 'I' for Inactive)
REMARK    1  A    between atoms: C_1  and  C_2
REMARK    2  A    between atoms: C_2  and  C_3
REMARK    3  A    between atoms: C_3  and  C_4
REMARK    4  A    between atoms: C_4  and  N_5
REMARK    5  A    between atoms: N_5  and  C_6
REMARK    6  A    between atoms: N_5  and  C_8
REMARK    7  A    between atoms: C_6  and  C_7
REMARK    8  A    between atoms: C_8  and  C_9
REMARK    9  A    between atoms: C_9  and  N_10
REMARK   10  A    between atoms: C_19  and  C_20
REMARK   11  A    between atoms: C_19  and  C_21
REMARK   12  A    between atoms: N_23  and  C_24
REMARK                            x       y       z     vdW  Elec       q    Type
REMARK                         _______ _______ _______ _____ _____    ______ ____
ROOT
ATOM      1  N   UNL     1      -2.285  -1.656   0.514  0.00  0.00    -0.282 N 
ATOM      2  C   UNL     1      -2.199  -2.291   1.707  0.00  0.00    +0.264 C 
ATOM      3  O   UNL     1      -2.032  -1.681   2.747  0.00  0.00    -0.268 OA
ATOM      4  C   UNL     1      -2.318  -3.754   1.679  0.00  0.00    +0.109 A 
ATOM      5  C   UNL     1      -2.448  -4.656   2.693  0.00  0.00    +0.079 A 
ATOM      6  C   UNL     1      -2.530  -5.931   2.115  0.00  0.00    +0.153 A 
ATOM      7  C   UNL     1      -2.429  -5.776   0.732  0.00  0.00    +0.088 A 
ATOM      8  N   UNL     1      -2.285  -4.447   0.470  0.00  0.00    -0.331 N 
ATOM      9  C   UNL     1      -2.108  -3.752  -0.808  0.00  0.00    +0.157 C 
ATOM     10  C   UNL     1      -2.707  -2.346  -0.699  0.00  0.00    +0.128 C 
ATOM     11  C   UNL     1      -2.267  -1.525  -1.913  0.00  0.00    +0.043 C 
ATOM     12  C   UNL     1      -2.519  -7.077   0.183  0.00  0.00    +0.067 A 
ATOM     13  C   UNL     1      -2.660  -7.934   1.209  0.00  0.00    +0.198 A 
ATOM     14  O   UNL     1      -2.665  -7.251   2.366  0.00  0.00    -0.461 OA
ENDROOT
BRANCH  10  15
ATOM     15  C   UNL     1      -4.210  -2.450  -0.703  0.00  0.00    +0.238 C 
ATOM     16  O   UNL     1      -4.821  -2.373  -1.748  0.00  0.00    -0.273 OA
ATOM     17  N   UNL     1      -4.876  -2.627   0.455  0.00  0.00    -0.311 N 
ATOM     18  H   UNL     1      -4.323  -2.697   1.403  0.00  0.00    +0.149 HD
BRANCH  17  19
ATOM     19  C   UNL     1      -6.338  -2.728   0.451  0.00  0.00    +0.073 C 
ATOM     20  C   UNL     1      -6.937  -1.307   0.452  0.00  0.00    +0.022 C 
ATOM     21  C   UNL     1      -8.351  -1.384  -0.059  0.00  0.00    +0.002 C 
ATOM     22  C   UNL     1      -9.381  -1.508   1.080  0.00  0.00    +0.000 C 
ATOM     23  C   UNL     1      -8.929  -2.473   2.192  0.00  0.00    +0.000 C 
ATOM     24  C   UNL     1      -8.287  -3.720   1.646  0.00  0.00    +0.002 C 
ATOM     25  C   UNL     1      -6.760  -3.506   1.607  0.00  0.00    +0.022 C 
ENDBRANCH  17  19
ENDBRANCH  10  15
BRANCH   1  26
ATOM     26  C   UNL     1      -1.949  -0.232   0.442  0.00  0.00    +0.091 C 
BRANCH  26  27
ATOM     27  C   UNL     1      -0.458  -0.074   0.138  0.00  0.00    -0.060 C 
BRANCH  27  28
ATOM     28  N   UNL     1      -0.122   1.354   0.065  0.00  0.00    +0.381 N 
ATOM     29  H   UNL     1      -0.495   1.836   0.981  0.00  0.00    -0.082 HD
BRANCH  28  30
ATOM     30  C   UNL     1      -0.782   1.993  -1.081  0.00  0.00    -0.082 C 
ATOM     31  C   UNL     1      -0.746   3.513  -0.908  0.00  0.00    -0.017 C 
ENDBRANCH  28  30
BRANCH  28  32
ATOM     32  C   UNL     1       1.333   1.551   0.012  0.00  0.00    -0.079 C 
BRANCH  32  33
ATOM     33  C   UNL     1       1.929   1.327   1.403  0.00  0.00    -0.019 C 
BRANCH  33  35
ATOM     34  C   UNL     1       4.021   1.428   2.766  0.00  0.00    +0.004 C 
ATOM     35  C   UNL     1       3.424   1.652   1.375  0.00  0.00    -0.005 C 
ENDBRANCH  33  35
ENDBRANCH  32  33
ENDBRANCH  28  32
ENDBRANCH  27  28
ENDBRANCH  26  27
ENDBRANCH   1  26
TORSDOF 9
