REMARK  Name = ZINC66153410
REMARK  10 active torsions:
REMARK  status: ('A' for Active; 'I' for Inactive)
REMARK    1  A    between atoms: C_1  and  C_2
REMARK    2  A    between atoms: C_2  and  C_3
REMARK    3  A    between atoms: C_2  and  C_4
REMARK    4  A    between atoms: C_2  and  N_5
REMARK    5  A    between atoms: C_6  and  C_8
REMARK    6  A    between atoms: C_13  and  N_14
REMARK    7  A    between atoms: C_15  and  C_17
REMARK    8  A    between atoms: C_17  and  C_18
REMARK    9  A    between atoms: C_18  and  C_19
REMARK   10  A    between atoms: C_22  and  N_25
REMARK                            x       y       z     vdW  Elec       q    Type
REMARK                         _______ _______ _______ _____ _____    ______ ____
ROOT
ATOM      1  N   UNL     1       4.608   0.720  -2.074  0.00  0.00    -0.285 N 
ATOM      2  C   UNL     1       5.955   0.757  -2.033  0.00  0.00    +0.218 C 
ATOM      3  O   UNL     1       6.604   0.084  -2.805  0.00  0.00    -0.275 OA
ATOM      4  H   UNL     1       4.089   1.303  -1.498  0.00  0.00    +0.155 HD
ENDROOT
BRANCH   1  10
ATOM      5  C   UNL     1       2.844  -0.883  -2.510  0.00  0.00    +0.058 A 
ATOM      6  C   UNL     1       2.202  -1.754  -3.393  0.00  0.00    +0.015 A 
ATOM      7  C   UNL     1       2.672  -1.897  -4.681  0.00  0.00    +0.001 A 
ATOM      8  C   UNL     1       3.780  -1.181  -5.105  0.00  0.00    +0.002 A 
ATOM      9  C   UNL     1       4.425  -0.317  -4.243  0.00  0.00    +0.024 A 
ATOM     10  C   UNL     1       3.962  -0.156  -2.944  0.00  0.00    +0.046 A 
BRANCH   5  12
ATOM     11  N   UNL     1       1.204  -1.333  -0.753  0.00  0.00    -0.307 N 
ATOM     12  C   UNL     1       2.346  -0.725  -1.130  0.00  0.00    +0.246 C 
ATOM     13  O   UNL     1       2.965  -0.046  -0.334  0.00  0.00    -0.270 OA
ATOM     14  H   UNL     1       0.709  -1.874  -1.388  0.00  0.00    +0.150 HD
BRANCH  11  16
ATOM     15  C   UNL     1       0.450   0.306   0.899  0.00  0.00    +0.031 C 
ATOM     16  C   UNL     1       0.709  -1.175   0.617  0.00  0.00    +0.026 C 
ATOM     17  C   UNL     1       1.753  -1.707   1.601  0.00  0.00    +0.031 C 
ATOM     18  C   UNL     1      -0.594  -1.961   0.782  0.00  0.00    +0.031 C 
ENDBRANCH  11  16
ENDBRANCH   5  12
ENDBRANCH   1  10
BRANCH   2  19
ATOM     19  C   UNL     1       6.654   1.635  -1.028  0.00  0.00    +0.101 C 
BRANCH  19  20
ATOM     20  C   UNL     1       8.168   1.493  -1.192  0.00  0.00    +0.044 C 
BRANCH  20  21
ATOM     21  C   UNL     1       8.867   2.372  -0.187  0.00  0.00    -0.047 A 
ATOM     22  C   UNL     1       9.181   3.679  -0.513  0.00  0.00    +0.005 A 
ATOM     23  C   UNL     1       9.822   4.486   0.406  0.00  0.00    +0.023 A 
ATOM     24  C   UNL     1      10.151   3.985   1.659  0.00  0.00    +0.025 A 
ATOM     25  C   UNL     1       9.834   2.672   1.984  0.00  0.00    +0.023 A 
ATOM     26  C   UNL     1       9.188   1.871   1.062  0.00  0.00    +0.005 A 
BRANCH  24  27
ATOM     27  N   UNL     1      10.799   4.799   2.591  0.00  0.00    -0.358 N 
ATOM     28  H   UNL     1      11.020   5.715   2.364  0.00  0.00    +0.142 HD
ATOM     29  H   UNL     1      11.028   4.447   3.466  0.00  0.00    +0.142 HD
ENDBRANCH  24  27
ENDBRANCH  20  21
ENDBRANCH  19  20
ENDBRANCH   2  19
TORSDOF 7
