REMARK  Name = ZINC58938534
REMARK  9 active torsions:
REMARK  status: ('A' for Active; 'I' for Inactive)
REMARK    1  A    between atoms: C_4  and  C_7
REMARK    2  A    between atoms: C_7  and  C_8
REMARK    3  A    between atoms: C_8  and  N_9
REMARK    4  A    between atoms: C_12  and  C_28
REMARK    5  A    between atoms: N_14  and  C_17
REMARK    6  A    between atoms: C_17  and  C_18
REMARK    7  A    between atoms: C_18  and  C_19
REMARK    8  A    between atoms: C_28  and  C_29
REMARK    9  A    between atoms: N_31  and  C_32
REMARK                            x       y       z     vdW  Elec       q    Type
REMARK                         _______ _______ _______ _____ _____    ______ ____
ROOT
ATOM      1  N   UNL     1       6.259  -2.485   2.478  0.00  0.00    -0.252 N 
ATOM      2  C   UNL     1       6.571  -3.774   2.241  0.00  0.00    +0.242 C 
ATOM      3  O   UNL     1       5.860  -4.742   2.405  0.00  0.00    -0.273 OA
ATOM      4  C   UNL     1       7.997  -3.763   1.726  0.00  0.00    +0.170 C 
ATOM      5  N   UNL     1       8.356  -2.334   1.734  0.00  0.00    -0.300 N 
ATOM      6  C   UNL     1       7.276  -1.668   2.182  0.00  0.00    +0.143 C 
ATOM      7  S   UNL     1       7.214   0.033   2.360  0.00  0.00    -0.018 S 
ENDROOT
BRANCH   1   8
ATOM      8  C   UNL     1       4.962  -2.033   2.989  0.00  0.00    +0.120 C 
BRANCH   8   9
ATOM      9  C   UNL     1       4.021  -1.752   1.816  0.00  0.00    +0.054 C 
BRANCH   9  13
ATOM     10  C   UNL     1       0.241  -0.433   3.305  0.00  0.00    +0.000 A 
ATOM     11  C   UNL     1       1.234   0.487   3.030  0.00  0.00    +0.000 A 
ATOM     12  C   UNL     1       2.458   0.060   2.548  0.00  0.00    +0.004 A 
ATOM     13  C   UNL     1       2.688  -1.287   2.342  0.00  0.00    -0.046 A 
ATOM     14  C   UNL     1       1.694  -2.208   2.618  0.00  0.00    +0.004 A 
ATOM     15  C   UNL     1       0.470  -1.781   3.098  0.00  0.00    +0.000 A 
ENDBRANCH   9  13
ENDBRANCH   8   9
ENDBRANCH   1   8
BRANCH   5  16
ATOM     16  C   UNL     1       9.637  -1.751   1.327  0.00  0.00    +0.112 C 
BRANCH  16  17
ATOM     17  C   UNL     1       9.550  -1.296  -0.131  0.00  0.00    +0.054 C 
BRANCH  17  18
ATOM     18  C   UNL     1      10.899  -0.799  -0.584  0.00  0.00    -0.042 A 
ATOM     19  C   UNL     1      11.198   0.548  -0.510  0.00  0.00    +0.007 A 
ATOM     20  C   UNL     1      12.435   1.008  -0.923  0.00  0.00    +0.050 A 
ATOM     21  C   UNL     1      13.377   0.119  -1.414  0.00  0.00    +0.166 A 
ATOM     22  C   UNL     1      13.075  -1.239  -1.489  0.00  0.00    +0.166 A 
ATOM     23  C   UNL     1      11.836  -1.693  -1.067  0.00  0.00    +0.053 A 
ATOM     24  O   UNL     1      14.155  -1.898  -2.000  0.00  0.00    -0.453 OA
ATOM     25  C   UNL     1      14.969  -0.883  -2.618  0.00  0.00    +0.466 C 
ATOM     26  O   UNL     1      14.646   0.310  -1.879  0.00  0.00    -0.453 OA
ENDBRANCH  17  18
ENDBRANCH  16  17
ENDBRANCH   5  16
BRANCH   4  27
ATOM     27  C   UNL     1       8.062  -4.330   0.307  0.00  0.00    +0.128 C 
BRANCH  27  28
ATOM     28  C   UNL     1       7.621  -5.771   0.322  0.00  0.00    +0.219 C 
ATOM     29  O   UNL     1       7.409  -6.330   1.378  0.00  0.00    -0.275 OA
ATOM     30  N   UNL     1       7.461  -6.439  -0.838  0.00  0.00    -0.285 N 
ATOM     31  H   UNL     1       7.710  -6.021  -1.677  0.00  0.00    +0.155 HD
BRANCH  30  32
ATOM     32  C   UNL     1       6.937  -7.738  -0.831  0.00  0.00    +0.034 A 
ATOM     33  C   UNL     1       5.957  -8.087   0.088  0.00  0.00    +0.026 A 
ATOM     34  C   UNL     1       5.440  -9.368   0.092  0.00  0.00    +0.040 A 
ATOM     35  C   UNL     1       5.900 -10.304  -0.819  0.00  0.00    +0.124 A 
ATOM     36  C   UNL     1       6.877  -9.957  -1.737  0.00  0.00    +0.040 A 
ATOM     37  C   UNL     1       7.392  -8.676  -1.748  0.00  0.00    +0.026 A 
ATOM     38  F   UNL     1       5.394 -11.557  -0.812  0.00  0.00    -0.205 F 
ENDBRANCH  30  32
ENDBRANCH  27  28
ENDBRANCH   4  27
TORSDOF 9
