REMARK  Name = ZINC52881325
REMARK  7 active torsions:
REMARK  status: ('A' for Active; 'I' for Inactive)
REMARK    1  A    between atoms: C_1  and  C_2
REMARK    2  A    between atoms: C_6  and  C_20
REMARK    3  A    between atoms: C_7  and  N_8
REMARK    4  A    between atoms: C_9  and  C_11
REMARK    5  A    between atoms: C_11  and  C_12
REMARK    6  A    between atoms: C_11  and  C_13
REMARK    7  A    between atoms: C_11  and  N_19
REMARK                            x       y       z     vdW  Elec       q    Type
REMARK                         _______ _______ _______ _____ _____    ______ ____
ROOT
ATOM      1  N   UNL     1       0.431   0.361   2.492  0.00  0.00    -0.283 N 
ATOM      2  C   UNL     1       0.180  -0.424   3.559  0.00  0.00    +0.241 C 
ATOM      3  O   UNL     1       0.376  -1.619   3.493  0.00  0.00    -0.273 OA
ATOM      4  H   UNL     1       0.321   1.322   2.561  0.00  0.00    +0.155 HD
ENDROOT
BRANCH   1  11
ATOM      5  C   UNL     1       2.618   1.562   1.125  0.00  0.00    +0.046 C 
ATOM      6  C   UNL     1       1.914   0.343   0.586  0.00  0.00    -0.028 A 
ATOM      7  C   UNL     1       2.330  -0.227  -0.601  0.00  0.00    +0.020 A 
ATOM      8  C   UNL     1       1.685  -1.346  -1.096  0.00  0.00    +0.018 A 
ATOM      9  C   UNL     1       0.621  -1.897  -0.403  0.00  0.00    +0.020 A 
ATOM     10  C   UNL     1       0.201  -1.331   0.784  0.00  0.00    -0.028 A 
ATOM     11  C   UNL     1       0.851  -0.211   1.286  0.00  0.00    +0.039 A 
ATOM     12  C   UNL     1      -0.958  -1.932   1.538  0.00  0.00    +0.046 C 
ATOM     13 BR   UNL     1       2.257  -2.124  -2.722  0.00  0.00    -0.050 Br
ENDBRANCH   1  11
BRANCH   2  14
ATOM     14  C   UNL     1      -0.345   0.184   4.834  0.00  0.00    +0.117 C 
ATOM     15  C   UNL     1      -1.864   0.342   4.737  0.00  0.00    +0.042 C 
BRANCH  14  16
ATOM     16  C   UNL     1      -0.007  -0.715   5.995  0.00  0.00    -0.019 A 
ATOM     17  C   UNL     1       0.961  -0.334   6.906  0.00  0.00    +0.006 A 
ATOM     18  C   UNL     1       1.271  -1.159   7.971  0.00  0.00    +0.000 A 
ATOM     19  C   UNL     1       0.613  -2.365   8.126  0.00  0.00    +0.000 A 
ATOM     20  C   UNL     1      -0.356  -2.746   7.215  0.00  0.00    +0.000 A 
ATOM     21  C   UNL     1      -0.669  -1.919   6.153  0.00  0.00    +0.006 A 
ENDBRANCH  14  16
BRANCH  14  22
ATOM     22  N   UNL     1       0.272   1.501   5.040  0.00  0.00    -0.314 NA
ATOM     23  H   UNL     1      -0.111   1.957   5.854  0.00  0.00    +0.119 HD
ATOM     24  H   UNL     1       1.276   1.423   5.107  0.00  0.00    +0.119 HD
ENDBRANCH  14  22
ENDBRANCH   2  14
TORSDOF 4
