REMARK  Name = ZINC30977051
REMARK  13 active torsions:
REMARK  status: ('A' for Active; 'I' for Inactive)
REMARK    1  A    between atoms: C_1  and  C_2
REMARK    2  A    between atoms: C_2  and  C_3
REMARK    3  A    between atoms: C_2  and  C_4
REMARK    4  A    between atoms: C_2  and  C_5
REMARK    5  A    between atoms: C_8  and  C_11
REMARK    6  A    between atoms: C_13  and  C_16
REMARK    7  A    between atoms: C_16  and  N_17
REMARK    8  A    between atoms: C_20  and  C_23
REMARK    9  A    between atoms: N_25  and  C_26
REMARK   10  A    between atoms: C_26  and  C_27
REMARK   11  A    between atoms: C_27  and  S_28
REMARK   12  A    between atoms: S_28  and  C_29
REMARK   13  A    between atoms: C_29  and  C_30
REMARK                            x       y       z     vdW  Elec       q    Type
REMARK                         _______ _______ _______ _____ _____    ______ ____
ROOT
ATOM      1  N   UNL     1       2.118  -4.631  -1.058  0.00  0.00    +0.386 N 
ATOM      2  C   UNL     1       1.393  -4.195  -2.259  0.00  0.00    -0.077 C 
ATOM      3  C   UNL     1       1.322  -2.667  -2.286  0.00  0.00    -0.006 C 
ATOM      4  C   UNL     1       0.606  -2.171  -1.026  0.00  0.00    +0.071 C 
ATOM      5  C   UNL     1       1.353  -2.680   0.210  0.00  0.00    -0.006 C 
ATOM      6  C   UNL     1       1.423  -4.208   0.165  0.00  0.00    -0.077 C 
ATOM      7  H   UNL     1       3.105  -4.146  -1.068  0.00  0.00    -0.081 HD
ENDROOT
BRANCH   4   8
ATOM      8  C   UNL     1       0.585  -0.664  -1.018  0.00  0.00    +0.216 C 
ATOM      9  O   UNL     1       1.093  -0.046  -1.929  0.00  0.00    -0.276 OA
ATOM     10  N   UNL     1       0.002  -0.004   0.002  0.00  0.00    -0.314 N 
ATOM     11  H   UNL     1      -0.459  -0.565   0.828  0.00  0.00    +0.149 HD
BRANCH  10  12
ATOM     12  C   UNL     1      -0.018   1.461   0.010  0.00  0.00    +0.115 C 
BRANCH  12  13
ATOM     13  C   UNL     1      -0.734   1.954   1.269  0.00  0.00    +0.088 C 
BRANCH  13  14
ATOM     14  S   UNL     1      -0.758   3.768   1.279  0.00  0.00    -0.155 S 
BRANCH  14  15
ATOM     15  C   UNL     1      -1.630   4.187   2.814  0.00  0.00    +0.104 C 
BRANCH  15  16
ATOM     16  C   UNL     1      -1.721   5.685   2.947  0.00  0.00    -0.037 A 
ATOM     17  C   UNL     1      -0.723   6.382   3.602  0.00  0.00    +0.006 A 
ATOM     18  C   UNL     1      -0.803   7.757   3.720  0.00  0.00    +0.020 A 
ATOM     19  C   UNL     1      -1.888   8.434   3.192  0.00  0.00    +0.041 A 
ATOM     20  C   UNL     1      -2.889   7.735   2.542  0.00  0.00    +0.020 A 
ATOM     21  C   UNL     1      -2.805   6.361   2.420  0.00  0.00    +0.006 A 
ATOM     22 CL   UNL     1      -1.992  10.160   3.345  0.00  0.00    -0.084 Cl
ENDBRANCH  15  16
ENDBRANCH  14  15
ENDBRANCH  13  14
ENDBRANCH  12  13
ENDBRANCH  10  12
ENDBRANCH   4   8
BRANCH   1  23
ATOM     23  C   UNL     1       2.326  -6.085  -1.068  0.00  0.00    +0.022 C 
BRANCH  23  26
ATOM     24  C   UNL     1       4.118  -7.044   1.896  0.00  0.00    +0.202 A 
ATOM     25  N   UNL     1       2.950  -6.782   1.268  0.00  0.00    -0.193 NA
ATOM     26  C   UNL     1       3.275  -6.465   0.039  0.00  0.00    +0.211 A 
ATOM     27  O   UNL     1       4.607  -6.546  -0.049  0.00  0.00    -0.340 OA
ATOM     28  N   UNL     1       5.075  -6.872   1.021  0.00  0.00    -0.056 NA
BRANCH  24  32
ATOM     29  C   UNL     1       4.593  -8.206   5.960  0.00  0.00    -0.042 A 
ATOM     30  C   UNL     1       5.704  -8.066   5.149  0.00  0.00    +0.005 A 
ATOM     31  C   UNL     1       5.556  -7.689   3.829  0.00  0.00    +0.012 A 
ATOM     32  C   UNL     1       4.284  -7.450   3.314  0.00  0.00    +0.022 A 
ATOM     33  C   UNL     1       3.168  -7.589   4.137  0.00  0.00    +0.012 A 
ATOM     34  C   UNL     1       3.327  -7.970   5.454  0.00  0.00    +0.005 A 
BRANCH  29  36
ATOM     35  C   UNL     1       5.623  -7.585   8.127  0.00  0.00    +0.015 C 
ATOM     36  C   UNL     1       4.761  -8.618   7.399  0.00  0.00    -0.013 C 
ATOM     37  C   UNL     1       3.388  -8.700   8.070  0.00  0.00    +0.015 C 
ATOM     38  C   UNL     1       5.442  -9.986   7.463  0.00  0.00    +0.015 C 
ENDBRANCH  29  36
ENDBRANCH  24  32
ENDBRANCH  23  26
ENDBRANCH   1  23
TORSDOF 10
