REMARK  Name = ZINC13499486
REMARK  12 active torsions:
REMARK  status: ('A' for Active; 'I' for Inactive)
REMARK    1  A    between atoms: C_1  and  C_2
REMARK    2  A    between atoms: C_2  and  C_3
REMARK    3  A    between atoms: C_3  and  C_4
REMARK    4  A    between atoms: C_4  and  C_6
REMARK    5  A    between atoms: C_4  and  N_73
REMARK    6  A    between atoms: N_10  and  C_11
REMARK    7  A    between atoms: C_11  and  C_12
REMARK    8  A    between atoms: C_18  and  C_19
REMARK    9  A    between atoms: C_18  and  N_73
REMARK   10  A    between atoms: C_23  and  C_32
REMARK   11  A    between atoms: C_24  and  C_31
REMARK   12  A    between atoms: C_33  and  N_73
REMARK                            x       y       z     vdW  Elec       q    Type
REMARK                         _______ _______ _______ _____ _____    ______ ____
ROOT
ATOM      1  N   UNL     1       5.585  -2.921   1.350  0.00  0.00    +0.391 N 
ATOM      2  H   UNL     1       4.688  -3.240   1.734  0.00  0.00    -0.080 HD
ENDROOT
BRANCH   1   3
ATOM      3  C   UNL     1       6.032  -1.729   2.103  0.00  0.00    -0.067 C 
ATOM      4  C   UNL     1       7.423  -1.261   1.627  0.00  0.00    -0.015 C 
ATOM      5  C   UNL     1       8.128  -0.790   2.923  0.00  0.00    -0.002 C 
ATOM      6  C   UNL     1       7.645  -1.823   3.971  0.00  0.00    -0.002 C 
ATOM      7  C   UNL     1       6.173  -2.086   3.593  0.00  0.00    -0.015 C 
ENDBRANCH   1   3
BRANCH   1   8
ATOM      8  C   UNL     1       6.580  -4.006   1.486  0.00  0.00    +0.003 C 
BRANCH   8   9
ATOM      9  C   UNL     1       7.648  -3.875   0.431  0.00  0.00    +0.138 A 
ATOM     10  N   UNL     1       7.461  -3.693  -0.853  0.00  0.00    -0.115 NA
ATOM     11  N   UNL     1       8.617  -3.632  -1.419  0.00  0.00    -0.023 NA
ATOM     12  N   UNL     1       9.536  -3.771  -0.529  0.00  0.00    -0.044 NA
ATOM     13  N   UNL     1       8.979  -3.918   0.625  0.00  0.00    -0.228 N 
BRANCH  13  14
ATOM     14  C   UNL     1       9.666  -4.100   1.906  0.00  0.00    +0.178 C 
BRANCH  14  15
ATOM     15  C   UNL     1       9.888  -5.593   2.158  0.00  0.00    +0.140 C 
ATOM     16  C   UNL     1      10.507  -5.802   3.557  0.00  0.00    +0.035 C 
ATOM     17  C   UNL     1      11.528  -6.944   3.298  0.00  0.00    +0.031 C 
ATOM     18  C   UNL     1      11.986  -6.608   1.856  0.00  0.00    +0.160 C 
ATOM     19  O   UNL     1      10.809  -6.117   1.194  0.00  0.00    -0.375 OA
ENDBRANCH  14  15
ENDBRANCH  13  14
ENDBRANCH   8   9
BRANCH   8  20
ATOM     20  C   UNL     1       5.863  -5.347   1.324  0.00  0.00    -0.008 C 
BRANCH  20  22
ATOM     21  C   UNL     1       4.229  -6.922   2.370  0.00  0.00    +0.004 C 
ATOM     22  C   UNL     1       4.857  -5.529   2.462  0.00  0.00    -0.005 C 
ENDBRANCH  20  22
ENDBRANCH   8  20
ENDBRANCH   1   8
BRANCH   1  23
ATOM     23  C   UNL     1       5.403  -2.578  -0.076  0.00  0.00    -0.036 C 
BRANCH  23  24
ATOM     24  C   UNL     1       4.144  -1.764  -0.221  0.00  0.00    +0.001 A 
ATOM     25  C   UNL     1       4.219  -0.412  -0.306  0.00  0.00    +0.017 A 
ATOM     26  C   UNL     1       2.977   0.350  -0.446  0.00  0.00    -0.001 A 
ATOM     27  C   UNL     1       2.992   1.746  -0.538  0.00  0.00    +0.013 A 
ATOM     28  C   UNL     1       1.815   2.428  -0.668  0.00  0.00    -0.047 A 
ATOM     29  C   UNL     1       0.605   1.748  -0.709  0.00  0.00    -0.046 A 
ATOM     30  C   UNL     1       0.567   0.374  -0.619  0.00  0.00    +0.030 A 
ATOM     31  C   UNL     1       1.752  -0.342  -0.486  0.00  0.00    +0.049 A 
ATOM     32  N   UNL     1       1.744  -1.718  -0.394  0.00  0.00    -0.322 N 
ATOM     33  H   UNL     1       0.899  -2.193  -0.422  0.00  0.00    +0.169 HD
ATOM     34  C   UNL     1       2.890  -2.410  -0.267  0.00  0.00    +0.251 A 
ATOM     35  O   UNL     1       2.844  -3.625  -0.188  0.00  0.00    -0.268 OA
ATOM     36  C   UNL     1      -0.679   2.522  -0.858  0.00  0.00    +0.044 C 
ATOM     37  C   UNL     1       1.831   3.932  -0.769  0.00  0.00    +0.044 C 
ENDBRANCH  23  24
ENDBRANCH   1  23
TORSDOF 9
