REMARK  Name = ZINC37137999
REMARK  7 active torsions:
REMARK  status: ('A' for Active; 'I' for Inactive)
REMARK    1  A    between atoms: C_1  and  C_2
REMARK    2  A    between atoms: C_2  and  C_4
REMARK    3  A    between atoms: C_2  and  N_11
REMARK    4  A    between atoms: C_7  and  O_10
REMARK    5  A    between atoms: N_11  and  C_12
REMARK    6  A    between atoms: C_15  and  S_19
REMARK    7  A    between atoms: S_19  and  N_22
REMARK                            x       y       z     vdW  Elec       q    Type
REMARK                         _______ _______ _______ _____ _____    ______ ____
ROOT
ATOM      1  C   UNL     1       2.103  -0.604   1.173  0.00  0.00    +0.042 A 
ATOM      2  C   UNL     1       2.818  -0.253   0.035  0.00  0.00    +0.026 A 
ATOM      3  C   UNL     1       4.194  -0.366   0.023  0.00  0.00    +0.030 A 
ATOM      4  C   UNL     1       4.861  -0.830   1.142  0.00  0.00    +0.106 A 
ATOM      5  C   UNL     1       4.154  -1.180   2.277  0.00  0.00    +0.045 A 
ATOM      6  C   UNL     1       2.777  -1.064   2.298  0.00  0.00    +0.041 A 
ATOM      7 BR   UNL     1       1.810  -1.537   3.853  0.00  0.00    -0.048 Br
ENDROOT
BRANCH   4   8
ATOM      8  S   UNL     1       6.617  -0.974   1.121  0.00  0.00    +0.056 S 
ATOM      9  O   UNL     1       6.957  -1.946   2.101  0.00  0.00    -0.153 OA
ATOM     10  O   UNL     1       6.998  -1.100  -0.242  0.00  0.00    -0.153 OA
BRANCH   8  11
ATOM     11  N   UNL     1       7.233   0.469   1.653  0.00  0.00    -0.204 NA
ATOM     12  H   UNL     1       6.634   1.189   1.902  0.00  0.00    +0.144 HD
ATOM     13  H   UNL     1       8.193   0.593   1.715  0.00  0.00    +0.144 HD
ENDBRANCH   8  11
ENDBRANCH   4   8
BRANCH   1  14
ATOM     14  N   UNL     1       0.711  -0.489   1.189  0.00  0.00    -0.336 N 
ATOM     15  H   UNL     1       0.213  -0.731   1.986  0.00  0.00    +0.147 HD
BRANCH  14  17
ATOM     16  C   UNL     1      -0.019   1.526   0.010  0.00  0.00    +0.033 C 
ATOM     17  C   UNL     1       0.002  -0.004   0.002  0.00  0.00    +0.098 C 
BRANCH  17  18
ATOM     18  C   UNL     1      -1.412  -0.526   0.013  0.00  0.00    -0.027 A 
ATOM     19  C   UNL     1      -2.122  -0.570   1.198  0.00  0.00    +0.009 A 
ATOM     20  C   UNL     1      -3.418  -1.049   1.211  0.00  0.00    +0.046 A 
ATOM     21  C   UNL     1      -4.007  -1.484   0.032  0.00  0.00    +0.117 A 
ATOM     22  C   UNL     1      -3.292  -1.437  -1.156  0.00  0.00    +0.046 A 
ATOM     23  C   UNL     1      -1.998  -0.953  -1.164  0.00  0.00    +0.009 A 
BRANCH  21  24
ATOM     24  O   UNL     1      -5.282  -1.955   0.042  0.00  0.00    -0.507 OA
ATOM     25  H   UNL     1      -5.953  -1.275  -0.105  0.00  0.00    +0.292 HD
ENDBRANCH  21  24
ENDBRANCH  17  18
ENDBRANCH  14  17
ENDBRANCH   1  14
TORSDOF 6
