REMARK  Name = ZINC39710879
REMARK  12 active torsions:
REMARK  status: ('A' for Active; 'I' for Inactive)
REMARK    1  A    between atoms: C_1  and  C_2
REMARK    2  A    between atoms: C_8  and  C_14
REMARK    3  A    between atoms: C_14  and  C_16
REMARK    4  A    between atoms: C_14  and  N_25
REMARK    5  A    between atoms: N_20  and  C_21
REMARK    6  A    between atoms: C_21  and  C_22
REMARK    7  A    between atoms: C_22  and  O_23
REMARK    8  A    between atoms: O_23  and  C_24
REMARK    9  A    between atoms: N_25  and  C_26
REMARK   10  A    between atoms: N_25  and  C_33
REMARK   11  A    between atoms: C_26  and  C_27
REMARK   12  A    between atoms: C_33  and  C_34
REMARK                            x       y       z     vdW  Elec       q    Type
REMARK                         _______ _______ _______ _____ _____    ______ ____
ROOT
ATOM      1  C   UNL     1      -1.235  -3.584   4.749  0.00  0.00    +0.019 C 
ENDROOT
BRANCH   1   9
ATOM      2  C   UNL     1       2.694  -5.180   0.312  0.00  0.00    +0.045 C 
ATOM      3  C   UNL     1       2.679  -5.485   1.788  0.00  0.00    -0.029 A 
ATOM      4  C   UNL     1       3.463  -6.479   2.280  0.00  0.00    +0.005 A 
ATOM      5  C   UNL     1       3.497  -6.811   3.634  0.00  0.00    +0.001 A 
ATOM      6  C   UNL     1       2.737  -6.149   4.544  0.00  0.00    +0.009 A 
ATOM      7  C   UNL     1       1.868  -5.066   4.083  0.00  0.00    -0.007 A 
ATOM      8  C   UNL     1       1.088  -4.373   4.960  0.00  0.00    -0.006 C 
ATOM      9  C   UNL     1       0.219  -3.267   4.394  0.00  0.00    +0.092 C 
ATOM     10  C   UNL     1       0.289  -3.022   2.903  0.00  0.00    +0.223 C 
ATOM     11  O   UNL     1      -0.387  -2.147   2.396  0.00  0.00    -0.275 OA
ATOM     12  N   UNL     1       1.087  -3.763   2.154  0.00  0.00    -0.284 N 
ATOM     13  C   UNL     1       1.857  -4.733   2.648  0.00  0.00    +0.043 A 
ATOM     14  H   UNL     1       1.117  -3.590   1.200  0.00  0.00    +0.155 HD
ENDBRANCH   1   9
BRANCH   1  15
ATOM     15  C   UNL     1      -1.617  -4.918   4.161  0.00  0.00    +0.139 A 
ATOM     16  N   UNL     1      -1.091  -6.082   4.454  0.00  0.00    -0.115 NA
ATOM     17  N   UNL     1      -1.684  -6.977   3.743  0.00  0.00    -0.023 NA
ATOM     18  N   UNL     1      -2.575  -6.415   3.004  0.00  0.00    -0.044 NA
ATOM     19  N   UNL     1      -2.568  -5.146   3.236  0.00  0.00    -0.229 N 
BRANCH  19  20
ATOM     20  C   UNL     1      -3.431  -4.141   2.610  0.00  0.00    +0.175 C 
BRANCH  20  21
ATOM     21  C   UNL     1      -2.864  -3.766   1.239  0.00  0.00    +0.183 C 
BRANCH  21  22
ATOM     22  O   UNL     1      -3.776  -2.892   0.570  0.00  0.00    -0.381 OA
ATOM     23  C   UNL     1      -3.339  -2.479  -0.727  0.00  0.00    +0.194 C 
ENDBRANCH  21  22
ENDBRANCH  20  21
ENDBRANCH  19  20
ENDBRANCH   1  15
BRANCH   1  24
ATOM     24  N   UNL     1      -1.383  -3.633   6.210  0.00  0.00    +0.392 N 
ATOM     25  H   UNL     1      -0.725  -4.295   6.593  0.00  0.00    -0.080 HD
BRANCH  24  26
ATOM     26  C   UNL     1      -1.121  -2.302   6.773  0.00  0.00    -0.042 C 
BRANCH  26  27
ATOM     27  C   UNL     1      -2.011  -1.288   6.101  0.00  0.00    -0.064 A 
ATOM     28  C   UNL     1      -1.617  -0.702   4.913  0.00  0.00    +0.002 A 
ATOM     29  C   UNL     1      -2.434   0.228   4.297  0.00  0.00    +0.000 A 
ATOM     30  C   UNL     1      -3.645   0.571   4.868  0.00  0.00    +0.000 A 
ATOM     31  C   UNL     1      -4.039  -0.016   6.056  0.00  0.00    +0.000 A 
ATOM     32  C   UNL     1      -3.225  -0.949   6.670  0.00  0.00    +0.002 A 
ENDBRANCH  26  27
ENDBRANCH  24  26
BRANCH  24  33
ATOM     33  C   UNL     1      -2.750  -4.049   6.550  0.00  0.00    -0.042 C 
BRANCH  33  34
ATOM     34  C   UNL     1      -2.856  -4.258   8.039  0.00  0.00    -0.064 A 
ATOM     35  C   UNL     1      -2.108  -5.247   8.652  0.00  0.00    +0.003 A 
ATOM     36  C   UNL     1      -2.205  -5.439  10.018  0.00  0.00    +0.020 A 
ATOM     37  C   UNL     1      -3.049  -4.643  10.770  0.00  0.00    +0.041 A 
ATOM     38  C   UNL     1      -3.796  -3.654  10.156  0.00  0.00    +0.020 A 
ATOM     39  C   UNL     1      -3.695  -3.458   8.791  0.00  0.00    +0.003 A 
ATOM     40 CL   UNL     1      -3.171  -4.884  12.485  0.00  0.00    -0.084 Cl
ENDBRANCH  33  34
ENDBRANCH  24  33
ENDBRANCH   1  24
TORSDOF 10
