REMARK  Name = ZINC43741217
REMARK  5 active torsions:
REMARK  status: ('A' for Active; 'I' for Inactive)
REMARK    1  A    between atoms: N_9  and  C_10
REMARK    2  A    between atoms: C_10  and  C_11
REMARK    3  A    between atoms: C_11  and  C_13
REMARK    4  A    between atoms: C_11  and  O_30
REMARK    5  A    between atoms: C_13  and  N_14
REMARK                            x       y       z     vdW  Elec       q    Type
REMARK                         _______ _______ _______ _____ _____    ______ ____
ROOT
ATOM      1  C   UNL     1       5.394  -0.422   1.389  0.00  0.00    +0.118 C 
ENDROOT
BRANCH   1   2
ATOM      2  O   UNL     1       5.315  -1.702   2.021  0.00  0.00    -0.392 OA
ATOM      3  H   UNL     1       5.836  -2.389   1.585  0.00  0.00    +0.210 HD
ENDBRANCH   1   2
BRANCH   1   4
ATOM      4  C   UNL     1       4.883  -0.532  -0.049  0.00  0.00    +0.151 C 
BRANCH   4  13
ATOM      5  C   UNL     1      -0.016   1.362   0.009  0.00  0.00    +0.001 A 
ATOM      6  C   UNL     1       1.169   2.083   0.002  0.00  0.00    +0.002 A 
ATOM      7  C   UNL     1       2.385   1.436  -0.013  0.00  0.00    +0.026 A 
ATOM      8  C   UNL     1       2.428   0.045  -0.021  0.00  0.00    +0.050 A 
ATOM      9  C   UNL     1       1.223  -0.683  -0.014  0.00  0.00    +0.003 A 
ATOM     10  C   UNL     1       0.002  -0.004   0.002  0.00  0.00    +0.010 A 
ATOM     11  C   UNL     1       1.607  -2.090  -0.026  0.00  0.00    -0.019 A 
ATOM     12  C   UNL     1       2.953  -2.139  -0.039  0.00  0.00    +0.023 A 
ATOM     13  N   UNL     1       3.458  -0.870  -0.037  0.00  0.00    -0.341 N 
ATOM     14  C   UNL     1       3.744  -3.427  -0.053  0.00  0.00    +0.054 C 
ATOM     15  C   UNL     1       2.818  -4.572   0.372  0.00  0.00    +0.006 C 
ATOM     16  C   UNL     1       1.528  -4.519  -0.452  0.00  0.00    +0.005 C 
ATOM     17  C   UNL     1       0.705  -3.297  -0.026  0.00  0.00    +0.037 C 
ENDBRANCH   4  13
ENDBRANCH   1   4
BRANCH   1  18
ATOM     18  C   UNL     1       6.849   0.052   1.379  0.00  0.00    -0.045 C 
BRANCH  18  19
ATOM     19  N   UNL     1       7.339   0.157   2.760  0.00  0.00    +0.382 N 
ATOM     20  C   UNL     1       8.767   0.486   2.746  0.00  0.00    -0.074 C 
ATOM     21  C   UNL     1       9.318   0.608   4.159  0.00  0.00    -0.007 C 
ATOM     22  C   UNL     1       8.525   1.644   4.962  0.00  0.00    +0.011 C 
ATOM     23  C   UNL     1       7.052   1.219   4.932  0.00  0.00    +0.020 C 
ATOM     24  C   UNL     1       6.592   1.208   3.465  0.00  0.00    -0.069 C 
ATOM     25  C   UNL     1       6.934  -0.190   5.469  0.00  0.00    +0.023 A 
ATOM     26  C   UNL     1       5.768  -0.534   6.076  0.00  0.00    +0.022 A 
ATOM     27  C   UNL     1       5.566  -1.840   6.538  0.00  0.00    +0.007 A 
ATOM     28  C   UNL     1       6.549  -2.766   6.348  0.00  0.00    +0.070 A 
ATOM     29  C   UNL     1       7.739  -2.378   5.715  0.00  0.00    +0.251 A 
ATOM     30  O   UNL     1       8.599  -3.212   5.483  0.00  0.00    -0.268 OA
ATOM     31  N   UNL     1       7.942  -1.086   5.357  0.00  0.00    -0.312 N 
ATOM     32  C   UNL     1       9.278  -0.721   4.896  0.00  0.00    +0.126 C 
ATOM     33  H   UNL     1       7.204  -0.725   3.231  0.00  0.00    -0.082 HD
ENDBRANCH  18  19
ENDBRANCH   1  18
TORSDOF 5
