REMARK  Name = ZINC24961683
REMARK  5 active torsions:
REMARK  status: ('A' for Active; 'I' for Inactive)
REMARK    1  A    between atoms: C_8  and  C_11
REMARK    2  A    between atoms: N_13  and  C_14
REMARK    3  A    between atoms: C_14  and  C_15
REMARK    4  A    between atoms: C_18  and  S_20
REMARK    5  A    between atoms: S_20  and  N_23
REMARK                            x       y       z     vdW  Elec       q    Type
REMARK                         _______ _______ _______ _____ _____    ______ ____
ROOT
ATOM      1  C   UNL     1       3.594   5.348  -1.632  0.00  0.00    +0.227 C 
ATOM      2  O   UNL     1       4.195   5.863  -0.713  0.00  0.00    -0.275 OA
ATOM      3  N   UNL     1       2.601   4.472  -1.381  0.00  0.00    -0.310 N 
ATOM      4  H   UNL     1       2.055   4.005  -2.214  0.00  0.00    +0.149 HD
ENDROOT
BRANCH   1  12
ATOM      5  C   UNL     1       8.324   7.899  -2.655  0.00  0.00    +0.000 A 
ATOM      6  C   UNL     1       8.888   6.666  -2.930  0.00  0.00    +0.001 A 
ATOM      7  C   UNL     1       8.062   5.606  -3.250  0.00  0.00    +0.015 A 
ATOM      8  C   UNL     1       6.692   5.787  -3.293  0.00  0.00    +0.012 A 
ATOM      9  C   UNL     1       6.105   7.022  -3.031  0.00  0.00    -0.032 A 
ATOM     10  C   UNL     1       6.960   8.077  -2.703  0.00  0.00    +0.005 A 
ATOM     11  C   UNL     1       4.601   7.088  -3.153  0.00  0.00    +0.060 C 
ATOM     12  C   UNL     1       3.957   5.687  -3.055  0.00  0.00    +0.141 C 
ATOM     13  S   UNL     1       5.363   4.660  -3.651  0.00  0.00    -0.112 S 
ENDBRANCH   1  12
BRANCH   3  14
ATOM     14  C   UNL     1       2.248   4.142   0.003  0.00  0.00    +0.146 C 
BRANCH  14  15
ATOM     15  C   UNL     1       1.115   3.148   0.008  0.00  0.00    +0.009 A 
ATOM     16  C   UNL     1       1.169   1.793   0.001  0.00  0.00    +0.015 A 
ATOM     17  C   UNL     1      -0.013   1.076   0.008  0.00  0.00    +0.036 A 
ATOM     18  C   UNL     1      -1.190   1.748   0.017  0.00  0.00    +0.142 A 
ATOM     19  S   UNL     1      -0.644   3.448   0.027  0.00  0.00    -0.072 S 
BRANCH  18  20
ATOM     20  S   UNL     1      -2.832   1.109   0.021  0.00  0.00    +0.062 S 
ATOM     21  O   UNL     1      -3.664   2.126  -0.521  0.00  0.00    -0.153 OA
ATOM     22  O   UNL     1      -2.761  -0.196  -0.538  0.00  0.00    -0.153 OA
BRANCH  20  23
ATOM     23  N   UNL     1      -3.281   0.922   1.603  0.00  0.00    -0.203 NA
ATOM     24  H   UNL     1      -4.306   0.523   1.649  0.00  0.00    +0.144 HD
ATOM     25  H   UNL     1      -3.244   1.896   2.113  0.00  0.00    +0.144 HD
ENDBRANCH  20  23
ENDBRANCH  18  20
ENDBRANCH  14  15
ENDBRANCH   3  14
TORSDOF 5
