REMARK  Name = ZINC08830322
REMARK  8 active torsions:
REMARK  status: ('A' for Active; 'I' for Inactive)
REMARK    1  A    between atoms: C_3  and  S_20
REMARK    2  A    between atoms: C_6  and  C_7
REMARK    3  A    between atoms: C_7  and  N_8
REMARK    4  A    between atoms: N_8  and  C_9
REMARK    5  A    between atoms: C_9  and  N_11
REMARK    6  A    between atoms: N_11  and  C_12
REMARK    7  A    between atoms: C_12  and  C_13
REMARK    8  A    between atoms: S_20  and  N_23
REMARK                            x       y       z     vdW  Elec       q    Type
REMARK                         _______ _______ _______ _____ _____    ______ ____
ROOT
ATOM      1  N   UNL     1      -1.726  -1.018  -1.368  0.00  0.00    -0.322 N 
ATOM      2  H   UNL     1      -1.192  -0.691  -2.108  0.00  0.00    +0.148 HD
ENDROOT
BRANCH   1   3
ATOM      3  C   UNL     1      -2.867  -1.694  -1.606  0.00  0.00    +0.131 C 
ATOM      4  S   UNL     1      -3.810  -2.271  -0.299  0.00  0.00    -0.019 S 
BRANCH   3   5
ATOM      5  N   UNL     1      -3.265  -1.918  -2.874  0.00  0.00    -0.322 N 
ATOM      6  H   UNL     1      -2.731  -1.591  -3.615  0.00  0.00    +0.148 HD
BRANCH   5   7
ATOM      7  C   UNL     1      -4.505  -2.653  -3.134  0.00  0.00    +0.138 C 
BRANCH   7   8
ATOM      8  C   UNL     1      -4.721  -2.765  -4.621  0.00  0.00    -0.030 A 
ATOM      9  C   UNL     1      -5.428  -1.785  -5.292  0.00  0.00    +0.006 A 
ATOM     10  C   UNL     1      -5.627  -1.887  -6.656  0.00  0.00    +0.020 A 
ATOM     11  C   UNL     1      -5.117  -2.970  -7.350  0.00  0.00    +0.041 A 
ATOM     12  C   UNL     1      -4.410  -3.951  -6.678  0.00  0.00    +0.020 A 
ATOM     13  C   UNL     1      -4.208  -3.845  -5.314  0.00  0.00    +0.006 A 
ATOM     14 CL   UNL     1      -5.367  -3.100  -9.063  0.00  0.00    -0.084 Cl
ENDBRANCH   7   8
ENDBRANCH   5   7
ENDBRANCH   3   5
ENDBRANCH   1   3
BRANCH   1  15
ATOM     15  C   UNL     1      -1.293  -0.775   0.011  0.00  0.00    +0.138 C 
BRANCH  15  21
ATOM     16  C   UNL     1      -0.017   1.378   0.010  0.00  0.00    +0.007 A 
ATOM     17  C   UNL     1       1.171   2.086   0.002  0.00  0.00    +0.029 A 
ATOM     18  C   UNL     1       2.377   1.411  -0.013  0.00  0.00    +0.105 A 
ATOM     19  C   UNL     1       2.396   0.029  -0.020  0.00  0.00    +0.029 A 
ATOM     20  C   UNL     1       1.208  -0.679  -0.012  0.00  0.00    +0.007 A 
ATOM     21  C   UNL     1       0.002  -0.004   0.002  0.00  0.00    -0.030 A 
BRANCH  18  22
ATOM     22  S   UNL     1       3.891   2.312  -0.024  0.00  0.00    +0.056 S 
ATOM     23  O   UNL     1       4.872   1.453  -0.588  0.00  0.00    -0.153 OA
ATOM     24  O   UNL     1       3.597   3.593  -0.566  0.00  0.00    -0.153 OA
BRANCH  22  25
ATOM     25  N   UNL     1       4.327   2.556   1.555  0.00  0.00    -0.204 NA
ATOM     26  H   UNL     1       3.768   2.215   2.271  0.00  0.00    +0.144 HD
ATOM     27  H   UNL     1       5.142   3.039   1.764  0.00  0.00    +0.144 HD
ENDBRANCH  22  25
ENDBRANCH  18  22
ENDBRANCH  15  21
ENDBRANCH   1  15
TORSDOF 8
