REMARK  Name = ZINC21664006
REMARK  8 active torsions:
REMARK  status: ('A' for Active; 'I' for Inactive)
REMARK    1  A    between atoms: C_1  and  N_2
REMARK    2  A    between atoms: N_2  and  C_3
REMARK    3  A    between atoms: N_2  and  C_30
REMARK    4  A    between atoms: C_3  and  C_4
REMARK    5  A    between atoms: C_4  and  C_5
REMARK    6  A    between atoms: C_5  and  N_6
REMARK    7  A    between atoms: C_7  and  C_9
REMARK    8  A    between atoms: C_30  and  C_31
REMARK                            x       y       z     vdW  Elec       q    Type
REMARK                         _______ _______ _______ _____ _____    ______ ____
ROOT
ATOM      1  C   UNL     1       6.995   1.919   1.121  0.00  0.00    +0.092 C 
ATOM      2  C   UNL     1       7.688   2.251  -0.204  0.00  0.00    +0.016 C 
ATOM      3  C   UNL     1       6.893   1.629  -1.356  0.00  0.00    +0.020 C 
ATOM      4  C   UNL     1       5.457   2.158  -1.322  0.00  0.00    +0.107 C 
ATOM      5  N   UNL     1       4.838   1.815  -0.036  0.00  0.00    -0.307 N 
ATOM      6  C   UNL     1       5.556   2.440   1.083  0.00  0.00    +0.119 C 
ATOM      7  C   UNL     1       3.499   2.163  -0.021  0.00  0.00    +0.184 A 
ATOM      8  N   UNL     1       2.448   1.388  -0.013  0.00  0.00    -0.139 NA
ATOM      9  N   UNL     1       1.159   1.912   0.001  0.00  0.00    -0.169 N 
ATOM     10  C   UNL     1      -0.015   1.217   0.009  0.00  0.00    +0.279 A 
ATOM     11  O   UNL     1       0.002  -0.004   0.002  0.00  0.00    -0.265 OA
ATOM     12  C   UNL     1      -1.240   1.898   0.018  0.00  0.00    +0.040 A 
ATOM     13  C   UNL     1      -1.246   3.270   0.036  0.00  0.00    +0.053 A 
ATOM     14  N   UNL     1      -0.079   3.918   0.025  0.00  0.00    -0.226 NA
ATOM     15  C   UNL     1       1.058   3.275   0.009  0.00  0.00    +0.201 A 
ATOM     16  S   UNL     1       2.761   3.790  -0.007  0.00  0.00    -0.013 S 
ATOM     17  C   UNL     1      -2.513   4.081   0.070  0.00  0.00    +0.056 C 
ATOM     18  C   UNL     1      -3.706   3.226  -0.367  0.00  0.00    +0.006 C 
ATOM     19  C   UNL     1      -3.694   1.933   0.457  0.00  0.00    +0.005 C 
ATOM     20  C   UNL     1      -2.506   1.084   0.008  0.00  0.00    +0.042 C 
ENDROOT
BRANCH   1  22
ATOM     21  N   UNL     1       7.304   2.426   3.522  0.00  0.00    -0.315 N 
ATOM     22  C   UNL     1       7.738   2.577   2.255  0.00  0.00    +0.218 C 
ATOM     23  O   UNL     1       8.727   3.242   2.027  0.00  0.00    -0.275 OA
ATOM     24  H   UNL     1       6.408   1.823   3.728  0.00  0.00    +0.149 HD
BRANCH  21  25
ATOM     25  C   UNL     1       8.027   3.065   4.625  0.00  0.00    +0.102 C 
BRANCH  25  26
ATOM     26  C   UNL     1       7.331   2.738   5.947  0.00  0.00    +0.000 C 
BRANCH  26  27
ATOM     27  C   UNL     1       8.086   3.405   7.099  0.00  0.00    -0.077 C 
BRANCH  27  29
ATOM     28  C   UNL     1       7.514   1.657   8.673  0.00  0.00    -0.096 C 
ATOM     29  N   UNL     1       7.418   3.091   8.369  0.00  0.00    +0.381 N 
ATOM     30  H   UNL     1       6.353   3.343   8.263  0.00  0.00    -0.082 HD
BRANCH  29  31
ATOM     31  C   UNL     1       7.966   3.900   9.466  0.00  0.00    -0.043 C 
BRANCH  31  32
ATOM     32  C   UNL     1       7.104   3.735  10.691  0.00  0.00    -0.064 A 
ATOM     33  C   UNL     1       6.040   4.590  10.908  0.00  0.00    +0.002 A 
ATOM     34  C   UNL     1       5.246   4.436  12.029  0.00  0.00    +0.000 A 
ATOM     35  C   UNL     1       5.522   3.432  12.939  0.00  0.00    +0.000 A 
ATOM     36  C   UNL     1       6.589   2.580  12.725  0.00  0.00    +0.000 A 
ATOM     37  C   UNL     1       7.380   2.731  11.601  0.00  0.00    +0.002 A 
ENDBRANCH  31  32
ENDBRANCH  29  31
ENDBRANCH  27  29
ENDBRANCH  26  27
ENDBRANCH  25  26
ENDBRANCH  21  25
ENDBRANCH   1  22
TORSDOF 7
