REMARK  Name = ZINC16564812
REMARK  7 active torsions:
REMARK  status: ('A' for Active; 'I' for Inactive)
REMARK    1  A    between atoms: C_1  and  C_2
REMARK    2  A    between atoms: C_2  and  C_3
REMARK    3  A    between atoms: C_8  and  N_9
REMARK    4  A    between atoms: C_12  and  C_17
REMARK    5  A    between atoms: C_17  and  N_18
REMARK    6  A    between atoms: N_21  and  C_24
REMARK    7  A    between atoms: C_29  and  N_30
REMARK                            x       y       z     vdW  Elec       q    Type
REMARK                         _______ _______ _______ _____ _____    ______ ____
ROOT
ATOM      1  N   UNL     1       2.833  -0.268  -0.114  0.00  0.00    -0.283 N 
ATOM      2  C   UNL     1       4.198  -0.480  -0.092  0.00  0.00    +0.224 A 
ATOM      3  N   UNL     1       4.888  -0.259   1.025  0.00  0.00    -0.201 NA
ATOM      4  C   UNL     1       6.194  -0.461   1.047  0.00  0.00    +0.120 A 
ATOM      5  N   UNL     1       6.820  -0.882  -0.039  0.00  0.00    -0.202 NA
ATOM      6  C   UNL     1       6.136  -1.104  -1.159  0.00  0.00    +0.217 A 
ATOM      7  N   UNL     1       4.822  -0.908  -1.183  0.00  0.00    -0.181 NA
ATOM      8  N   UNL     1       6.790  -1.543  -2.292  0.00  0.00    -0.327 N 
ATOM      9  H   UNL     1       2.364  -0.042   0.705  0.00  0.00    +0.155 HD
ATOM     10  H   UNL     1       7.748  -1.690  -2.272  0.00  0.00    +0.145 HD
ATOM     11  H   UNL     1       6.291  -1.705  -3.108  0.00  0.00    +0.145 HD
ENDROOT
BRANCH   1  17
ATOM     12  C   UNL     1       0.796  -0.778  -1.307  0.00  0.00    -0.026 A 
ATOM     13  C   UNL     1       0.101  -0.882  -2.495  0.00  0.00    +0.005 A 
ATOM     14  C   UNL     1       0.729  -0.596  -3.693  0.00  0.00    +0.000 A 
ATOM     15  C   UNL     1       2.056  -0.205  -3.706  0.00  0.00    +0.002 A 
ATOM     16  C   UNL     1       2.757  -0.100  -2.521  0.00  0.00    +0.023 A 
ATOM     17  C   UNL     1       2.127  -0.381  -1.316  0.00  0.00    +0.037 A 
BRANCH  12  19
ATOM     18  C   UNL     1      -0.425   0.206   0.614  0.00  0.00    +0.009 C 
ATOM     19  C   UNL     1       0.111  -1.089  -0.002  0.00  0.00    +0.033 C 
ENDBRANCH  12  19
ENDBRANCH   1  17
BRANCH   4  20
ATOM     20  C   UNL     1       6.972  -0.210   2.313  0.00  0.00    -0.001 C 
BRANCH  20  21
ATOM     21  N   UNL     1       7.016  -1.442   3.113  0.00  0.00    +0.386 N 
ATOM     22  C   UNL     1       5.656  -1.792   3.543  0.00  0.00    -0.059 C 
ATOM     23  C   UNL     1       5.685  -3.136   4.279  0.00  0.00    +0.086 C 
ATOM     24  N   UNL     1       6.664  -3.047   5.373  0.00  0.00    -0.332 N 
ATOM     25  C   UNL     1       8.011  -2.547   5.059  0.00  0.00    +0.086 C 
ATOM     26  C   UNL     1       7.873  -1.231   4.286  0.00  0.00    -0.059 C 
ATOM     27  H   UNL     1       7.392  -2.192   2.553  0.00  0.00    -0.081 HD
BRANCH  24  28
ATOM     28  C   UNL     1       6.324  -3.427   6.674  0.00  0.00    +0.060 A 
ATOM     29  C   UNL     1       6.523  -4.738   7.090  0.00  0.00    +0.025 A 
ATOM     30  C   UNL     1       6.187  -5.111   8.376  0.00  0.00    +0.002 A 
ATOM     31  C   UNL     1       5.652  -4.181   9.250  0.00  0.00    +0.002 A 
ATOM     32  C   UNL     1       5.453  -2.876   8.839  0.00  0.00    +0.034 A 
ATOM     33  C   UNL     1       5.793  -2.495   7.555  0.00  0.00    +0.147 A 
BRANCH  33  34
ATOM     34  N   UNL     1       5.585  -1.097   7.118  0.00  0.00    +0.058 N 
ATOM     35  O   UNL     1       5.122  -0.285   7.886  0.00  0.00    -0.126 OA
ATOM     36  O   UNL     1       5.878  -0.765   5.993  0.00  0.00    -0.126 OA
ENDBRANCH  33  34
ENDBRANCH  24  28
ENDBRANCH  20  21
ENDBRANCH   4  20
TORSDOF 6
