REMARK  Name = ZINC19623007
REMARK  12 active torsions:
REMARK  status: ('A' for Active; 'I' for Inactive)
REMARK    1  A    between atoms: C_1  and  C_2
REMARK    2  A    between atoms: C_2  and  C_3
REMARK    3  A    between atoms: C_3  and  C_4
REMARK    4  A    between atoms: C_4  and  N_5
REMARK    5  A    between atoms: C_6  and  N_34
REMARK    6  A    between atoms: C_7  and  N_14
REMARK    7  A    between atoms: N_14  and  C_15
REMARK    8  A    between atoms: C_15  and  C_16
REMARK    9  A    between atoms: C_22  and  C_24
REMARK   10  A    between atoms: C_24  and  C_25
REMARK   11  A    between atoms: C_25  and  N_26
REMARK   12  A    between atoms: C_27  and  C_29
REMARK                            x       y       z     vdW  Elec       q    Type
REMARK                         _______ _______ _______ _____ _____    ______ ____
ROOT
ATOM      1  N   UNL     1      -7.335   2.700  -0.051  0.00  0.00    -0.260 N 
ATOM      2  C   UNL     1      -6.231   3.313   0.423  0.00  0.00    +0.222 C 
ATOM      3  O   UNL     1      -6.281   4.479   0.756  0.00  0.00    -0.275 OA
ENDROOT
BRANCH   1   6
ATOM      4  N   UNL     1     -10.780   3.931   0.288  0.00  0.00    -0.280 N 
ATOM      5  C   UNL     1      -9.642   3.191   0.507  0.00  0.00    +0.127 A 
ATOM      6  C   UNL     1      -8.520   3.438  -0.256  0.00  0.00    +0.140 A 
ATOM      7  C   UNL     1      -8.579   4.436  -1.247  0.00  0.00    +0.277 A 
ATOM      8  O   UNL     1      -7.603   4.673  -1.939  0.00  0.00    -0.266 OA
ATOM      9  N   UNL     1      -9.721   5.130  -1.425  0.00  0.00    -0.273 N 
ATOM     10  H   UNL     1      -9.775   5.911  -2.197  0.00  0.00    +0.173 HD
ATOM     11  C   UNL     1     -10.803   4.878  -0.667  0.00  0.00    +0.331 A 
ATOM     12  O   UNL     1     -11.820   5.519  -0.849  0.00  0.00    -0.246 OA
BRANCH   5  13
ATOM     13  N   UNL     1      -9.621   2.219   1.479  0.00  0.00    -0.343 N 
ATOM     14  H   UNL     1      -8.707   1.631   1.649  0.00  0.00    +0.144 HD
ATOM     15  H   UNL     1     -10.518   2.030   2.087  0.00  0.00    +0.144 HD
ENDBRANCH   5  13
BRANCH   4  16
ATOM     16  C   UNL     1     -11.978   3.683   1.095  0.00  0.00    +0.128 C 
BRANCH  16  17
ATOM     17  C   UNL     1     -12.839   2.616   0.415  0.00  0.00    +0.021 C 
BRANCH  17  19
ATOM     18  C   UNL     1     -14.950   1.290   0.578  0.00  0.00    +0.004 C 
ATOM     19  C   UNL     1     -14.089   2.357   1.258  0.00  0.00    -0.002 C 
ENDBRANCH  17  19
ENDBRANCH  16  17
ENDBRANCH   4  16
ENDBRANCH   1   6
BRANCH   1  20
ATOM     20  C   UNL     1      -7.304   1.267  -0.354  0.00  0.00    +0.149 C 
BRANCH  20  21
ATOM     21  C   UNL     1      -7.019   1.069  -1.821  0.00  0.00    -0.030 A 
ATOM     22  C   UNL     1      -8.055   1.094  -2.736  0.00  0.00    +0.005 A 
ATOM     23  C   UNL     1      -7.793   0.918  -4.082  0.00  0.00    +0.000 A 
ATOM     24  C   UNL     1      -6.496   0.706  -4.511  0.00  0.00    +0.000 A 
ATOM     25  C   UNL     1      -5.460   0.676  -3.595  0.00  0.00    +0.000 A 
ATOM     26  C   UNL     1      -5.722   0.858  -2.250  0.00  0.00    +0.005 A 
ENDBRANCH  20  21
ENDBRANCH   1  20
BRANCH   2  27
ATOM     27  C   UNL     1      -4.937   2.551   0.540  0.00  0.00    +0.115 C 
BRANCH  27  28
ATOM     28  C   UNL     1      -3.863   3.458   1.143  0.00  0.00    +0.114 C 
BRANCH  28  29
ATOM     29  N   UNL     1      -2.604   2.717   1.257  0.00  0.00    -0.310 N 
ATOM     30  C   UNL     1      -1.511   3.319   1.765  0.00  0.00    +0.251 C 
ATOM     31  O   UNL     1      -1.569   4.479   2.130  0.00  0.00    -0.270 OA
ATOM     32  H   UNL     1      -2.552   1.669   0.927  0.00  0.00    +0.149 HD
BRANCH  30  33
ATOM     33  C   UNL     1      -0.252   2.577   1.879  0.00  0.00    +0.074 A 
ATOM     34  C   UNL     1       0.974   3.006   2.362  0.00  0.00    +0.021 A 
ATOM     35  C   UNL     1       2.003   2.098   2.351  0.00  0.00    +0.008 A 
ATOM     36  C   UNL     1       1.777   0.845   1.877  0.00  0.00    +0.046 A 
ATOM     37  S   UNL     1       0.104   0.889   1.424  0.00  0.00    -0.092 S 
ENDBRANCH  30  33
ENDBRANCH  28  29
ENDBRANCH  27  28
ENDBRANCH   2  27
TORSDOF 11
