REMARK  Name = ZINC40322734
REMARK  15 active torsions:
REMARK  status: ('A' for Active; 'I' for Inactive)
REMARK    1  A    between atoms: C_1  and  C_2
REMARK    2  A    between atoms: C_2  and  N_3
REMARK    3  A    between atoms: N_3  and  C_4
REMARK    4  A    between atoms: N_3  and  C_6
REMARK    5  A    between atoms: C_4  and  C_5
REMARK    6  A    between atoms: C_6  and  C_8
REMARK    7  A    between atoms: C_6  and  C_27
REMARK    8  A    between atoms: C_8  and  N_9
REMARK    9  A    between atoms: C_10  and  C_12
REMARK   10  A    between atoms: C_15  and  S_17
REMARK   11  A    between atoms: S_17  and  C_20
REMARK   12  A    between atoms: C_23  and  C_26
REMARK   13  A    between atoms: C_30  and  C_33
REMARK   14  A    between atoms: C_33  and  C_34
REMARK   15  A    between atoms: C_33  and  C_35
REMARK                            x       y       z     vdW  Elec       q    Type
REMARK                         _______ _______ _______ _____ _____    ______ ____
ROOT
ATOM      1  N   UNL     1       0.198  -2.381  -1.896  0.00  0.00    -0.310 N 
ATOM      2  C   UNL     1       0.697  -3.425  -1.206  0.00  0.00    +0.279 C 
ATOM      3  O   UNL     1       1.616  -3.257  -0.426  0.00  0.00    -0.267 OA
ATOM      4  H   UNL     1      -0.580  -2.500  -2.462  0.00  0.00    +0.149 HD
ENDROOT
BRANCH   2   5
ATOM      5  C   UNL     1       0.131  -4.765  -1.394  0.00  0.00    +0.192 A 
ATOM      6  C   UNL     1       0.471  -5.886  -0.691  0.00  0.00    +0.056 A 
ATOM      7  C   UNL     1      -0.313  -6.934  -1.199  0.00  0.00    +0.070 A 
ATOM      8  C   UNL     1      -1.087  -6.414  -2.176  0.00  0.00    +0.246 A 
ATOM      9  O   UNL     1      -0.821  -5.106  -2.288  0.00  0.00    -0.433 OA
BRANCH   8  10
ATOM     10  S   UNL     1      -2.259  -7.308  -3.142  0.00  0.00    +0.058 S 
ATOM     11  O   UNL     1      -2.422  -6.585  -4.354  0.00  0.00    -0.161 OA
ATOM     12  O   UNL     1      -1.853  -8.669  -3.115  0.00  0.00    -0.161 OA
BRANCH  10  13
ATOM     13  C   UNL     1      -3.803  -7.226  -2.295  0.00  0.00    +0.097 A 
ATOM     14  C   UNL     1      -4.132  -8.193  -1.364  0.00  0.00    +0.028 A 
ATOM     15  C   UNL     1      -5.343  -8.129  -0.700  0.00  0.00    +0.005 A 
ATOM     16  C   UNL     1      -6.224  -7.098  -0.967  0.00  0.00    -0.050 A 
ATOM     17  C   UNL     1      -5.894  -6.130  -1.898  0.00  0.00    +0.005 A 
ATOM     18  C   UNL     1      -4.681  -6.192  -2.559  0.00  0.00    +0.028 A 
ATOM     19  C   UNL     1      -7.544  -7.028  -0.244  0.00  0.00    +0.044 C 
ENDBRANCH  10  13
ENDBRANCH   8  10
ENDBRANCH   2   5
BRANCH   1  20
ATOM     20  C   UNL     1       0.833  -1.064  -1.792  0.00  0.00    +0.094 C 
BRANCH  20  21
ATOM     21  C   UNL     1      -0.003  -0.033  -2.553  0.00  0.00    -0.020 C 
BRANCH  21  22
ATOM     22  C   UNL     1       0.581   1.340  -2.344  0.00  0.00    -0.059 A 
ATOM     23  C   UNL     1       1.907   1.479  -1.979  0.00  0.00    +0.002 A 
ATOM     24  C   UNL     1       2.443   2.739  -1.788  0.00  0.00    +0.004 A 
ATOM     25  C   UNL     1       1.653   3.860  -1.962  0.00  0.00    -0.045 A 
ATOM     26  C   UNL     1       0.327   3.721  -2.329  0.00  0.00    +0.004 A 
ATOM     27  C   UNL     1      -0.207   2.461  -2.524  0.00  0.00    +0.002 A 
BRANCH  25  28
ATOM     28  C   UNL     1       2.237   5.233  -1.753  0.00  0.00    +0.013 C 
ATOM     29  C   UNL     1       2.126   6.037  -3.050  0.00  0.00    +0.012 C 
ATOM     30  C   UNL     1       1.468   5.950  -0.641  0.00  0.00    +0.012 C 
ENDBRANCH  25  28
ENDBRANCH  21  22
BRANCH  21  31
ATOM     31  N   UNL     1      -1.385  -0.059  -2.054  0.00  0.00    +0.385 N 
ATOM     32  H   UNL     1      -1.623  -0.998  -1.772  0.00  0.00    -0.081 HD
BRANCH  31  34
ATOM     33  C   UNL     1      -0.498   0.437   0.174  0.00  0.00    -0.017 C 
ATOM     34  C   UNL     1      -1.506   0.845  -0.902  0.00  0.00    -0.081 C 
ENDBRANCH  31  34
BRANCH  31  35
ATOM     35  C   UNL     1      -2.298   0.379  -3.118  0.00  0.00    -0.081 C 
ATOM     36  C   UNL     1      -2.332  -0.675  -4.227  0.00  0.00    -0.017 C 
ENDBRANCH  31  35
ENDBRANCH  21  31
ENDBRANCH  20  21
ENDBRANCH   1  20
TORSDOF 10
