REMARK  Name = ZINC15981117
REMARK  14 active torsions:
REMARK  status: ('A' for Active; 'I' for Inactive)
REMARK    1  A    between atoms: C_1  and  C_2
REMARK    2  A    between atoms: C_5  and  N_14
REMARK    3  A    between atoms: C_7  and  S_8
REMARK    4  A    between atoms: S_8  and  N_11
REMARK    5  A    between atoms: N_11  and  C_12
REMARK    6  A    between atoms: N_11  and  C_13
REMARK    7  A    between atoms: N_14  and  C_15
REMARK    8  A    between atoms: C_15  and  C_16
REMARK    9  A    between atoms: N_20  and  C_21
REMARK   10  A    between atoms: N_28  and  C_29
REMARK   11  A    between atoms: C_29  and  C_30
REMARK   12  A    between atoms: C_30  and  C_31
REMARK   13  A    between atoms: C_31  and  O_32
REMARK   14  A    between atoms: O_32  and  C_33
REMARK                            x       y       z     vdW  Elec       q    Type
REMARK                         _______ _______ _______ _____ _____    ______ ____
ROOT
ATOM      1  C   UNL     1      -0.104   0.593   0.312  0.00  0.00    +0.045 A 
ATOM      2  C   UNL     1      -0.246  -0.733   0.335  0.00  0.00    +0.071 A 
ATOM      3  S   UNL     1       1.450  -1.289   0.389  0.00  0.00    -0.058 S 
ATOM      4  C   UNL     1       2.233   0.316   0.377  0.00  0.00    +0.174 A 
ATOM      5  N   UNL     1       3.517   0.622   0.403  0.00  0.00    -0.224 NA
ATOM      6  N   UNL     1       1.139   1.149   0.332  0.00  0.00    -0.322 N 
ENDROOT
BRANCH   5   7
ATOM      7  C   UNL     1       4.451  -0.365   0.550  0.00  0.00    +0.068 A 
ATOM      8  C   UNL     1       4.804  -0.813   1.827  0.00  0.00    +0.028 A 
ATOM      9  C   UNL     1       5.744  -1.813   1.968  0.00  0.00    +0.003 A 
ATOM     10  C   UNL     1       6.345  -2.365   0.851  0.00  0.00    +0.020 A 
ATOM     11  C   UNL     1       6.005  -1.923  -0.417  0.00  0.00    +0.043 A 
ATOM     12  C   UNL     1       5.062  -0.926  -0.574  0.00  0.00    +0.047 A 
ATOM     13 CL   UNL     1       6.766  -2.622  -1.812  0.00  0.00    -0.083 Cl
ENDBRANCH   5   7
BRANCH   1  14
ATOM     14  C   UNL     1      -1.322   1.478   0.256  0.00  0.00    +0.155 C 
BRANCH  14  15
ATOM     15  N   UNL     1      -2.399   0.783  -0.453  0.00  0.00    -0.338 N 
ATOM     16  H   UNL     1      -2.254  -0.111  -0.798  0.00  0.00    +0.146 HD
BRANCH  15  21
ATOM     17  C   UNL     1      -7.419   3.321  -1.174  0.00  0.00    +0.046 C 
ATOM     18  C   UNL     1      -6.085   2.647  -0.983  0.00  0.00    -0.024 A 
ATOM     19  C   UNL     1      -5.069   3.305  -0.313  0.00  0.00    +0.007 A 
ATOM     20  C   UNL     1      -3.847   2.688  -0.131  0.00  0.00    +0.023 A 
ATOM     21  C   UNL     1      -3.636   1.409  -0.630  0.00  0.00    +0.029 A 
ATOM     22  C   UNL     1      -4.658   0.751  -1.302  0.00  0.00    +0.051 A 
ATOM     23  C   UNL     1      -5.879   1.372  -1.476  0.00  0.00    +0.110 A 
BRANCH  23  24
ATOM     24  S   UNL     1      -7.177   0.538  -2.328  0.00  0.00    +0.061 S 
ATOM     25  O   UNL     1      -7.686   1.454  -3.288  0.00  0.00    -0.153 OA
ATOM     26  O   UNL     1      -6.671  -0.740  -2.689  0.00  0.00    -0.153 OA
BRANCH  24  27
ATOM     27  N   UNL     1      -8.392   0.275  -1.234  0.00  0.00    -0.183 NA
ATOM     28  C   UNL     1      -9.545   1.177  -1.189  0.00  0.00    +0.131 C 
ATOM     29  C   UNL     1      -8.313  -0.859  -0.311  0.00  0.00    +0.131 C 
ENDBRANCH  24  27
ENDBRANCH  23  24
ENDBRANCH  15  21
ENDBRANCH  14  15
ENDBRANCH   1  14
BRANCH   6  30
ATOM     30  C   UNL     1       1.308   2.604   0.307  0.00  0.00    +0.126 C 
BRANCH  30  31
ATOM     31  C   UNL     1       1.330   3.140   1.740  0.00  0.00    +0.050 C 
BRANCH  31  32
ATOM     32  C   UNL     1       1.506   4.660   1.713  0.00  0.00    +0.161 C 
BRANCH  32  33
ATOM     33  O   UNL     1       1.526   5.160   3.052  0.00  0.00    -0.383 OA
ATOM     34  C   UNL     1       1.687   6.577   3.140  0.00  0.00    +0.193 C 
ENDBRANCH  32  33
ENDBRANCH  31  32
ENDBRANCH  30  31
ENDBRANCH   6  30
TORSDOF 10
