REMARK  Name = ZINC12500962
REMARK  6 active torsions:
REMARK  status: ('A' for Active; 'I' for Inactive)
REMARK    1  A    between atoms: C_6  and  O_27
REMARK    2  A    between atoms: C_7  and  C_11
REMARK    3  A    between atoms: N_13  and  N_14
REMARK    4  A    between atoms: N_14  and  C_15
REMARK    5  A    between atoms: C_15  and  N_17
REMARK    6  A    between atoms: C_18  and  C_20
REMARK                            x       y       z     vdW  Elec       q    Type
REMARK                         _______ _______ _______ _____ _____    ______ ____
ROOT
ATOM      1  C   UNL     1       4.617   4.023  -0.020  0.00  0.00    +0.264 C 
ATOM      2  O   UNL     1       5.678   3.430  -0.034  0.00  0.00    -0.269 OA
ATOM      3  N   UNL     1       3.459   3.333  -0.013  0.00  0.00    -0.231 N 
ATOM      4  H   UNL     1       2.612   3.807  -0.002  0.00  0.00    +0.173 HD
ENDROOT
BRANCH   1  11
ATOM      5  C   UNL     1       2.181   9.648   0.032  0.00  0.00    +0.001 A 
ATOM      6  C   UNL     1       3.386  10.348   0.025  0.00  0.00    +0.001 A 
ATOM      7  C   UNL     1       4.578   9.691   0.010  0.00  0.00    +0.008 A 
ATOM      8  C   UNL     1       4.599   8.285   0.003  0.00  0.00    -0.014 A 
ATOM      9  C   UNL     1       5.815   7.580  -0.013  0.00  0.00    +0.054 A 
ATOM     10  C   UNL     1       5.811   6.217  -0.020  0.00  0.00    +0.130 A 
ATOM     11  C   UNL     1       4.596   5.499  -0.012  0.00  0.00    +0.080 A 
ATOM     12  C   UNL     1       3.385   6.171  -0.003  0.00  0.00    +0.025 A 
ATOM     13  C   UNL     1       3.372   7.573   0.011  0.00  0.00    -0.017 A 
ATOM     14  C   UNL     1       2.161   8.287   0.025  0.00  0.00    +0.008 A 
BRANCH  10  15
ATOM     15  O   UNL     1       6.989   5.542  -0.035  0.00  0.00    -0.506 OA
ATOM     16  H   UNL     1       7.322   5.352  -0.923  0.00  0.00    +0.292 HD
ENDBRANCH  10  15
ENDBRANCH   1  11
BRANCH   3  17
ATOM     17  N   UNL     1       3.478   1.933  -0.021  0.00  0.00    -0.245 N 
ATOM     18  H   UNL     1       4.324   1.459  -0.031  0.00  0.00    +0.172 HD
BRANCH  17  19
ATOM     19  C   UNL     1       2.320   1.243  -0.013  0.00  0.00    +0.153 C 
ATOM     20  S   UNL     1       2.343  -0.469  -0.023  0.00  0.00    -0.017 S 
BRANCH  19  21
ATOM     21  N   UNL     1       1.143   1.901   0.001  0.00  0.00    -0.263 N 
ATOM     22  C   UNL     1      -0.014   1.211   0.009  0.00  0.00    +0.250 C 
ATOM     23  O   UNL     1       0.002  -0.004   0.002  0.00  0.00    -0.270 OA
ATOM     24  H   UNL     1       1.130   2.871   0.007  0.00  0.00    +0.157 HD
BRANCH  22  25
ATOM     25  C   UNL     1      -1.303   1.932   0.019  0.00  0.00    +0.037 A 
ATOM     26  C   UNL     1      -1.325   3.329   0.032  0.00  0.00    +0.016 A 
ATOM     27  C   UNL     1      -2.530   3.996   0.035  0.00  0.00    +0.039 A 
ATOM     28  C   UNL     1      -3.720   3.284   0.037  0.00  0.00    +0.123 A 
ATOM     29  C   UNL     1      -3.704   1.898   0.030  0.00  0.00    +0.039 A 
ATOM     30  C   UNL     1      -2.505   1.220   0.021  0.00  0.00    +0.016 A 
ATOM     31  F   UNL     1      -4.899   3.944   0.047  0.00  0.00    -0.205 F 
ENDBRANCH  22  25
ENDBRANCH  19  21
ENDBRANCH  17  19
ENDBRANCH   3  17
TORSDOF 6
