REMARK  Name = ZINC20806245
REMARK  9 active torsions:
REMARK  status: ('A' for Active; 'I' for Inactive)
REMARK    1  A    between atoms: C_1  and  C_2
REMARK    2  A    between atoms: C_7  and  N_8
REMARK    3  A    between atoms: C_9  and  C_11
REMARK    4  A    between atoms: C_11  and  S_12
REMARK    5  A    between atoms: S_12  and  C_13
REMARK    6  A    between atoms: N_17  and  N_18
REMARK    7  A    between atoms: N_19  and  N_20
REMARK    8  A    between atoms: C_21  and  C_22
REMARK    9  A    between atoms: C_26  and  O_28
REMARK                            x       y       z     vdW  Elec       q    Type
REMARK                         _______ _______ _______ _____ _____    ______ ____
ROOT
ATOM      1  C   UNL     1      -3.953   9.646   0.116  0.00  0.00    +0.210 A 
ATOM      2  N   UNL     1      -4.591   8.499   0.124  0.00  0.00    -0.119 NA
ATOM      3  N   UNL     1      -3.636   7.474   0.115  0.00  0.00    -0.109 NA
ATOM      4  C   UNL     1      -2.448   8.027   0.111  0.00  0.00    +0.254 A 
ATOM      5  N   UNL     1      -2.613   9.384   0.107  0.00  0.00    -0.211 N 
ATOM      6  N   UNL     1      -1.235   7.353   0.104  0.00  0.00    -0.204 N 
ATOM      7  H   UNL     1      -0.291   7.918   0.095  0.00  0.00    +0.177 HD
ENDROOT
BRANCH   5   8
ATOM      8  N   UNL     1      -1.613  10.314   0.098  0.00  0.00    -0.294 N 
ATOM      9  H   UNL     1      -0.561   9.991   0.092  0.00  0.00    +0.163 HD
ATOM     10  H   UNL     1      -1.859  11.386   0.096  0.00  0.00    +0.163 HD
ENDBRANCH   5   8
BRANCH   6  11
ATOM     11  N   UNL     1      -1.212   5.952   0.108  0.00  0.00    -0.188 NA
ATOM     12  C   UNL     1      -0.077   5.321   0.102  0.00  0.00    +0.138 C 
BRANCH  12  13
ATOM     13  C   UNL     1      -0.053   3.847   0.107  0.00  0.00    -0.002 A 
ATOM     14  C   UNL     1      -1.250   3.126   0.118  0.00  0.00    +0.010 A 
ATOM     15  C   UNL     1      -1.223   1.746   0.116  0.00  0.00    +0.004 A 
ATOM     16  C   UNL     1      -0.014   1.074   0.115  0.00  0.00    +0.045 A 
ATOM     17  C   UNL     1       1.181   1.781   0.104  0.00  0.00    +0.117 A 
ATOM     18  C   UNL     1       1.166   3.166   0.100  0.00  0.00    +0.054 A 
BRANCH  17  19
ATOM     19  O   UNL     1       2.365   1.114   0.098  0.00  0.00    -0.507 OA
ATOM     20  H   UNL     1       3.311   1.675   0.090  0.00  0.00    +0.292 HD
ENDBRANCH  17  19
ENDBRANCH  12  13
ENDBRANCH   6  11
BRANCH   1  21
ATOM     21  S   UNL     1      -4.696  11.244   0.115  0.00  0.00    -0.075 S 
BRANCH  21  22
ATOM     22  C   UNL     1      -6.477  10.900   0.128  0.00  0.00    +0.173 C 
BRANCH  22  24
ATOM     23  N   UNL     1      -8.587  12.190   0.138  0.00  0.00    -0.285 N 
ATOM     24  C   UNL     1      -7.240  12.200   0.129  0.00  0.00    +0.227 C 
ATOM     25  O   UNL     1      -6.641  13.254   0.120  0.00  0.00    -0.275 OA
ATOM     26  H   UNL     1      -9.131  11.238   0.054  0.00  0.00    +0.155 HD
BRANCH  23  33
ATOM     27  C   UNL     1     -11.243  12.291  -0.879  0.00  0.00    +0.045 C 
ATOM     28  C   UNL     1     -10.593  13.485  -0.228  0.00  0.00    -0.029 A 
ATOM     29  C   UNL     1     -11.288  14.673  -0.111  0.00  0.00    +0.005 A 
ATOM     30  C   UNL     1     -10.693  15.768   0.487  0.00  0.00    +0.000 A 
ATOM     31  C   UNL     1      -9.400  15.679   0.969  0.00  0.00    +0.002 A 
ATOM     32  C   UNL     1      -8.701  14.493   0.860  0.00  0.00    +0.023 A 
ATOM     33  C   UNL     1      -9.294  13.392   0.255  0.00  0.00    +0.036 A 
ENDBRANCH  23  33
ENDBRANCH  22  24
ENDBRANCH  21  22
ENDBRANCH   1  21
TORSDOF 8
