REMARK  Name = ZINC16731247
REMARK  14 active torsions:
REMARK  status: ('A' for Active; 'I' for Inactive)
REMARK    1  A    between atoms: C_1  and  C_2
REMARK    2  A    between atoms: C_2  and  N_3
REMARK    3  A    between atoms: N_3  and  C_4
REMARK    4  A    between atoms: N_3  and  C_6
REMARK    5  A    between atoms: C_4  and  C_5
REMARK    6  A    between atoms: C_9  and  C_12
REMARK    7  A    between atoms: C_15  and  S_18
REMARK    8  A    between atoms: N_16  and  C_17
REMARK    9  A    between atoms: S_18  and  C_19
REMARK   10  A    between atoms: C_19  and  C_21
REMARK   11  A    between atoms: C_19  and  C_22
REMARK   12  A    between atoms: N_24  and  C_25
REMARK   13  A    between atoms: C_28  and  S_31
REMARK   14  A    between atoms: S_31  and  C_32
REMARK                            x       y       z     vdW  Elec       q    Type
REMARK                         _______ _______ _______ _____ _____    ______ ____
ROOT
ATOM      1  C   UNL     1       3.399   0.203  -2.922  0.00  0.00    +0.165 A 
ATOM      2  N   UNL     1       2.240  -0.413  -2.883  0.00  0.00    -0.128 NA
ATOM      3  N   UNL     1       1.504   0.093  -1.959  0.00  0.00    -0.122 NA
ATOM      4  C   UNL     1       2.148   1.064  -1.351  0.00  0.00    +0.192 A 
ATOM      5  N   UNL     1       3.374   1.171  -1.945  0.00  0.00    -0.305 N 
ATOM      6  C   UNL     1       4.440   2.119  -1.610  0.00  0.00    +0.153 C 
ENDROOT
BRANCH   1  10
ATOM      7  C   UNL     1       6.613  -0.626  -5.575  0.00  0.00    +0.030 A 
ATOM      8  C   UNL     1       6.843   0.099  -4.411  0.00  0.00    +0.024 A 
ATOM      9  C   UNL     1       5.803   0.370  -3.549  0.00  0.00    +0.013 A 
ATOM     10  C   UNL     1       4.516  -0.085  -3.845  0.00  0.00    +0.019 A 
ATOM     11  C   UNL     1       4.289  -0.818  -5.011  0.00  0.00    +0.013 A 
ATOM     12  C   UNL     1       5.333  -1.081  -5.872  0.00  0.00    +0.024 A 
BRANCH   7  13
ATOM     13  N   UNL     1       7.668  -0.899  -6.446  0.00  0.00    -0.330 N 
BRANCH  13  15
ATOM     14  C   UNL     1       7.074  -0.702  -8.810  0.00  0.00    +0.024 C 
ATOM     15  C   UNL     1       7.427  -1.663  -7.673  0.00  0.00    +0.102 C 
ENDBRANCH  13  15
BRANCH  13  16
ATOM     16  C   UNL     1       9.018  -0.421  -6.134  0.00  0.00    +0.102 C 
ATOM     17  C   UNL     1       9.757  -1.480  -5.315  0.00  0.00    +0.024 C 
ENDBRANCH  13  16
ENDBRANCH   7  13
ENDBRANCH   1  10
BRANCH   4  18
ATOM     18  S   UNL     1       1.541   2.047  -0.021  0.00  0.00    -0.074 S 
BRANCH  18  19
ATOM     19  C   UNL     1      -0.104   1.321   0.182  0.00  0.00    +0.137 C 
ATOM     20  C   UNL     1      -0.938   1.586  -1.073  0.00  0.00    +0.029 C 
BRANCH  19  21
ATOM     21  C   UNL     1      -0.784   1.940   1.376  0.00  0.00    +0.230 C 
ATOM     22  O   UNL     1      -0.462   3.049   1.749  0.00  0.00    -0.274 OA
ATOM     23  N   UNL     1      -1.748   1.263   2.030  0.00  0.00    -0.285 N 
ATOM     24  H   UNL     1      -1.958   0.351   1.775  0.00  0.00    +0.155 HD
BRANCH  23  25
ATOM     25  C   UNL     1      -2.448   1.876   3.078  0.00  0.00    +0.033 A 
ATOM     26  C   UNL     1      -1.794   2.761   3.925  0.00  0.00    +0.024 A 
ATOM     27  C   UNL     1      -2.484   3.369   4.954  0.00  0.00    +0.017 A 
ATOM     28  C   UNL     1      -3.831   3.088   5.149  0.00  0.00    +0.013 A 
ATOM     29  C   UNL     1      -4.483   2.199   4.304  0.00  0.00    +0.017 A 
ATOM     30  C   UNL     1      -3.794   1.595   3.272  0.00  0.00    +0.024 A 
BRANCH  28  31
ATOM     31  S   UNL     1      -4.711   3.860   6.466  0.00  0.00    -0.056 S 
BRANCH  31  32
ATOM     32  C   UNL     1      -3.467   4.908   7.270  0.00  0.00    +0.404 C 
ATOM     33  F   UNL     1      -2.415   4.111   7.734  0.00  0.00    -0.197 F 
ATOM     34  F   UNL     1      -2.976   5.839   6.348  0.00  0.00    -0.197 F 
ENDBRANCH  31  32
ENDBRANCH  28  31
ENDBRANCH  23  25
ENDBRANCH  19  21
ENDBRANCH  18  19
ENDBRANCH   4  18
TORSDOF 10
