REMARK  Name = ZINC08923754
REMARK  7 active torsions:
REMARK  status: ('A' for Active; 'I' for Inactive)
REMARK    1  A    between atoms: N_13  and  C_29
REMARK    2  A    between atoms: C_14  and  S_16
REMARK    3  A    between atoms: S_16  and  C_17
REMARK    4  A    between atoms: C_17  and  C_18
REMARK    5  A    between atoms: N_20  and  C_21
REMARK    6  A    between atoms: C_21  and  C_22
REMARK    7  A    between atoms: C_32  and  N_35
REMARK                            x       y       z     vdW  Elec       q    Type
REMARK                         _______ _______ _______ _____ _____    ______ ____
ROOT
ATOM      1  C   UNL     1      -6.072   5.292  -5.993  0.00  0.00    +0.001 A 
ATOM      2  C   UNL     1      -6.870   4.875  -7.049  0.00  0.00    +0.002 A 
ATOM      3  C   UNL     1      -6.394   3.973  -7.974  0.00  0.00    +0.026 A 
ATOM      4  C   UNL     1      -5.100   3.471  -7.852  0.00  0.00    +0.049 A 
ATOM      5  C   UNL     1      -4.297   3.897  -6.780  0.00  0.00    +0.026 A 
ATOM      6  C   UNL     1      -4.800   4.812  -5.854  0.00  0.00    +0.012 A 
ATOM      7  C   UNL     1      -3.009   3.204  -6.920  0.00  0.00    +0.104 A 
ATOM      8  C   UNL     1      -3.110   2.407  -8.060  0.00  0.00    +0.132 A 
ATOM      9  N   UNL     1      -4.372   2.578  -8.609  0.00  0.00    -0.349 N 
ATOM     10  H   UNL     1      -4.695   2.134  -9.409  0.00  0.00    +0.166 HD
ATOM     11  C   UNL     1      -2.000   1.623  -8.434  0.00  0.00    +0.283 A 
ATOM     12  O   UNL     1      -2.045   0.912  -9.424  0.00  0.00    -0.265 OA
ATOM     13  N   UNL     1      -0.885   1.676  -7.674  0.00  0.00    -0.254 N 
ATOM     14  C   UNL     1      -0.842   2.475  -6.567  0.00  0.00    +0.177 A 
ATOM     15  N   UNL     1      -1.872   3.206  -6.205  0.00  0.00    -0.221 NA
ENDROOT
BRANCH  13  16
ATOM     16  C   UNL     1       0.233   0.907  -8.022  0.00  0.00    +0.052 A 
ATOM     17  C   UNL     1       0.375  -0.381  -7.522  0.00  0.00    +0.028 A 
ATOM     18  C   UNL     1       1.476  -1.138  -7.871  0.00  0.00    +0.035 A 
ATOM     19  C   UNL     1       2.442  -0.611  -8.710  0.00  0.00    +0.126 A 
ATOM     20  C   UNL     1       2.306   0.672  -9.205  0.00  0.00    +0.035 A 
ATOM     21  C   UNL     1       1.204   1.433  -8.864  0.00  0.00    +0.028 A 
BRANCH  19  22
ATOM     22  N   UNL     1       3.623  -1.424  -9.077  0.00  0.00    +0.056 N 
ATOM     23  O   UNL     1       4.474  -0.961  -9.816  0.00  0.00    -0.126 OA
ATOM     24  O   UNL     1       3.744  -2.555  -8.642  0.00  0.00    -0.126 OA
ENDBRANCH  19  22
ENDBRANCH  13  16
BRANCH  14  25
ATOM     25  S   UNL     1       0.628   2.521  -5.596  0.00  0.00    -0.078 S 
BRANCH  25  26
ATOM     26  C   UNL     1       0.123   3.698  -4.317  0.00  0.00    +0.173 C 
BRANCH  26  27
ATOM     27  C   UNL     1       1.257   3.899  -3.345  0.00  0.00    +0.224 C 
ATOM     28  O   UNL     1       2.303   3.306  -3.501  0.00  0.00    -0.275 OA
ATOM     29  N   UNL     1       1.108   4.739  -2.301  0.00  0.00    -0.311 N 
ATOM     30  H   UNL     1       0.271   5.214  -2.176  0.00  0.00    +0.149 HD
BRANCH  29  31
ATOM     31  C   UNL     1       2.210   4.935  -1.355  0.00  0.00    +0.139 C 
BRANCH  31  32
ATOM     32  C   UNL     1       1.790   5.915  -0.290  0.00  0.00    -0.030 A 
ATOM     33  C   UNL     1       2.015   7.267  -0.468  0.00  0.00    +0.008 A 
ATOM     34  C   UNL     1       1.626   8.167   0.506  0.00  0.00    +0.038 A 
ATOM     35  C   UNL     1       1.019   7.712   1.665  0.00  0.00    +0.123 A 
ATOM     36  C   UNL     1       0.799   6.357   1.844  0.00  0.00    +0.038 A 
ATOM     37  C   UNL     1       1.184   5.460   0.866  0.00  0.00    +0.008 A 
ATOM     38  F   UNL     1       0.642   8.591   2.620  0.00  0.00    -0.205 F 
ENDBRANCH  31  32
ENDBRANCH  29  31
ENDBRANCH  26  27
ENDBRANCH  25  26
ENDBRANCH  14  25
TORSDOF 7
