REMARK  Name = ZINC39403940
REMARK  7 active torsions:
REMARK  status: ('A' for Active; 'I' for Inactive)
REMARK    1  A    between atoms: C_3  and  C_8
REMARK    2  A    between atoms: N_9  and  N_10
REMARK    3  A    between atoms: C_13  and  S_17
REMARK    4  A    between atoms: S_17  and  C_18
REMARK    5  A    between atoms: C_18  and  C_19
REMARK    6  A    between atoms: N_21  and  C_22
REMARK    7  A    between atoms: C_24  and  C_32
REMARK                            x       y       z     vdW  Elec       q    Type
REMARK                         _______ _______ _______ _____ _____    ______ ____
ROOT
ATOM      1  N   UNL     1       5.991   2.237  -0.044  0.00  0.00    -0.206 N 
ATOM      2  C   UNL     1       7.192   1.562  -0.059  0.00  0.00    +0.231 C 
ATOM      3  N   UNL     1       8.362   2.137  -0.062  0.00  0.00    -0.324 N 
ATOM      4  C   UNL     1       9.335   1.030  -0.079  0.00  0.00    +0.283 C 
ATOM      5  N   UNL     1       8.491  -0.176  -0.084  0.00  0.00    -0.148 NA
ATOM      6  N   UNL     1       7.314   0.203  -0.067  0.00  0.00    -0.116 NA
ATOM      7  H   UNL     1       5.980   3.207  -0.039  0.00  0.00    +0.177 HD
ATOM      8  H   UNL     1       8.552   3.088  -0.056  0.00  0.00    +0.165 HD
ENDROOT
BRANCH   1  10
ATOM      9  C   UNL     1       3.654   2.159  -0.022  0.00  0.00    +0.138 C 
ATOM     10  N   UNL     1       4.786   1.523  -0.036  0.00  0.00    -0.188 NA
BRANCH   9  13
ATOM     11  C   UNL     1      -0.017   1.379   0.010  0.00  0.00    +0.002 A 
ATOM     12  C   UNL     1       1.166   2.089   0.002  0.00  0.00    +0.009 A 
ATOM     13  C   UNL     1       2.386   1.407  -0.013  0.00  0.00    -0.004 A 
ATOM     14  C   UNL     1       2.398   0.010  -0.021  0.00  0.00    +0.024 A 
ATOM     15  C   UNL     1       1.207  -0.687  -0.013  0.00  0.00    +0.018 A 
ATOM     16  C   UNL     1       0.002  -0.004   0.002  0.00  0.00    +0.015 A 
ATOM     17 BR   UNL     1       1.220  -2.578  -0.024  0.00  0.00    -0.050 Br
ENDBRANCH   9  13
ENDBRANCH   1  10
BRANCH   4  18
ATOM     18  S   UNL     1      10.379   1.076   1.404  0.00  0.00    -0.102 S 
BRANCH  18  19
ATOM     19  C   UNL     1       9.202   0.913   2.774  0.00  0.00    +0.168 C 
BRANCH  19  20
ATOM     20  C   UNL     1       9.949   0.937   4.083  0.00  0.00    +0.224 C 
ATOM     21  O   UNL     1      11.156   1.053   4.090  0.00  0.00    -0.275 OA
ATOM     22  N   UNL     1       9.275   0.830   5.245  0.00  0.00    -0.301 N 
ATOM     23  H   UNL     1       8.310   0.738   5.240  0.00  0.00    +0.150 HD
BRANCH  22  24
ATOM     24  C   UNL     1      10.001   0.854   6.518  0.00  0.00    +0.156 C 
ATOM     25  C   UNL     1       9.374   1.858   7.511  0.00  0.00    +0.149 C 
ATOM     26  C   UNL     1      10.435   2.571   8.327  0.00  0.00    -0.041 C 
ATOM     27  C   UNL     1      11.670   2.567   7.859  0.00  0.00    -0.012 C 
ATOM     28  S   UNL     1      11.657   1.637   6.337  0.00  0.00    -0.106 S 
ATOM     29  C   UNL     1      12.623   3.328   8.750  0.00  0.00    +0.042 C 
ATOM     30  C   UNL     1      11.710   4.178   9.658  0.00  0.00    +0.009 C 
ATOM     31  C   UNL     1      10.415   3.343   9.652  0.00  0.00    +0.033 C 
BRANCH  25  32
ATOM     32  C   UNL     1       8.597   2.857   6.759  0.00  0.00    +0.073 C 
ATOM     33  N   UNL     1       7.997   3.627   6.178  0.00  0.00    -0.196 NA
ENDBRANCH  25  32
ENDBRANCH  22  24
ENDBRANCH  19  20
ENDBRANCH  18  19
ENDBRANCH   4  18
TORSDOF 7
