REMARK  Name = ZINC09278369
REMARK  9 active torsions:
REMARK  status: ('A' for Active; 'I' for Inactive)
REMARK    1  A    between atoms: C_1  and  N_2
REMARK    2  A    between atoms: N_11  and  C_29
REMARK    3  A    between atoms: C_12  and  C_14
REMARK    4  A    between atoms: C_14  and  N_62
REMARK    5  A    between atoms: C_15  and  C_16
REMARK    6  A    between atoms: C_15  and  N_62
REMARK    7  A    between atoms: C_22  and  C_23
REMARK    8  A    between atoms: C_22  and  N_62
REMARK    9  A    between atoms: C_29  and  C_30
REMARK                            x       y       z     vdW  Elec       q    Type
REMARK                         _______ _______ _______ _____ _____    ______ ____
ROOT
ATOM      1  C   UNL     1      -1.743  -0.775   0.785  0.00  0.00    +0.155 C 
ATOM      2  N   UNL     1      -0.448  -0.091   0.749  0.00  0.00    -0.280 N 
ATOM      3  C   UNL     1      -0.352   1.181   0.209  0.00  0.00    +0.168 A 
ATOM      4  C   UNL     1       0.887   1.809   0.187  0.00  0.00    +0.152 A 
ATOM      5  C   UNL     1       2.010   1.134   0.713  0.00  0.00    +0.280 A 
ATOM      6  O   UNL     1       3.107   1.663   0.705  0.00  0.00    -0.265 OA
ATOM      7  N   UNL     1       1.853  -0.105   1.226  0.00  0.00    -0.273 N 
ATOM      8  H   UNL     1       2.645  -0.587   1.600  0.00  0.00    +0.173 HD
ATOM      9  C   UNL     1       0.648  -0.700   1.241  0.00  0.00    +0.331 A 
ATOM     10  O   UNL     1       0.545  -1.817   1.710  0.00  0.00    -0.246 OA
ATOM     11  N   UNL     1       0.685   3.043  -0.397  0.00  0.00    -0.319 N 
ATOM     12  C   UNL     1      -0.625   3.125  -0.701  0.00  0.00    +0.096 A 
ATOM     13  N   UNL     1      -1.231   2.021  -0.345  0.00  0.00    -0.216 NA
ENDROOT
BRANCH  12  14
ATOM     14  C   UNL     1      -1.292   4.306  -1.357  0.00  0.00    -0.002 C 
BRANCH  14  15
ATOM     15  N   UNL     1      -1.275   4.115  -2.823  0.00  0.00    +0.390 N 
ATOM     16  H   UNL     1      -0.300   4.084  -3.144  0.00  0.00    -0.080 HD
BRANCH  15  17
ATOM     17  C   UNL     1      -1.937   2.841  -3.173  0.00  0.00    -0.042 C 
BRANCH  17  18
ATOM     18  C   UNL     1      -1.714   2.564  -4.638  0.00  0.00    -0.064 A 
ATOM     19  C   UNL     1      -2.628   3.011  -5.573  0.00  0.00    +0.002 A 
ATOM     20  C   UNL     1      -2.421   2.762  -6.917  0.00  0.00    +0.000 A 
ATOM     21  C   UNL     1      -1.304   2.056  -7.324  0.00  0.00    +0.000 A 
ATOM     22  C   UNL     1      -0.393   1.604  -6.389  0.00  0.00    +0.000 A 
ATOM     23  C   UNL     1      -0.597   1.858  -5.046  0.00  0.00    +0.002 A 
ENDBRANCH  17  18
ENDBRANCH  15  17
BRANCH  15  24
ATOM     24  C   UNL     1      -1.964   5.241  -3.487  0.00  0.00    -0.042 C 
BRANCH  24  25
ATOM     25  C   UNL     1      -1.126   6.484  -3.330  0.00  0.00    -0.064 A 
ATOM     26  C   UNL     1      -1.268   7.276  -2.206  0.00  0.00    +0.002 A 
ATOM     27  C   UNL     1      -0.495   8.413  -2.060  0.00  0.00    +0.000 A 
ATOM     28  C   UNL     1       0.411   8.764  -3.043  0.00  0.00    +0.000 A 
ATOM     29  C   UNL     1       0.549   7.974  -4.169  0.00  0.00    +0.000 A 
ATOM     30  C   UNL     1      -0.219   6.834  -4.313  0.00  0.00    +0.002 A 
ENDBRANCH  24  25
ENDBRANCH  15  24
ENDBRANCH  14  15
ENDBRANCH  12  14
BRANCH  11  31
ATOM     31  C   UNL     1       1.702   4.070  -0.640  0.00  0.00    +0.160 C 
BRANCH  31  32
ATOM     32  C   UNL     1       2.129   4.021  -2.084  0.00  0.00    -0.009 A 
ATOM     33  C   UNL     1       1.923   5.115  -2.904  0.00  0.00    +0.007 A 
ATOM     34  C   UNL     1       2.314   5.071  -4.228  0.00  0.00    +0.000 A 
ATOM     35  C   UNL     1       2.913   3.932  -4.735  0.00  0.00    +0.001 A 
ATOM     36  C   UNL     1       3.120   2.838  -3.917  0.00  0.00    +0.020 A 
ATOM     37  C   UNL     1       2.732   2.884  -2.589  0.00  0.00    +0.046 A 
ATOM     38 CL   UNL     1       2.999   1.512  -1.560  0.00  0.00    -0.083 Cl
ENDBRANCH  31  32
ENDBRANCH  11  31
TORSDOF 8
