REMARK  Name = ZINC18972612
REMARK  9 active torsions:
REMARK  status: ('A' for Active; 'I' for Inactive)
REMARK    1  A    between atoms: C_1  and  C_2
REMARK    2  A    between atoms: C_5  and  N_8
REMARK    3  A    between atoms: C_9  and  C_28
REMARK    4  A    between atoms: C_12  and  S_13
REMARK    5  A    between atoms: S_13  and  C_14
REMARK    6  A    between atoms: C_14  and  C_15
REMARK    7  A    between atoms: N_17  and  C_18
REMARK    8  A    between atoms: C_21  and  C_24
REMARK    9  A    between atoms: N_26  and  C_27
REMARK                            x       y       z     vdW  Elec       q    Type
REMARK                         _______ _______ _______ _____ _____    ______ ____
ROOT
ATOM      1  N   UNL     1      -8.018   9.704   0.670  0.00  0.00    -0.270 N 
ATOM      2  C   UNL     1      -9.395   9.672   0.731  0.00  0.00    +0.169 A 
ATOM      3  N   UNL     1      -9.754   8.412   0.647  0.00  0.00    -0.128 NA
ATOM      4  N   UNL     1      -8.715   7.664   0.534  0.00  0.00    -0.122 NA
ATOM      5  C   UNL     1      -7.625   8.400   0.539  0.00  0.00    +0.197 A 
ENDROOT
BRANCH   1  10
ATOM      6  C   UNL     1      -4.679  14.287   0.900  0.00  0.00    +0.044 C 
ATOM      7  C   UNL     1      -5.566  13.070   0.839  0.00  0.00    -0.050 A 
ATOM      8  C   UNL     1      -5.616  12.310  -0.315  0.00  0.00    +0.005 A 
ATOM      9  C   UNL     1      -6.428  11.194  -0.374  0.00  0.00    +0.026 A 
ATOM     10  C   UNL     1      -7.194  10.836   0.727  0.00  0.00    +0.051 A 
ATOM     11  C   UNL     1      -7.146  11.604   1.882  0.00  0.00    +0.026 A 
ATOM     12  C   UNL     1      -6.328  12.716   1.937  0.00  0.00    +0.005 A 
ENDBRANCH   1  10
BRANCH   2  13
ATOM     13  C   UNL     1     -10.296  10.835   0.869  0.00  0.00    +0.020 A 
ATOM     14  C   UNL     1      -9.814  12.125   0.641  0.00  0.00    +0.013 A 
ATOM     15  C   UNL     1     -10.661  13.207   0.767  0.00  0.00    +0.021 A 
ATOM     16  C   UNL     1     -11.984  13.015   1.130  0.00  0.00    +0.041 A 
ATOM     17  C   UNL     1     -12.466  11.738   1.363  0.00  0.00    +0.021 A 
ATOM     18  C   UNL     1     -11.630  10.649   1.234  0.00  0.00    +0.013 A 
ATOM     19 CL   UNL     1     -13.042  14.382   1.293  0.00  0.00    -0.084 Cl
ENDBRANCH   2  13
BRANCH   5  20
ATOM     20  S   UNL     1      -5.968   7.815   0.410  0.00  0.00    -0.076 S 
BRANCH  20  21
ATOM     21  C   UNL     1      -6.272   6.035   0.281  0.00  0.00    +0.173 C 
BRANCH  21  22
ATOM     22  C   UNL     1      -4.958   5.309   0.158  0.00  0.00    +0.227 C 
ATOM     23  O   UNL     1      -3.918   5.933   0.157  0.00  0.00    -0.275 OA
ATOM     24  N   UNL     1      -4.938   3.966   0.048  0.00  0.00    -0.285 N 
ATOM     25  H   UNL     1      -5.770   3.472  -0.018  0.00  0.00    +0.155 HD
BRANCH  24  26
ATOM     26  C   UNL     1      -3.721   3.286   0.030  0.00  0.00    +0.033 A 
ATOM     27  C   UNL     1      -2.613   3.861  -0.586  0.00  0.00    +0.024 A 
ATOM     28  C   UNL     1      -1.410   3.192  -0.605  0.00  0.00    +0.015 A 
ATOM     29  C   UNL     1      -1.301   1.935  -0.006  0.00  0.00    +0.037 A 
ATOM     30  C   UNL     1      -2.417   1.357   0.607  0.00  0.00    +0.015 A 
ATOM     31  C   UNL     1      -3.616   2.034   0.627  0.00  0.00    +0.024 A 
BRANCH  29  32
ATOM     32  C   UNL     1      -0.013   1.215  -0.025  0.00  0.00    +0.244 C 
ATOM     33  O   UNL     1       0.955   1.716  -0.563  0.00  0.00    -0.270 OA
ATOM     34  N   UNL     1       0.091   0.004   0.558  0.00  0.00    -0.314 N 
ATOM     35  C   UNL     1       1.372  -0.707   0.545  0.00  0.00    +0.128 C 
ATOM     36  H   UNL     1      -0.681  -0.396   0.988  0.00  0.00    +0.149 HD
ENDBRANCH  29  32
ENDBRANCH  24  26
ENDBRANCH  21  22
ENDBRANCH  20  21
ENDBRANCH   5  20
TORSDOF 7
