REMARK  Name = ZINC44834399
REMARK  6 active torsions:
REMARK  status: ('A' for Active; 'I' for Inactive)
REMARK    1  A    between atoms: C_1  and  C_2
REMARK    2  A    between atoms: C_2  and  C_3
REMARK    3  A    between atoms: C_3  and  C_5
REMARK    4  A    between atoms: C_3  and  C_8
REMARK    5  A    between atoms: C_5  and  N_7
REMARK    6  A    between atoms: N_10  and  C_11
REMARK                            x       y       z     vdW  Elec       q    Type
REMARK                         _______ _______ _______ _____ _____    ______ ____
ROOT
ATOM      1  C   UNL     1      -2.297  -1.873  -1.141  0.00  0.00    +0.226 C 
ATOM      2  O   UNL     1      -1.951  -2.304  -2.221  0.00  0.00    -0.275 OA
ATOM      3  N   UNL     1      -2.574  -2.724  -0.133  0.00  0.00    -0.283 N 
ATOM      4  H   UNL     1      -2.780  -2.379   0.750  0.00  0.00    +0.155 HD
ENDROOT
BRANCH   3   5
ATOM      5  C   UNL     1      -2.565  -4.106  -0.361  0.00  0.00    +0.071 A 
ATOM      6  C   UNL     1      -1.401  -4.837  -0.156  0.00  0.00    +0.065 A 
ATOM      7  C   UNL     1      -1.395  -6.200  -0.381  0.00  0.00    +0.042 A 
ATOM      8  C   UNL     1      -2.546  -6.838  -0.810  0.00  0.00    +0.044 A 
ATOM      9  C   UNL     1      -3.706  -6.112  -1.015  0.00  0.00    +0.042 A 
ATOM     10  C   UNL     1      -3.720  -4.749  -0.786  0.00  0.00    +0.065 A 
ATOM     11 CL   UNL     1      -5.178  -3.841  -1.037  0.00  0.00    -0.082 Cl
ATOM     12 CL   UNL     1      -2.534  -8.550  -1.093  0.00  0.00    -0.083 Cl
ATOM     13 CL   UNL     1       0.044  -4.038   0.381  0.00  0.00    -0.082 Cl
ENDBRANCH   3   5
BRANCH   1  14
ATOM     14  C   UNL     1      -2.418  -0.386  -0.927  0.00  0.00    +0.126 C 
BRANCH  14  16
ATOM     15  C   UNL     1      -2.292   1.847  -2.040  0.00  0.00    +0.005 C 
ATOM     16  C   UNL     1      -2.050   0.347  -2.218  0.00  0.00    +0.016 C 
ENDBRANCH  14  16
BRANCH  14  17
ATOM     17  C   UNL     1      -1.484   0.040   0.176  0.00  0.00    +0.058 C 
ATOM     18  S   UNL     1      -2.067   0.735   1.493  0.00  0.00    -0.040 S 
BRANCH  17  19
ATOM     19  N   UNL     1      -0.158  -0.164   0.053  0.00  0.00    -0.355 N 
ATOM     20  H   UNL     1       0.196  -0.585  -0.746  0.00  0.00    +0.143 HD
ATOM     21  H   UNL     1       0.443   0.110   0.763  0.00  0.00    +0.143 HD
ENDBRANCH  17  19
ENDBRANCH  14  17
ENDBRANCH   1  14
TORSDOF 5
