REMARK  Name = ZINC63980137
REMARK  5 active torsions:
REMARK  status: ('A' for Active; 'I' for Inactive)
REMARK    1  A    between atoms: C_1  and  C_2
REMARK    2  A    between atoms: C_7  and  C_27
REMARK    3  A    between atoms: N_15  and  C_16
REMARK    4  A    between atoms: C_16  and  C_17
REMARK    5  A    between atoms: C_17  and  C_18
REMARK                            x       y       z     vdW  Elec       q    Type
REMARK                         _______ _______ _______ _____ _____    ______ ____
ROOT
ATOM      1  C   UNL     1      -2.273   1.093   0.590  0.00  0.00    +0.060 C 
ATOM      2  C   UNL     1      -1.665  -0.276   0.420  0.00  0.00    +0.008 C 
ATOM      3  C   UNL     1      -1.576  -0.805  -0.811  0.00  0.00    +0.085 C 
ATOM      4  C   UNL     1      -1.050  -2.096  -1.042  0.00  0.00    +0.245 C 
ATOM      5  O   UNL     1      -0.973  -2.526  -2.179  0.00  0.00    -0.270 OA
ATOM      6  N   UNL     1      -0.634  -2.849  -0.011  0.00  0.00    -0.238 N 
ATOM      7  C   UNL     1      -0.258  -4.257  -0.176  0.00  0.00    +0.198 C 
ATOM      8  N   UNL     1      -1.086  -5.021   0.776  0.00  0.00    -0.295 N 
ATOM      9  C   UNL     1      -1.385  -4.456   1.993  0.00  0.00    +0.180 C 
ATOM     10  N   UNL     1      -1.188  -3.207   2.263  0.00  0.00    -0.215 NA
ATOM     11  C   UNL     1      -0.588  -2.262   1.335  0.00  0.00    +0.290 C 
ATOM     12  N   UNL     1      -1.211  -0.946   1.524  0.00  0.00    -0.311 N 
ATOM     13  N   UNL     1      -1.919  -5.260   2.972  0.00  0.00    -0.317 N 
ATOM     14  H   UNL     1      -1.302  -0.562   2.410  0.00  0.00    +0.149 HD
ATOM     15  H   UNL     1      -2.077  -6.200   2.795  0.00  0.00    +0.149 HD
ATOM     16  H   UNL     1      -1.415  -5.905   0.547  0.00  0.00    +0.151 HD
ENDROOT
BRANCH   7  17
ATOM     17  C   UNL     1      -0.539  -4.707  -1.586  0.00  0.00    -0.009 A 
ATOM     18  C   UNL     1       0.509  -4.982  -2.445  0.00  0.00    +0.008 A 
ATOM     19  C   UNL     1       0.252  -5.394  -3.739  0.00  0.00    +0.020 A 
ATOM     20  C   UNL     1      -1.054  -5.531  -4.175  0.00  0.00    +0.041 A 
ATOM     21  C   UNL     1      -2.102  -5.255  -3.315  0.00  0.00    +0.020 A 
ATOM     22  C   UNL     1      -1.844  -4.849  -2.019  0.00  0.00    +0.008 A 
ATOM     23 CL   UNL     1      -1.378  -6.048  -5.800  0.00  0.00    -0.084 Cl
ENDBRANCH   7  17
BRANCH  13  24
ATOM     24  C   UNL     1      -2.251  -4.696   4.282  0.00  0.00    +0.108 C 
BRANCH  24  25
ATOM     25  C   UNL     1      -2.825  -5.793   5.180  0.00  0.00    +0.052 C 
BRANCH  25  26
ATOM     26  C   UNL     1      -3.166  -5.213   6.528  0.00  0.00    -0.040 C 
ATOM     27  C   UNL     1      -4.373  -4.757   6.936  0.00  0.00    -0.001 A 
ATOM     28  C   UNL     1      -5.678  -4.667   6.271  0.00  0.00    +0.010 A 
ATOM     29  C   UNL     1      -6.727  -4.151   6.951  0.00  0.00    +0.001 A 
ATOM     30  C   UNL     1      -6.598  -3.700   8.272  0.00  0.00    +0.002 A 
ATOM     31  C   UNL     1      -5.432  -3.750   8.949  0.00  0.00    +0.026 A 
ATOM     32  C   UNL     1      -4.263  -4.274   8.331  0.00  0.00    +0.043 A 
ATOM     33  N   UNL     1      -3.037  -4.426   8.769  0.00  0.00    -0.380 N 
ATOM     34  C   UNL     1      -2.230  -5.028   7.702  0.00  0.00    +0.144 C 
ATOM     35  H   UNL     1      -2.718  -4.184   9.652  0.00  0.00    +0.160 HD
ENDBRANCH  25  26
ENDBRANCH  24  25
ENDBRANCH  13  24
TORSDOF 4
