REMARK  Name = ZINC09778685
REMARK  10 active torsions:
REMARK  status: ('A' for Active; 'I' for Inactive)
REMARK    1  A    between atoms: C_1  and  C_2
REMARK    2  A    between atoms: C_5  and  S_25
REMARK    3  A    between atoms: C_7  and  N_8
REMARK    4  A    between atoms: C_9  and  C_11
REMARK    5  A    between atoms: C_11  and  N_66
REMARK    6  A    between atoms: C_12  and  C_13
REMARK    7  A    between atoms: C_12  and  N_66
REMARK    8  A    between atoms: C_18  and  C_19
REMARK    9  A    between atoms: C_18  and  N_66
REMARK   10  A    between atoms: S_25  and  N_28
REMARK                            x       y       z     vdW  Elec       q    Type
REMARK                         _______ _______ _______ _____ _____    ______ ____
ROOT
ATOM      1  N   UNL     1      -2.223   7.918  -1.982  0.00  0.00    -0.287 N 
ATOM      2  C   UNL     1      -2.301   6.712  -1.385  0.00  0.00    +0.201 C 
ATOM      3  O   UNL     1      -1.377   6.307  -0.712  0.00  0.00    -0.278 OA
ATOM      4  H   UNL     1      -2.926   8.208  -2.584  0.00  0.00    +0.155 HD
ENDROOT
BRANCH   1  11
ATOM      5  C   UNL     1      -1.533   9.854  -3.950  0.00  0.00    +0.045 C 
ATOM      6  C   UNL     1      -0.756   9.710  -2.667  0.00  0.00    -0.029 A 
ATOM      7  C   UNL     1       0.323  10.535  -2.415  0.00  0.00    +0.007 A 
ATOM      8  C   UNL     1       1.040  10.400  -1.241  0.00  0.00    +0.029 A 
ATOM      9  C   UNL     1       0.677   9.442  -0.312  0.00  0.00    +0.107 A 
ATOM     10  C   UNL     1      -0.404   8.618  -0.555  0.00  0.00    +0.052 A 
ATOM     11  C   UNL     1      -1.127   8.751  -1.733  0.00  0.00    +0.038 A 
BRANCH   9  12
ATOM     12  S   UNL     1       1.595   9.273   1.183  0.00  0.00    +0.061 S 
ATOM     13  O   UNL     1       2.225  10.525   1.416  0.00  0.00    -0.153 OA
ATOM     14  O   UNL     1       0.722   8.671   2.129  0.00  0.00    -0.153 OA
BRANCH  12  15
ATOM     15  N   UNL     1       2.805   8.180   0.893  0.00  0.00    -0.177 NA
ATOM     16  C   UNL     1       2.591   6.746   1.130  0.00  0.00    +0.109 C 
ATOM     17  C   UNL     1       2.951   5.980  -0.153  0.00  0.00    +0.017 C 
ATOM     18  C   UNL     1       4.377   6.342  -0.573  0.00  0.00    +0.003 C 
ATOM     19  C   UNL     1       4.459   7.841  -0.869  0.00  0.00    +0.017 C 
ATOM     20  C   UNL     1       4.115   8.628   0.400  0.00  0.00    +0.109 C 
ENDBRANCH  12  15
ENDBRANCH   9  12
ENDBRANCH   1  11
BRANCH   2  21
ATOM     21  C   UNL     1      -3.538   5.867  -1.554  0.00  0.00    +0.019 C 
BRANCH  21  22
ATOM     22  N   UNL     1      -3.369   4.616  -0.784  0.00  0.00    +0.390 N 
ATOM     23  H   UNL     1      -3.097   4.851   0.178  0.00  0.00    -0.081 HD
BRANCH  22  24
ATOM     24  C   UNL     1      -4.642   3.866  -0.754  0.00  0.00    -0.035 C 
BRANCH  24  25
ATOM     25  C   UNL     1      -4.543   2.785   0.291  0.00  0.00    -0.027 A 
ATOM     26  C   UNL     1      -4.924   2.818   1.592  0.00  0.00    +0.009 A 
ATOM     27  C   UNL     1      -4.738   1.694   2.373  0.00  0.00    +0.008 A 
ATOM     28  C   UNL     1      -4.171   0.594   1.819  0.00  0.00    +0.045 A 
ATOM     29  S   UNL     1      -3.887   1.132   0.141  0.00  0.00    -0.103 S 
ENDBRANCH  24  25
ENDBRANCH  22  24
BRANCH  22  30
ATOM     30  C   UNL     1      -2.308   3.787  -1.394  0.00  0.00    -0.046 C 
BRANCH  30  31
ATOM     31  C   UNL     1      -2.575   3.589  -2.888  0.00  0.00    +0.102 C 
ATOM     32  C   UNL     1      -1.381   2.871  -3.556  0.00  0.00    +0.032 C 
ATOM     33  C   UNL     1      -2.039   1.936  -4.595  0.00  0.00    +0.030 C 
ATOM     34  C   UNL     1      -3.553   2.196  -4.433  0.00  0.00    +0.160 C 
ATOM     35  O   UNL     1      -3.696   2.701  -3.085  0.00  0.00    -0.378 OA
ENDBRANCH  30  31
ENDBRANCH  22  30
ENDBRANCH  21  22
ENDBRANCH   2  21
TORSDOF 9
