REMARK  Name = ZINC40167307
REMARK  7 active torsions:
REMARK  status: ('A' for Active; 'I' for Inactive)
REMARK    1  A    between atoms: C_1  and  C_2
REMARK    2  A    between atoms: C_2  and  N_9
REMARK    3  A    between atoms: N_9  and  C_10
REMARK    4  A    between atoms: C_10  and  N_12
REMARK    5  A    between atoms: N_12  and  C_13
REMARK    6  A    between atoms: C_16  and  C_19
REMARK    7  A    between atoms: C_22  and  N_25
REMARK                            x       y       z     vdW  Elec       q    Type
REMARK                         _______ _______ _______ _____ _____    ______ ____
ROOT
ATOM      1  C   UNL     1       0.909  -0.282  -4.749  0.00  0.00    +0.033 A 
ATOM      2  C   UNL     1      -0.041   0.707  -4.976  0.00  0.00    +0.024 A 
ATOM      3  C   UNL     1      -0.382   1.053  -6.266  0.00  0.00    +0.010 A 
ATOM      4  C   UNL     1       0.229   0.412  -7.343  0.00  0.00    -0.018 A 
ATOM      5  C   UNL     1       1.182  -0.578  -7.113  0.00  0.00    +0.010 A 
ATOM      6  C   UNL     1       1.523  -0.918  -5.821  0.00  0.00    +0.024 A 
ENDROOT
BRANCH   4   7
ATOM      7  C   UNL     1      -0.136   0.783  -8.732  0.00  0.00    -0.018 A 
ATOM      8  C   UNL     1      -1.086   1.778  -8.963  0.00  0.00    +0.010 A 
ATOM      9  C   UNL     1      -1.423   2.121 -10.255  0.00  0.00    +0.023 A 
ATOM     10  C   UNL     1      -0.817   1.477 -11.327  0.00  0.00    +0.025 A 
ATOM     11  C   UNL     1       0.130   0.485 -11.099  0.00  0.00    +0.023 A 
ATOM     12  C   UNL     1       0.474   0.142  -9.809  0.00  0.00    +0.010 A 
BRANCH  10  13
ATOM     13  N   UNL     1      -1.160   1.826 -12.634  0.00  0.00    -0.358 N 
ATOM     14  H   UNL     1      -1.821   2.518 -12.794  0.00  0.00    +0.142 HD
ATOM     15  H   UNL     1      -0.738   1.377 -13.383  0.00  0.00    +0.142 HD
ENDBRANCH  10  13
ENDBRANCH   4   7
BRANCH   1  16
ATOM     16  N   UNL     1       1.252  -0.632  -3.439  0.00  0.00    -0.297 N 
ATOM     17  H   UNL     1       2.185  -0.736  -3.193  0.00  0.00    +0.154 HD
BRANCH  16  18
ATOM     18  C   UNL     1       0.287  -0.825  -2.518  0.00  0.00    +0.135 C 
ATOM     19  S   UNL     1      -1.352  -0.545  -2.925  0.00  0.00    -0.019 S 
BRANCH  18  20
ATOM     20  N   UNL     1       0.613  -1.239  -1.278  0.00  0.00    -0.319 N 
ATOM     21  H   UNL     1       1.545  -1.337  -1.028  0.00  0.00    +0.148 HD
BRANCH  20  23
ATOM     22  C   UNL     1      -1.354  -2.619  -0.895  0.00  0.00    +0.033 C 
ATOM     23  C   UNL     1      -0.441  -1.542  -0.306  0.00  0.00    +0.052 C 
ATOM     24  C   UNL     1       0.210  -2.091   0.962  0.00  0.00    +0.049 C 
ATOM     25  C   UNL     1       0.539  -0.933   1.944  0.00  0.00    +0.168 C 
ATOM     26  S   UNL     1      -0.969   0.107   1.710  0.00  0.00    -0.029 S 
ATOM     27  O   UNL     1      -2.031  -0.427   2.489  0.00  0.00    -0.174 OA
ATOM     28  O   UNL     1      -0.617   1.478   1.847  0.00  0.00    -0.174 OA
ATOM     29  C   UNL     1      -1.273  -0.266  -0.067  0.00  0.00    +0.191 C 
ENDBRANCH  20  23
ENDBRANCH  18  20
ENDBRANCH  16  18
ENDBRANCH   1  16
TORSDOF 6
