REMARK  Name = ZINC36548964
REMARK  12 active torsions:
REMARK  status: ('A' for Active; 'I' for Inactive)
REMARK    1  A    between atoms: C_1  and  C_2
REMARK    2  A    between atoms: C_5  and  S_8
REMARK    3  A    between atoms: S_8  and  C_11
REMARK    4  A    between atoms: C_11  and  N_12
REMARK    5  A    between atoms: C_13  and  C_15
REMARK    6  A    between atoms: C_15  and  C_17
REMARK    7  A    between atoms: C_15  and  N_25
REMARK    8  A    between atoms: C_20  and  O_23
REMARK    9  A    between atoms: O_23  and  C_24
REMARK   10  A    between atoms: N_25  and  C_26
REMARK   11  A    between atoms: C_33  and  C_35
REMARK   12  A    between atoms: C_35  and  C_37
REMARK                            x       y       z     vdW  Elec       q    Type
REMARK                         _______ _______ _______ _____ _____    ______ ____
ROOT
ATOM      1  C   UNL     1       5.126  -5.898   4.068  0.00  0.00    +0.198 C 
ENDROOT
BRANCH   1   2
ATOM      2  C   UNL     1       6.410  -5.921   4.857  0.00  0.00    -0.018 A 
ATOM      3  C   UNL     1       6.748  -7.043   5.591  0.00  0.00    +0.009 A 
ATOM      4  C   UNL     1       7.924  -7.067   6.316  0.00  0.00    +0.046 A 
ATOM      5  C   UNL     1       8.766  -5.964   6.306  0.00  0.00    +0.120 A 
ATOM      6  C   UNL     1       8.425  -4.840   5.568  0.00  0.00    +0.046 A 
ATOM      7  C   UNL     1       7.250  -4.823   4.841  0.00  0.00    +0.009 A 
BRANCH   5   8
ATOM      8  O   UNL     1       9.923  -5.985   7.018  0.00  0.00    -0.495 OA
ATOM      9  C   UNL     1      10.741  -4.815   6.961  0.00  0.00    +0.277 C 
ENDBRANCH   5   8
ENDBRANCH   1   2
BRANCH   1  11
ATOM     10  N   UNL     1       5.420  -6.309   1.646  0.00  0.00    -0.294 N 
ATOM     11  C   UNL     1       5.249  -6.819   2.882  0.00  0.00    +0.240 C 
ATOM     12  O   UNL     1       5.192  -8.021   3.039  0.00  0.00    -0.273 OA
ATOM     13  H   UNL     1       5.465  -5.348   1.521  0.00  0.00    +0.150 HD
BRANCH  10  14
ATOM     14  C   UNL     1       5.539  -7.204   0.493  0.00  0.00    +0.278 C 
BRANCH  14  15
ATOM     15  S   UNL     1       3.914  -7.405  -0.286  0.00  0.00    +0.013 S 
ATOM     16  O   UNL     1       2.928  -7.677   0.700  0.00  0.00    -0.168 OA
ATOM     17  O   UNL     1       4.024  -8.222  -1.444  0.00  0.00    -0.168 OA
BRANCH  15  22
ATOM     18  C   UNL     1       2.513  -1.928  -2.393  0.00  0.00    +0.044 C 
ATOM     19  C   UNL     1       2.863  -3.296  -1.867  0.00  0.00    -0.050 A 
ATOM     20  C   UNL     1       3.556  -4.187  -2.665  0.00  0.00    +0.005 A 
ATOM     21  C   UNL     1       3.877  -5.442  -2.182  0.00  0.00    +0.027 A 
ATOM     22  C   UNL     1       3.506  -5.806  -0.901  0.00  0.00    +0.090 A 
ATOM     23  C   UNL     1       2.814  -4.914  -0.103  0.00  0.00    +0.027 A 
ATOM     24  C   UNL     1       2.497  -3.658  -0.584  0.00  0.00    +0.005 A 
ENDBRANCH  15  22
ENDBRANCH  14  15
ENDBRANCH  10  14
ENDBRANCH   1  11
BRANCH   1  25
ATOM     25  N   UNL     1       4.021  -6.343   4.920  0.00  0.00    -0.250 N 
ATOM     26  C   UNL     1       3.691  -5.636   6.019  0.00  0.00    +0.247 C 
ATOM     27  O   UNL     1       4.268  -4.596   6.269  0.00  0.00    -0.270 OA
BRANCH  25  28
ATOM     28  C   UNL     1       3.308  -7.501   4.593  0.00  0.00    +0.056 A 
ATOM     29  C   UNL     1       3.726  -8.735   5.074  0.00  0.00    +0.025 A 
ATOM     30  C   UNL     1       3.020  -9.877   4.750  0.00  0.00    +0.002 A 
ATOM     31  C   UNL     1       1.898  -9.793   3.946  0.00  0.00    +0.002 A 
ATOM     32  C   UNL     1       1.478  -8.567   3.464  0.00  0.00    +0.022 A 
ATOM     33  C   UNL     1       2.177  -7.419   3.790  0.00  0.00    +0.062 A 
ATOM     34 CL   UNL     1       1.645  -5.879   3.191  0.00  0.00    -0.082 Cl
ENDBRANCH  25  28
BRANCH  26  35
ATOM     35  C   UNL     1       2.632  -6.124   6.917  0.00  0.00    +0.005 C 
ATOM     36  C   UNL     1       2.228  -5.374   7.938  0.00  0.00    +0.017 C 
ATOM     37  C   UNL     1       2.006  -7.474   6.679  0.00  0.00    +0.048 C 
ENDBRANCH  26  35
ENDBRANCH   1  25
TORSDOF 9
