REMARK  Name = ZINC31942753
REMARK  11 active torsions:
REMARK  status: ('A' for Active; 'I' for Inactive)
REMARK    1  A    between atoms: C_1  and  C_2
REMARK    2  A    between atoms: C_2  and  C_3
REMARK    3  A    between atoms: C_3  and  C_4
REMARK    4  A    between atoms: C_3  and  C_6
REMARK    5  A    between atoms: C_4  and  C_5
REMARK    6  A    between atoms: C_12  and  C_13
REMARK    7  A    between atoms: C_16  and  C_18
REMARK    8  A    between atoms: C_21  and  C_24
REMARK    9  A    between atoms: C_24  and  O_26
REMARK   10  A    between atoms: O_26  and  C_27
REMARK   11  A    between atoms: C_27  and  C_28
REMARK                            x       y       z     vdW  Elec       q    Type
REMARK                         _______ _______ _______ _____ _____    ______ ____
ROOT
ATOM      1  C   UNL     1       1.023  -1.734   3.132  0.00  0.00    +0.103 C 
ATOM      2  N   UNL     1       0.204  -2.738   3.005  0.00  0.00    -0.169 NA
ATOM      3  N   UNL     1       0.615  -3.932   2.454  0.00  0.00    -0.152 N 
ATOM      4  C   UNL     1      -0.209  -5.047   2.189  0.00  0.00    +0.153 C 
ATOM      5  N   UNL     1      -1.505  -4.962   2.037  0.00  0.00    -0.283 NA
ATOM      6  C   UNL     1       0.542  -6.328   2.099  0.00  0.00    +0.084 C 
ATOM      7  C   UNL     1      -0.013  -7.529   2.510  0.00  0.00    +0.063 C 
ATOM      8  C   UNL     1       1.915  -6.252   1.547  0.00  0.00    +0.273 C 
ATOM      9  O   UNL     1       2.432  -7.221   1.014  0.00  0.00    -0.268 OA
ATOM     10  N   UNL     1       2.575  -5.081   1.647  0.00  0.00    -0.152 NA
ATOM     11  C   UNL     1       1.946  -4.029   2.106  0.00  0.00    +0.181 C 
ATOM     12  S   UNL     1       2.540  -2.395   2.456  0.00  0.00    -0.038 S 
ATOM     13  H   UNL     1      -2.026  -5.760   1.857  0.00  0.00    +0.188 HD
ENDROOT
BRANCH   7  14
ATOM     14  C   UNL     1       0.798  -8.672   2.635  0.00  0.00    +0.129 A 
ATOM     15  C   UNL     1       0.354  -9.959   2.899  0.00  0.00    +0.050 A 
ATOM     16  C   UNL     1       1.484 -10.775   2.937  0.00  0.00    +0.050 A 
ATOM     17  C   UNL     1       2.574  -9.966   2.696  0.00  0.00    +0.136 A 
ATOM     18  O   UNL     1       2.141  -8.707   2.511  0.00  0.00    -0.455 OA
BRANCH  17  19
ATOM     19  C   UNL     1       3.980 -10.409   2.644  0.00  0.00    +0.017 A 
ATOM     20  C   UNL     1       4.296 -11.757   2.844  0.00  0.00    +0.012 A 
ATOM     21  C   UNL     1       5.603 -12.169   2.795  0.00  0.00    +0.015 A 
ATOM     22  C   UNL     1       6.619 -11.242   2.547  0.00  0.00    +0.059 A 
ATOM     23  C   UNL     1       6.303  -9.894   2.347  0.00  0.00    +0.015 A 
ATOM     24  C   UNL     1       4.996  -9.483   2.390  0.00  0.00    +0.012 A 
BRANCH  22  25
ATOM     25  C   UNL     1       8.026 -11.685   2.495  0.00  0.00    +0.339 C 
ATOM     26  O   UNL     1       8.301 -12.856   2.669  0.00  0.00    -0.245 OA
BRANCH  25  27
ATOM     27  O   UNL     1       9.006 -10.792   2.255  0.00  0.00    -0.461 OA
BRANCH  27  28
ATOM     28  C   UNL     1      10.344 -11.291   2.219  0.00  0.00    +0.229 C 
ATOM     29  C   UNL     1      11.311 -10.139   1.937  0.00  0.00    +0.048 C 
ENDBRANCH  27  28
ENDBRANCH  25  27
ENDBRANCH  22  25
ENDBRANCH  17  19
ENDBRANCH   7  14
BRANCH   1  30
ATOM     30  C   UNL     1       0.759  -0.362   3.698  0.00  0.00    +0.046 C 
BRANCH  30  32
ATOM     31  C   UNL     1       1.647   0.829   1.690  0.00  0.00    +0.004 C 
ATOM     32  C   UNL     1       0.411   0.600   2.561  0.00  0.00    +0.007 C 
ENDBRANCH  30  32
BRANCH  30  33
ATOM     33  C   UNL     1      -0.410  -0.434   4.682  0.00  0.00    +0.007 C 
ATOM     34  C   UNL     1       0.008  -1.239   5.914  0.00  0.00    +0.004 C 
ENDBRANCH  30  33
ENDBRANCH   1  30
TORSDOF 8
