REMARK  Name = ZINC38604243
REMARK  5 active torsions:
REMARK  status: ('A' for Active; 'I' for Inactive)
REMARK    1  A    between atoms: C_4  and  C_7
REMARK    2  A    between atoms: C_17  and  C_19
REMARK    3  A    between atoms: N_21  and  C_22
REMARK    4  A    between atoms: C_27  and  C_28
REMARK    5  A    between atoms: C_28  and  C_30
REMARK                            x       y       z     vdW  Elec       q    Type
REMARK                         _______ _______ _______ _____ _____    ______ ____
ROOT
ATOM      1  C   UNL     1       4.897  -1.134  -0.417  0.00  0.00    -0.011 C 
ATOM      2  C   UNL     1       6.264  -0.870  -0.540  0.00  0.00    +0.002 A 
ATOM      3  C   UNL     1       6.726   0.441  -0.783  0.00  0.00    +0.030 A 
ATOM      4  C   UNL     1       8.063   0.671  -0.898  0.00  0.00    +0.042 A 
ATOM      5  C   UNL     1       8.988  -0.365  -0.781  0.00  0.00    +0.022 A 
ATOM      6  C   UNL     1       8.603  -1.650  -0.548  0.00  0.00    +0.025 A 
ATOM      7  C   UNL     1       7.237  -1.960  -0.417  0.00  0.00    +0.041 A 
ATOM      8  N   UNL     1       6.861  -3.223  -0.186  0.00  0.00    -0.284 N 
ATOM      9  C   UNL     1       5.603  -3.595  -0.053  0.00  0.00    +0.234 C 
ATOM     10  O   UNL     1       5.334  -4.764   0.155  0.00  0.00    -0.274 OA
ATOM     11  C   UNL     1       4.495  -2.571  -0.150  0.00  0.00    +0.192 C 
ATOM     12 CL   UNL     1       8.626   2.286  -1.198  0.00  0.00    -0.084 Cl
ATOM     13  H   UNL     1       7.551  -3.901  -0.114  0.00  0.00    +0.155 HD
ENDROOT
BRANCH   1  17
ATOM     14  C   UNL     1       2.039   1.911  -0.755  0.00  0.00    +0.000 A 
ATOM     15  C   UNL     1       2.849   1.605  -1.836  0.00  0.00    +0.001 A 
ATOM     16  C   UNL     1       3.792   0.606  -1.736  0.00  0.00    +0.008 A 
ATOM     17  C   UNL     1       3.931  -0.103  -0.531  0.00  0.00    -0.020 A 
ATOM     18  C   UNL     1       3.105   0.215   0.559  0.00  0.00    +0.008 A 
ATOM     19  C   UNL     1       2.168   1.217   0.438  0.00  0.00    +0.001 A 
ENDBRANCH   1  17
BRANCH  11  20
ATOM     20  C   UNL     1       3.568  -3.006  -1.256  0.00  0.00    +0.234 C 
ATOM     21  O   UNL     1       3.278  -2.232  -2.143  0.00  0.00    -0.274 OA
ATOM     22  N   UNL     1       3.059  -4.254  -1.258  0.00  0.00    -0.284 N 
ATOM     23  H   UNL     1       3.223  -4.845  -0.506  0.00  0.00    +0.155 HD
BRANCH  22  24
ATOM     24  C   UNL     1       2.299  -4.694  -2.338  0.00  0.00    +0.044 A 
ATOM     25  C   UNL     1       2.399  -4.057  -3.567  0.00  0.00    +0.025 A 
ATOM     26  C   UNL     1       1.645  -4.495  -4.638  0.00  0.00    +0.022 A 
ATOM     27  C   UNL     1       0.783  -5.572  -4.495  0.00  0.00    +0.042 A 
ATOM     28  C   UNL     1       0.670  -6.217  -3.282  0.00  0.00    +0.033 A 
ATOM     29  C   UNL     1       1.432  -5.789  -2.191  0.00  0.00    +0.045 A 
ATOM     30 CL   UNL     1      -0.159  -6.110  -5.851  0.00  0.00    -0.084 Cl
BRANCH  29  31
ATOM     31  C   UNL     1       1.322  -6.478  -0.893  0.00  0.00    +0.195 C 
ATOM     32  O   UNL     1       1.866  -7.553  -0.727  0.00  0.00    -0.287 OA
BRANCH  31  33
ATOM     33  C   UNL     1       0.549  -5.863   0.207  0.00  0.00    +0.022 A 
ATOM     34  C   UNL     1      -0.179  -4.692  -0.017  0.00  0.00    +0.012 A 
ATOM     35  C   UNL     1      -0.898  -4.123   1.014  0.00  0.00    +0.001 A 
ATOM     36  C   UNL     1      -0.897  -4.709   2.268  0.00  0.00    +0.000 A 
ATOM     37  C   UNL     1      -0.178  -5.869   2.496  0.00  0.00    +0.001 A 
ATOM     38  C   UNL     1       0.540  -6.452   1.473  0.00  0.00    +0.012 A 
ENDBRANCH  31  33
ENDBRANCH  29  31
ENDBRANCH  22  24
ENDBRANCH  11  20
TORSDOF 5
