REMARK  Name = ZINC21976936
REMARK  8 active torsions:
REMARK  status: ('A' for Active; 'I' for Inactive)
REMARK    1  A    between atoms: C_1  and  C_2
REMARK    2  A    between atoms: C_2  and  O_3
REMARK    3  A    between atoms: O_3  and  C_4
REMARK    4  A    between atoms: C_9  and  C_10
REMARK    5  A    between atoms: C_10  and  S_11
REMARK    6  A    between atoms: S_11  and  C_12
REMARK    7  A    between atoms: C_15  and  C_17
REMARK    8  A    between atoms: C_28  and  C_31
REMARK                            x       y       z     vdW  Elec       q    Type
REMARK                         _______ _______ _______ _____ _____    ______ ____
ROOT
ATOM      1  S   UNL     1       3.788   0.847  -0.029  0.00  0.00    -0.061 S 
ENDROOT
BRANCH   1   2
ATOM      2  C   UNL     1       2.029   0.743  -0.013  0.00  0.00    +0.278 A 
ATOM      3  N   UNL     1       1.192   1.752   0.000  0.00  0.00    -0.101 NA
ATOM      4  N   UNL     1      -0.016   1.308   0.009  0.00  0.00    -0.106 NA
ATOM      5  C   UNL     1       0.002  -0.004   0.002  0.00  0.00    +0.251 A 
ATOM      6  O   UNL     1       1.297  -0.390  -0.012  0.00  0.00    -0.411 OA
BRANCH   5   7
ATOM      7  C   UNL     1      -1.175  -0.894   0.009  0.00  0.00    +0.063 A 
ATOM      8  C   UNL     1      -1.165  -2.253   0.003  0.00  0.00    +0.097 A 
ATOM      9  N   UNL     1      -2.446  -2.722   0.013  0.00  0.00    -0.360 N 
ATOM     10  H   UNL     1      -2.635  -3.806   0.010  0.00  0.00    +0.165 HD
ATOM     11  C   UNL     1      -3.338  -1.672   0.027  0.00  0.00    +0.047 A 
ATOM     12  C   UNL     1      -2.589  -0.483   0.031  0.00  0.00    +0.012 A 
ATOM     13  C   UNL     1      -3.237   0.750   0.049  0.00  0.00    +0.011 A 
ATOM     14  C   UNL     1      -4.614   0.797   0.067  0.00  0.00    +0.001 A 
ATOM     15  C   UNL     1      -5.355  -0.376   0.067  0.00  0.00    +0.002 A 
ATOM     16  C   UNL     1      -4.728  -1.603   0.042  0.00  0.00    +0.026 A 
ENDBRANCH   5   7
ENDBRANCH   1   2
BRANCH   1  17
ATOM     17  C   UNL     1       3.995   2.645  -0.021  0.00  0.00    +0.118 C 
BRANCH  17  23
ATOM     18  C   UNL     1       6.127   3.141  -1.241  0.00  0.00    +0.125 A 
ATOM     19  C   UNL     1       7.479   3.454  -1.247  0.00  0.00    +0.053 A 
ATOM     20  C   UNL     1       8.155   3.604  -0.056  0.00  0.00    +0.001 A 
ATOM     21  C   UNL     1       7.502   3.439   1.159  0.00  0.00    +0.125 A 
ATOM     22  C   UNL     1       6.143   3.134   1.158  0.00  0.00    +0.054 A 
ATOM     23  C   UNL     1       5.464   2.981  -0.033  0.00  0.00    +0.008 A 
ATOM     24  O   UNL     1       8.356   3.616   2.205  0.00  0.00    -0.488 OA
ATOM     25  C   UNL     1       9.514   4.339   1.754  0.00  0.00    +0.175 C 
ATOM     26  C   UNL     1       9.597   3.954   0.258  0.00  0.00    +0.083 C 
ATOM     27  C   UNL     1      10.766   3.878   2.502  0.00  0.00    +0.052 C 
BRANCH  18  28
ATOM     28  O   UNL     1       5.455   2.992  -2.414  0.00  0.00    -0.492 OA
BRANCH  28  30
ATOM     29  C   UNL     1       5.285   2.966  -4.824  0.00  0.00    +0.048 C 
ATOM     30  C   UNL     1       6.203   3.172  -3.618  0.00  0.00    +0.225 C 
ENDBRANCH  28  30
ENDBRANCH  18  28
ENDBRANCH  17  23
ENDBRANCH   1  17
TORSDOF 6
