REMARK  Name = ZINC22487360
REMARK  7 active torsions:
REMARK  status: ('A' for Active; 'I' for Inactive)
REMARK    1  A    between atoms: C_1  and  C_2
REMARK    2  A    between atoms: C_3  and  C_26
REMARK    3  A    between atoms: C_5  and  S_7
REMARK    4  A    between atoms: S_7  and  C_8
REMARK    5  A    between atoms: C_8  and  C_9
REMARK    6  A    between atoms: C_19  and  C_21
REMARK    7  A    between atoms: C_26  and  C_27
REMARK                            x       y       z     vdW  Elec       q    Type
REMARK                         _______ _______ _______ _____ _____    ______ ____
ROOT
ATOM      1  C   UNL     1      -0.718   1.572   1.248  0.00  0.00    +0.227 C 
ATOM      2  O   UNL     1      -1.714   2.256   1.150  0.00  0.00    -0.275 OA
ATOM      3  N   UNL     1      -0.242   1.246   2.466  0.00  0.00    -0.289 N 
ATOM      4  C   UNL     1       0.962   0.412   2.597  0.00  0.00    +0.114 C 
ATOM      5  C   UNL     1       2.064   1.264   3.257  0.00  0.00    +0.062 C 
ATOM      6  C   UNL     1       1.460   2.035   4.385  0.00  0.00    -0.003 A 
ATOM      7  C   UNL     1       0.142   2.272   4.625  0.00  0.00    -0.012 A 
ATOM      8  C   UNL     1      -0.161   3.033   5.753  0.00  0.00    +0.013 A 
ATOM      9  C   UNL     1       0.833   3.492   6.547  0.00  0.00    +0.046 A 
ATOM     10  S   UNL     1       2.285   2.860   5.721  0.00  0.00    -0.101 S 
ATOM     11  C   UNL     1      -0.921   1.714   3.681  0.00  0.00    +0.144 C 
ENDROOT
BRANCH  11  12
ATOM     12  C   UNL     1      -1.636   0.564   4.341  0.00  0.00    +0.015 A 
ATOM     13  C   UNL     1      -2.853   0.545   4.939  0.00  0.00    +0.013 A 
ATOM     14  C   UNL     1      -3.315  -0.640   5.481  0.00  0.00    +0.008 A 
ATOM     15  C   UNL     1      -2.534  -1.745   5.408  0.00  0.00    +0.045 A 
ATOM     16  S   UNL     1      -1.098  -1.126   4.546  0.00  0.00    -0.099 S 
ENDBRANCH  11  12
BRANCH   1  17
ATOM     17  C   UNL     1      -0.013   1.086   0.008  0.00  0.00    +0.172 C 
BRANCH  17  18
ATOM     18  S   UNL     1      -0.888   1.685  -1.458  0.00  0.00    -0.089 S 
BRANCH  18  23
ATOM     19  C   UNL     1       3.087  -1.045  -3.521  0.00  0.00    +0.066 C 
ATOM     20  C   UNL     1       1.850  -0.197  -3.667  0.00  0.00    +0.050 A 
ATOM     21  C   UNL     1       1.374   0.128  -4.893  0.00  0.00    +0.022 A 
ATOM     22  S   UNL     1      -0.052   1.108  -4.447  0.00  0.00    -0.065 S 
ATOM     23  C   UNL     1       0.122   0.990  -2.724  0.00  0.00    +0.135 A 
ATOM     24  N   UNL     1       1.209   0.251  -2.604  0.00  0.00    -0.238 NA
BRANCH  21  25
ATOM     25  C   UNL     1       1.902  -0.235  -6.257  0.00  0.00    +0.139 C 
BRANCH  25  26
ATOM     26  C   UNL     1       1.274  -1.528  -6.710  0.00  0.00    +0.215 C 
ATOM     27  O   UNL     1       0.477  -2.098  -5.997  0.00  0.00    -0.276 OA
ATOM     28  N   UNL     1       1.599  -2.051  -7.910  0.00  0.00    -0.329 N 
ATOM     29  H   UNL     1       1.141  -2.994  -8.241  0.00  0.00    +0.145 HD
ATOM     30  H   UNL     1       2.323  -1.534  -8.557  0.00  0.00    +0.145 HD
ENDBRANCH  25  26
ENDBRANCH  21  25
ENDBRANCH  18  23
ENDBRANCH  17  18
ENDBRANCH   1  17
TORSDOF 6
