REMARK  Name = ZINC15675846
REMARK  7 active torsions:
REMARK  status: ('A' for Active; 'I' for Inactive)
REMARK    1  A    between atoms: C_1  and  C_2
REMARK    2  A    between atoms: C_11  and  C_23
REMARK    3  A    between atoms: C_11  and  C_24
REMARK    4  A    between atoms: N_12  and  C_15
REMARK    5  A    between atoms: C_15  and  C_16
REMARK    6  A    between atoms: C_16  and  N_77
REMARK    7  A    between atoms: N_26  and  C_27
REMARK                            x       y       z     vdW  Elec       q    Type
REMARK                         _______ _______ _______ _____ _____    ______ ____
ROOT
ATOM      1  C   UNL     1       3.274  -2.476   8.604  0.00  0.00    +0.086 C 
ATOM      2  C   UNL     1       2.782  -1.602   7.479  0.00  0.00    +0.105 A 
ATOM      3  C   UNL     1       1.981  -2.003   6.478  0.00  0.00    +0.071 A 
ATOM      4  C   UNL     1       1.760  -0.883   5.641  0.00  0.00    +0.088 A 
ATOM      5  C   UNL     1       2.469   0.173   6.213  0.00  0.00    +0.154 A 
ATOM      6  O   UNL     1       3.077  -0.300   7.322  0.00  0.00    -0.458 OA
ATOM      7  C   UNL     1       2.265   1.306   5.411  0.00  0.00    +0.079 A 
ATOM      8  C   UNL     1       1.450   0.937   4.382  0.00  0.00    +0.109 A 
ATOM      9  N   UNL     1       1.148  -0.416   4.517  0.00  0.00    -0.331 N 
ATOM     10  C   UNL     1       0.309  -1.117   3.540  0.00  0.00    +0.157 C 
ATOM     11  C   UNL     1      -0.684  -0.124   2.928  0.00  0.00    +0.128 C 
ATOM     12  N   UNL     1      -0.043   1.118   2.512  0.00  0.00    -0.282 N 
ATOM     13  C   UNL     1       0.907   1.721   3.266  0.00  0.00    +0.264 C 
ATOM     14  O   UNL     1       1.291   2.852   3.030  0.00  0.00    -0.268 OA
ATOM     15  C   UNL     1      -1.767   0.200   3.959  0.00  0.00    +0.043 C 
ENDROOT
BRANCH  11  16
ATOM     16  C   UNL     1      -1.333  -0.762   1.727  0.00  0.00    +0.238 C 
ATOM     17  O   UNL     1      -2.471  -1.176   1.802  0.00  0.00    -0.273 OA
ATOM     18  N   UNL     1      -0.650  -0.873   0.571  0.00  0.00    -0.311 N 
ATOM     19  H   UNL     1       0.283  -0.611   0.532  0.00  0.00    +0.149 HD
BRANCH  18  20
ATOM     20  C   UNL     1      -1.317  -1.388  -0.627  0.00  0.00    +0.073 C 
ATOM     21  C   UNL     1      -1.331  -2.917  -0.586  0.00  0.00    +0.022 C 
ATOM     22  C   UNL     1      -2.348  -3.446  -1.598  0.00  0.00    +0.002 C 
ATOM     23  C   UNL     1      -3.635  -2.625  -1.505  0.00  0.00    +0.000 C 
ATOM     24  C   UNL     1      -3.823  -1.822  -2.795  0.00  0.00    +0.000 C 
ATOM     25  C   UNL     1      -2.868  -0.626  -2.792  0.00  0.00    +0.000 C 
ATOM     26  C   UNL     1      -1.450  -1.105  -3.106  0.00  0.00    +0.002 C 
ATOM     27  C   UNL     1      -0.563  -0.918  -1.873  0.00  0.00    +0.022 C 
ENDBRANCH  18  20
ENDBRANCH  11  16
BRANCH  12  28
ATOM     28  C   UNL     1      -0.442   1.736   1.245  0.00  0.00    +0.091 C 
BRANCH  28  29
ATOM     29  C   UNL     1      -1.504   2.804   1.511  0.00  0.00    -0.060 C 
BRANCH  29  36
ATOM     30  C   UNL     1      -0.933   4.093  -0.468  0.00  0.00    -0.079 C 
ATOM     31  C   UNL     1      -1.455   4.881  -1.639  0.00  0.00    -0.019 C 
ATOM     32  C   UNL     1      -1.774   6.313  -1.163  0.00  0.00    -0.002 C 
ATOM     33  C   UNL     1      -3.043   6.385  -0.447  0.00  0.00    -0.002 C 
ATOM     34  C   UNL     1      -3.045   5.511   0.825  0.00  0.00    -0.019 C 
ATOM     35  C   UNL     1      -3.262   4.078   0.418  0.00  0.00    -0.079 C 
ATOM     36  N   UNL     1      -2.002   3.285   0.213  0.00  0.00    +0.381 N 
ATOM     37  H   UNL     1      -2.222   2.475  -0.379  0.00  0.00    -0.082 HD
ENDBRANCH  29  36
ENDBRANCH  28  29
ENDBRANCH  12  28
TORSDOF 5
