REMARK  Name = ZINC10066374
REMARK  15 active torsions:
REMARK  status: ('A' for Active; 'I' for Inactive)
REMARK    1  A    between atoms: C_1  and  C_2
REMARK    2  A    between atoms: C_2  and  N_68
REMARK    3  A    between atoms: C_3  and  C_4
REMARK    4  A    between atoms: C_3  and  N_68
REMARK    5  A    between atoms: C_5  and  C_6
REMARK    6  A    between atoms: C_5  and  N_68
REMARK    7  A    between atoms: C_6  and  N_7
REMARK    8  A    between atoms: C_13  and  C_17
REMARK    9  A    between atoms: C_18  and  C_20
REMARK   10  A    between atoms: C_23  and  S_26
REMARK   11  A    between atoms: S_26  and  N_29
REMARK   12  A    between atoms: N_29  and  C_30
REMARK   13  A    between atoms: N_29  and  C_32
REMARK   14  A    between atoms: C_30  and  C_31
REMARK   15  A    between atoms: C_32  and  C_33
REMARK                            x       y       z     vdW  Elec       q    Type
REMARK                         _______ _______ _______ _____ _____    ______ ____
ROOT
ATOM      1  N   UNL     1       0.190   0.352  -0.507  0.00  0.00    -0.248 N 
ATOM      2  C   UNL     1      -0.811  -0.459   0.001  0.00  0.00    +0.168 A 
ATOM      3  N   UNL     1      -1.019  -1.738  -0.207  0.00  0.00    -0.224 NA
ATOM      4  C   UNL     1      -2.046  -2.408   0.359  0.00  0.00    +0.080 A 
ATOM      5  C   UNL     1      -2.379  -3.776   0.220  0.00  0.00    +0.029 A 
ATOM      6  C   UNL     1      -3.464  -4.302   0.870  0.00  0.00    +0.005 A 
ATOM      7  C   UNL     1      -4.271  -3.519   1.685  0.00  0.00    -0.049 A 
ATOM      8  C   UNL     1      -3.974  -2.178   1.844  0.00  0.00    +0.020 A 
ATOM      9  C   UNL     1      -2.889  -1.643   1.196  0.00  0.00    +0.041 A 
ATOM     10  S   UNL     1      -2.144  -0.032   1.113  0.00  0.00    -0.052 S 
ATOM     11  C   UNL     1      -5.457  -4.125   2.388  0.00  0.00    +0.044 C 
ATOM     12  C   UNL     1       0.235   1.657  -0.171  0.00  0.00    +0.252 C 
ATOM     13  O   UNL     1      -0.630   2.132   0.538  0.00  0.00    -0.270 OA
ENDROOT
BRANCH  12  14
ATOM     14  C   UNL     1       1.333   2.510  -0.671  0.00  0.00    +0.037 A 
ATOM     15  C   UNL     1       2.579   1.952  -0.960  0.00  0.00    +0.015 A 
ATOM     16  C   UNL     1       3.598   2.754  -1.432  0.00  0.00    +0.029 A 
ATOM     17  C   UNL     1       3.390   4.110  -1.607  0.00  0.00    +0.106 A 
ATOM     18  C   UNL     1       2.159   4.671  -1.317  0.00  0.00    +0.029 A 
ATOM     19  C   UNL     1       1.130   3.880  -0.851  0.00  0.00    +0.015 A 
BRANCH  17  20
ATOM     20  S   UNL     1       4.699   5.128  -2.204  0.00  0.00    +0.061 S 
ATOM     21  O   UNL     1       5.583   4.275  -2.918  0.00  0.00    -0.153 OA
ATOM     22  O   UNL     1       4.090   6.265  -2.800  0.00  0.00    -0.153 OA
BRANCH  20  23
ATOM     23  N   UNL     1       5.534   5.676  -0.883  0.00  0.00    -0.177 NA
BRANCH  23  24
ATOM     24  C   UNL     1       6.664   4.905  -0.359  0.00  0.00    +0.106 C 
ATOM     25  C   UNL     1       7.968   5.445  -0.951  0.00  0.00    +0.022 C 
ENDBRANCH  23  24
BRANCH  23  26
ATOM     26  C   UNL     1       5.142   6.932  -0.238  0.00  0.00    +0.106 C 
ATOM     27  C   UNL     1       4.205   6.634   0.934  0.00  0.00    +0.022 C 
ENDBRANCH  23  26
ENDBRANCH  20  23
ENDBRANCH  17  20
ENDBRANCH  12  14
BRANCH   1  28
ATOM     28  C   UNL     1       1.199  -0.208  -1.409  0.00  0.00    +0.097 C 
BRANCH  28  29
ATOM     29  C   UNL     1       2.171  -1.078  -0.609  0.00  0.00    -0.059 C 
BRANCH  29  30
ATOM     30  N   UNL     1       3.229  -1.570  -1.516  0.00  0.00    +0.380 N 
ATOM     31  H   UNL     1       3.671  -0.767  -1.980  0.00  0.00    -0.082 HD
BRANCH  30  33
ATOM     32  C   UNL     1       5.441  -2.605  -1.663  0.00  0.00    -0.017 C 
ATOM     33  C   UNL     1       4.255  -2.303  -0.745  0.00  0.00    -0.082 C 
ENDBRANCH  30  33
BRANCH  30  34
ATOM     34  C   UNL     1       2.642  -2.455  -2.544  0.00  0.00    -0.082 C 
ATOM     35  C   UNL     1       1.839  -3.580  -1.888  0.00  0.00    -0.017 C 
ENDBRANCH  30  34
ENDBRANCH  29  30
ENDBRANCH  28  29
ENDBRANCH   1  28
TORSDOF 10
