REMARK  Name = ZINC21333683
REMARK  12 active torsions:
REMARK  status: ('A' for Active; 'I' for Inactive)
REMARK    1  A    between atoms: C_1  and  N_2
REMARK    2  A    between atoms: N_2  and  C_3
REMARK    3  A    between atoms: N_2  and  C_4
REMARK    4  A    between atoms: C_4  and  C_6
REMARK    5  A    between atoms: C_4  and  C_28
REMARK    6  A    between atoms: C_6  and  N_7
REMARK    7  A    between atoms: C_8  and  C_10
REMARK    8  A    between atoms: C_11  and  C_12
REMARK    9  A    between atoms: C_15  and  S_18
REMARK   10  A    between atoms: S_18  and  N_21
REMARK   11  A    between atoms: C_33  and  O_34
REMARK   12  A    between atoms: O_34  and  C_35
REMARK                            x       y       z     vdW  Elec       q    Type
REMARK                         _______ _______ _______ _____ _____    ______ ____
ROOT
ATOM      1  N   UNL     1       3.241   5.099   0.576  0.00  0.00    -0.313 N 
ATOM      2  C   UNL     1       3.506   6.152   1.375  0.00  0.00    +0.237 C 
ATOM      3  O   UNL     1       3.130   6.146   2.533  0.00  0.00    -0.271 OA
ATOM      4  H   UNL     1       3.580   5.104  -0.470  0.00  0.00    +0.149 HD
ENDROOT
BRANCH   2   5
ATOM      5  C   UNL     1       4.245   7.302   0.851  0.00  0.00    +0.068 C 
ATOM      6  C   UNL     1       4.510   8.354   1.651  0.00  0.00    +0.013 C 
BRANCH   6   7
ATOM      7  C   UNL     1       5.254   9.510   1.123  0.00  0.00    -0.025 A 
ATOM      8  C   UNL     1       5.692   9.518  -0.204  0.00  0.00    +0.010 A 
ATOM      9  C   UNL     1       6.384  10.606  -0.692  0.00  0.00    +0.029 A 
ATOM     10  C   UNL     1       6.654  11.685   0.132  0.00  0.00    +0.106 A 
ATOM     11  C   UNL     1       6.228  11.683   1.449  0.00  0.00    +0.029 A 
ATOM     12  C   UNL     1       5.531  10.604   1.950  0.00  0.00    +0.010 A 
BRANCH  10  13
ATOM     13  S   UNL     1       7.544  13.068  -0.499  0.00  0.00    +0.061 S 
ATOM     14  O   UNL     1       7.356  13.065  -1.907  0.00  0.00    -0.153 OA
ATOM     15  O   UNL     1       7.195  14.181   0.313  0.00  0.00    -0.153 OA
BRANCH  13  16
ATOM     16  N   UNL     1       9.153  12.777  -0.235  0.00  0.00    -0.177 NA
ATOM     17  C   UNL     1       9.745  13.229   1.004  0.00  0.00    +0.109 C 
ATOM     18  C   UNL     1      10.273  14.669   0.839  0.00  0.00    +0.017 C 
ATOM     19  C   UNL     1      11.467  14.680  -0.019  0.00  0.00    +0.001 C 
ATOM     20  C   UNL     1      11.219  14.201  -1.447  0.00  0.00    +0.001 C 
ATOM     21  C   UNL     1      11.315  12.696  -1.493  0.00  0.00    +0.017 C 
ATOM     22  C   UNL     1       9.924  12.072  -1.278  0.00  0.00    +0.109 C 
ENDBRANCH  13  16
ENDBRANCH  10  13
ENDBRANCH   6   7
ENDBRANCH   2   5
BRANCH   1  23
ATOM     23  C   UNL     1       2.501   3.949   1.101  0.00  0.00    +0.094 C 
BRANCH  23  24
ATOM     24  C   UNL     1       2.501   2.826   0.062  0.00  0.00    -0.017 C 
BRANCH  24  25
ATOM     25  C   UNL     1       1.655   1.682   0.559  0.00  0.00    -0.018 A 
ATOM     26  C   UNL     1       2.258   0.538   1.046  0.00  0.00    +0.005 A 
ATOM     27  C   UNL     1       1.483  -0.512   1.502  0.00  0.00    +0.000 A 
ATOM     28  C   UNL     1       0.103  -0.423   1.466  0.00  0.00    +0.004 A 
ATOM     29  C   UNL     1      -0.504   0.721   0.985  0.00  0.00    +0.046 A 
ATOM     30  C   UNL     1       0.272   1.776   0.527  0.00  0.00    +0.122 A 
BRANCH  30  31
ATOM     31  O   UNL     1      -0.323   2.901   0.049  0.00  0.00    -0.495 OA
ATOM     32  C   UNL     1      -1.752   2.928   0.046  0.00  0.00    +0.277 C 
ENDBRANCH  30  31
ENDBRANCH  24  25
BRANCH  24  34
ATOM     33  C   UNL     1       4.580   3.222  -1.115  0.00  0.00    -0.096 C 
ATOM     34  N   UNL     1       3.877   2.360  -0.155  0.00  0.00    +0.382 N 
ATOM     35  C   UNL     1       4.611   2.277   1.114  0.00  0.00    -0.096 C 
ATOM     36  H   UNL     1       3.827   1.348  -0.584  0.00  0.00    -0.082 HD
ENDBRANCH  24  34
ENDBRANCH  23  24
ENDBRANCH   1  23
TORSDOF 9
