REMARK  Name = ZINC15674286
REMARK  8 active torsions:
REMARK  status: ('A' for Active; 'I' for Inactive)
REMARK    1  A    between atoms: C_5  and  C_7
REMARK    2  A    between atoms: C_10  and  C_13
REMARK    3  A    between atoms: C_13  and  N_56
REMARK    4  A    between atoms: C_15  and  O_36
REMARK    5  A    between atoms: C_18  and  C_20
REMARK    6  A    between atoms: C_22  and  C_25
REMARK    7  A    between atoms: C_28  and  O_31
REMARK    8  A    between atoms: O_31  and  C_32
REMARK                            x       y       z     vdW  Elec       q    Type
REMARK                         _______ _______ _______ _____ _____    ______ ____
ROOT
ATOM      1  C   UNL     1      -1.984   0.816  -1.396  0.00  0.00    -0.046 C 
ATOM      2  C   UNL     1      -2.319   1.032  -2.887  0.00  0.00    +0.097 C 
ATOM      3  C   UNL     1      -0.970   1.364  -3.557  0.00  0.00    +0.023 C 
ATOM      4  C   UNL     1       0.067   1.320  -2.414  0.00  0.00    +0.025 C 
ATOM      5  N   UNL     1      -0.732   1.561  -1.216  0.00  0.00    +0.392 N 
ATOM      6  H   UNL     1      -0.931   2.564  -1.122  0.00  0.00    -0.080 HD
ENDROOT
BRANCH   4   7
ATOM      7  C   UNL     1       1.104   2.398  -2.604  0.00  0.00    +0.214 A 
ATOM      8  N   UNL     1       2.361   2.220  -2.925  0.00  0.00    -0.193 NA
ATOM      9  C   UNL     1       2.899   3.459  -2.985  0.00  0.00    +0.202 A 
ATOM     10  N   UNL     1       1.949   4.307  -2.690  0.00  0.00    -0.056 NA
ATOM     11  O   UNL     1       0.914   3.714  -2.469  0.00  0.00    -0.339 OA
BRANCH   9  12
ATOM     12  C   UNL     1       4.306   3.793  -3.317  0.00  0.00    +0.023 A 
ATOM     13  C   UNL     1       5.215   2.776  -3.607  0.00  0.00    +0.015 A 
ATOM     14  C   UNL     1       6.521   3.090  -3.919  0.00  0.00    +0.046 A 
ATOM     15  C   UNL     1       6.933   4.416  -3.935  0.00  0.00    +0.130 A 
ATOM     16  C   UNL     1       6.031   5.430  -3.641  0.00  0.00    +0.046 A 
ATOM     17  C   UNL     1       4.723   5.123  -3.333  0.00  0.00    +0.015 A 
BRANCH  15  18
ATOM     18  O   UNL     1       8.222   4.722  -4.238  0.00  0.00    -0.406 OA
BRANCH  18  19
ATOM     19  C   UNL     1       9.096   3.630  -4.530  0.00  0.00    +0.575 C 
ATOM     20  F   UNL     1       8.607   2.924  -5.635  0.00  0.00    -0.133 F 
ATOM     21  F   UNL     1      10.374   4.120  -4.819  0.00  0.00    -0.133 F 
ATOM     22  F   UNL     1       9.163   2.777  -3.424  0.00  0.00    -0.133 F 
ENDBRANCH  18  19
ENDBRANCH  15  18
ENDBRANCH   9  12
ENDBRANCH   4   7
BRANCH   2  23
ATOM     23  O   UNL     1      -2.872  -0.160  -3.449  0.00  0.00    -0.394 OA
ATOM     24  H   UNL     1      -3.722  -0.417  -3.066  0.00  0.00    +0.210 HD
ENDBRANCH   2  23
BRANCH   5  25
ATOM     25  C   UNL     1      -0.013   1.086   0.008  0.00  0.00    -0.042 C 
BRANCH  25  29
ATOM     26  C   UNL     1      -2.014   2.465   3.526  0.00  0.00    +0.000 A 
ATOM     27  C   UNL     1      -2.369   1.246   2.951  0.00  0.00    +0.010 A 
ATOM     28  C   UNL     1      -1.720   0.805   1.816  0.00  0.00    +0.002 A 
ATOM     29  C   UNL     1      -0.718   1.572   1.248  0.00  0.00    -0.064 A 
ATOM     30  C   UNL     1      -0.358   2.780   1.817  0.00  0.00    +0.002 A 
ATOM     31  C   UNL     1      -1.004   3.233   2.949  0.00  0.00    +0.010 A 
BRANCH  26  36
ATOM     32  C   UNL     1      -3.004   4.597   6.452  0.00  0.00    +0.004 A 
ATOM     33  C   UNL     1      -4.003   3.795   6.986  0.00  0.00    +0.020 A 
ATOM     34  C   UNL     1      -4.310   2.595   6.371  0.00  0.00    +0.111 A 
ATOM     35  N   UNL     1      -3.673   2.209   5.285  0.00  0.00    -0.255 NA
ATOM     36  C   UNL     1      -2.709   2.943   4.746  0.00  0.00    +0.071 A 
ATOM     37  C   UNL     1      -2.347   4.163   5.313  0.00  0.00    +0.028 A 
ENDBRANCH  26  36
ENDBRANCH  25  29
ENDBRANCH   5  25
TORSDOF 8
