REMARK  Name = ZINC39685728
REMARK  11 active torsions:
REMARK  status: ('A' for Active; 'I' for Inactive)
REMARK    1  A    between atoms: C_1  and  C_2
REMARK    2  A    between atoms: C_2  and  C_3
REMARK    3  A    between atoms: C_2  and  C_4
REMARK    4  A    between atoms: C_4  and  C_6
REMARK    5  A    between atoms: C_4  and  N_13
REMARK    6  A    between atoms: N_8  and  C_9
REMARK    7  A    between atoms: C_9  and  C_10
REMARK    8  A    between atoms: C_9  and  C_11
REMARK    9  A    between atoms: C_9  and  C_12
REMARK   10  A    between atoms: C_14  and  C_16
REMARK   11  A    between atoms: C_27  and  C_29
REMARK                            x       y       z     vdW  Elec       q    Type
REMARK                         _______ _______ _______ _____ _____    ______ ____
ROOT
ATOM      1  C   UNL     1      -1.724  -4.343   1.305  0.00  0.00    +0.100 C 
ATOM      2  C   UNL     1      -2.769  -5.161   0.513  0.00  0.00    +0.121 C 
ATOM      3  N   UNL     1      -2.966  -6.392   1.313  0.00  0.00    -0.296 N 
ATOM      4  C   UNL     1      -2.947  -5.924   2.720  0.00  0.00    +0.115 C 
ATOM      5  C   UNL     1      -1.845  -4.846   2.753  0.00  0.00    -0.004 C 
ATOM      6  C   UNL     1      -0.524  -5.456   3.212  0.00  0.00    -0.010 C 
ATOM      7  C   UNL     1      -0.651  -5.898   4.673  0.00  0.00    -0.082 C 
ATOM      8  N   UNL     1      -0.995  -4.741   5.508  0.00  0.00    +0.379 N 
ATOM      9  C   UNL     1      -2.310  -4.216   5.120  0.00  0.00    -0.082 C 
ATOM     10  C   UNL     1      -2.253  -3.704   3.679  0.00  0.00    -0.010 C 
ATOM     11  C   UNL     1      -3.127  -7.652   0.864  0.00  0.00    +0.247 C 
ATOM     12  O   UNL     1      -3.001  -7.896  -0.320  0.00  0.00    -0.270 OA
ATOM     13  H   UNL     1      -1.019  -5.021   6.477  0.00  0.00    -0.086 HD
ATOM     14  H   UNL     1      -0.298  -4.021   5.386  0.00  0.00    -0.086 HD
ENDROOT
BRANCH  11  15
ATOM     15  C   UNL     1      -3.457  -8.738   1.812  0.00  0.00    +0.037 A 
ATOM     16  C   UNL     1      -4.024  -8.426   3.061  0.00  0.00    +0.013 A 
ATOM     17  C   UNL     1      -4.335  -9.405   3.947  0.00  0.00    +0.009 A 
ATOM     18  C   UNL     1      -4.091 -10.752   3.623  0.00  0.00    -0.018 A 
ATOM     19  C   UNL     1      -4.406 -11.783   4.524  0.00  0.00    +0.008 A 
ATOM     20  C   UNL     1      -4.159 -13.077   4.182  0.00  0.00    +0.001 A 
ATOM     21  C   UNL     1      -3.597 -13.399   2.948  0.00  0.00    +0.001 A 
ATOM     22  C   UNL     1      -3.280 -12.428   2.049  0.00  0.00    +0.008 A 
ATOM     23  C   UNL     1      -3.521 -11.079   2.367  0.00  0.00    -0.017 A 
ATOM     24  C   UNL     1      -3.211 -10.054   1.460  0.00  0.00    +0.021 A 
ENDBRANCH  11  15
BRANCH   1  26
ATOM     25  N   UNL     1      -3.304  -2.445   1.452  0.00  0.00    -0.303 N 
ATOM     26  C   UNL     1      -2.045  -2.872   1.233  0.00  0.00    +0.219 C 
ATOM     27  O   UNL     1      -1.169  -2.073   0.977  0.00  0.00    -0.275 OA
ATOM     28  H   UNL     1      -3.987  -3.073   1.734  0.00  0.00    +0.149 HD
BRANCH  25  29
ATOM     29  C   UNL     1      -3.641  -1.032   1.264  0.00  0.00    +0.161 C 
BRANCH  29  30
ATOM     30  C   UNL     1      -4.838  -0.684   2.111  0.00  0.00    +0.234 C 
ATOM     31  O   UNL     1      -5.414  -1.552   2.733  0.00  0.00    -0.274 OA
ATOM     32  N   UNL     1      -5.270   0.591   2.178  0.00  0.00    -0.309 N 
ATOM     33  H   UNL     1      -4.768   1.296   1.740  0.00  0.00    +0.149 HD
BRANCH  32  34
ATOM     34  C   UNL     1      -6.496   0.912   2.912  0.00  0.00    +0.026 C 
ATOM     35  C   UNL     1      -6.337   0.499   4.377  0.00  0.00    +0.031 C 
ATOM     36  C   UNL     1      -6.759   2.417   2.833  0.00  0.00    +0.031 C 
ATOM     37  C   UNL     1      -7.673   0.155   2.294  0.00  0.00    +0.031 C 
ENDBRANCH  32  34
ENDBRANCH  29  30
BRANCH  29  39
ATOM     38  C   UNL     1      -2.725  -1.046  -1.060  0.00  0.00    +0.009 C 
ATOM     39  C   UNL     1      -3.967  -0.776  -0.208  0.00  0.00    +0.012 C 
ATOM     40  C   UNL     1      -5.099  -1.706  -0.649  0.00  0.00    +0.009 C 
ENDBRANCH  29  39
ENDBRANCH  25  29
ENDBRANCH   1  26
TORSDOF 6
