REMARK  Name = ZINC00902077
REMARK  9 active torsions:
REMARK  status: ('A' for Active; 'I' for Inactive)
REMARK    1  A    between atoms: C_1  and  C_2
REMARK    2  A    between atoms: N_4  and  C_5
REMARK    3  A    between atoms: C_8  and  N_11
REMARK    4  A    between atoms: N_11  and  C_12
REMARK    5  A    between atoms: C_12  and  C_14
REMARK    6  A    between atoms: C_12  and  C_19
REMARK    7  A    between atoms: N_21  and  C_22
REMARK    8  A    between atoms: C_28  and  C_30
REMARK    9  A    between atoms: C_31  and  C_32
REMARK                            x       y       z     vdW  Elec       q    Type
REMARK                         _______ _______ _______ _____ _____    ______ ____
ROOT
ATOM      1  N   UNL     1      -1.203   1.853   0.016  0.00  0.00    -0.249 N 
ATOM      2  C   UNL     1       0.017   1.299  -0.129  0.00  0.00    +0.245 C 
ATOM      3  O   UNL     1       0.993   2.010  -0.292  0.00  0.00    -0.270 OA
ENDROOT
BRANCH   1   7
ATOM      4  C   UNL     1      -4.493  -0.553   0.894  0.00  0.00    +0.033 A 
ATOM      5  C   UNL     1      -3.858  -0.667  -0.335  0.00  0.00    +0.025 A 
ATOM      6  C   UNL     1      -2.768   0.129  -0.626  0.00  0.00    +0.025 A 
ATOM      7  C   UNL     1      -2.308   1.045   0.311  0.00  0.00    +0.038 A 
ATOM      8  C   UNL     1      -2.939   1.155   1.543  0.00  0.00    +0.025 A 
ATOM      9  C   UNL     1      -4.032   0.363   1.832  0.00  0.00    +0.025 A 
BRANCH   4  13
ATOM     10  C   UNL     1      -7.730  -1.785   2.371  0.00  0.00    +0.109 C 
ATOM     11  C   UNL     1      -6.600  -0.880   1.954  0.00  0.00    +0.214 C 
ATOM     12  O   UNL     1      -6.590   0.281   2.305  0.00  0.00    -0.276 OA
ATOM     13  N   UNL     1      -5.599  -1.360   1.189  0.00  0.00    -0.286 N 
ATOM     14  H   UNL     1      -5.644  -2.265   0.843  0.00  0.00    +0.155 HD
ENDBRANCH   4  13
ENDBRANCH   1   7
BRANCH   2  15
ATOM     15  C   UNL     1       0.165  -0.107  -0.086  0.00  0.00    +0.069 C 
ATOM     16  C   UNL     1       1.375  -0.669  -0.334  0.00  0.00    +0.020 C 
BRANCH  16  17
ATOM     17  C   UNL     1       1.523  -2.076  -0.291  0.00  0.00    +0.012 A 
ATOM     18  C   UNL     1       2.659  -2.845  -0.517  0.00  0.00    +0.015 A 
ATOM     19  C   UNL     1       2.523  -4.206  -0.406  0.00  0.00    +0.008 A 
ATOM     20  C   UNL     1       1.307  -4.729  -0.097  0.00  0.00    +0.046 A 
ATOM     21  S   UNL     1       0.299  -3.326   0.059  0.00  0.00    -0.097 S 
ENDBRANCH  16  17
ENDBRANCH   2  15
BRANCH   1  22
ATOM     22  C   UNL     1      -1.374   3.300  -0.135  0.00  0.00    +0.233 C 
BRANCH  22  23
ATOM     23  C   UNL     1      -0.613   4.012   0.955  0.00  0.00    +0.135 A 
ATOM     24  C   UNL     1      -1.076   5.032   1.700  0.00  0.00    +0.047 A 
ATOM     25  C   UNL     1      -0.039   5.390   2.592  0.00  0.00    +0.041 A 
ATOM     26  C   UNL     1       0.995   4.568   2.339  0.00  0.00    +0.195 A 
ATOM     27  O   UNL     1       0.639   3.731   1.350  0.00  0.00    -0.465 OA
ENDBRANCH  22  23
BRANCH  22  28
ATOM     28  C   UNL     1      -0.846   3.731  -1.479  0.00  0.00    +0.242 C 
ATOM     29  O   UNL     1      -0.374   2.909  -2.237  0.00  0.00    -0.273 OA
ATOM     30  N   UNL     1      -0.899   5.028  -1.839  0.00  0.00    -0.311 N 
ATOM     31  H   UNL     1      -1.276   5.685  -1.234  0.00  0.00    +0.149 HD
BRANCH  30  32
ATOM     32  C   UNL     1      -0.386   5.447  -3.147  0.00  0.00    +0.073 C 
ATOM     33  C   UNL     1       1.122   5.686  -3.050  0.00  0.00    +0.022 C 
ATOM     34  C   UNL     1       1.657   6.123  -4.415  0.00  0.00    +0.002 C 
ATOM     35  C   UNL     1       0.962   7.417  -4.845  0.00  0.00    +0.000 C 
ATOM     36  C   UNL     1      -0.546   7.177  -4.942  0.00  0.00    +0.002 C 
ATOM     37  C   UNL     1      -1.081   6.740  -3.577  0.00  0.00    +0.022 C 
ENDBRANCH  30  32
ENDBRANCH  22  28
ENDBRANCH   1  22
TORSDOF 8
