REMARK  Name = ZINC00845602
REMARK  8 active torsions:
REMARK  status: ('A' for Active; 'I' for Inactive)
REMARK    1  A    between atoms: C_1  and  C_2
REMARK    2  A    between atoms: C_2  and  O_3
REMARK    3  A    between atoms: O_3  and  C_4
REMARK    4  A    between atoms: C_7  and  N_10
REMARK    5  A    between atoms: C_11  and  C_13
REMARK    6  A    between atoms: C_14  and  C_28
REMARK    7  A    between atoms: C_19  and  C_21
REMARK    8  A    between atoms: C_24  and  O_27
REMARK                            x       y       z     vdW  Elec       q    Type
REMARK                         _______ _______ _______ _____ _____    ______ ____
ROOT
ATOM      1  C   UNL     1      -1.309   2.794   0.286  0.00  0.00    +0.056 C 
ATOM      2  C   UNL     1      -0.065   3.136  -0.110  0.00  0.00    +0.017 C 
ATOM      3  N   UNL     1       0.990   2.287   0.070  0.00  0.00    -0.300 N 
ATOM      4  C   UNL     1       0.883   1.079   0.638  0.00  0.00    +0.135 C 
ATOM      5  S   UNL     1       2.287   0.114   0.804  0.00  0.00    -0.019 S 
ATOM      6  N   UNL     1      -0.295   0.598   1.084  0.00  0.00    -0.315 N 
ATOM      7  C   UNL     1      -1.497   1.436   0.931  0.00  0.00    +0.139 C 
ATOM      8  C   UNL     1       0.165   4.475  -0.760  0.00  0.00    +0.061 C 
ATOM      9  H   UNL     1       1.866   2.575  -0.230  0.00  0.00    +0.154 HD
ATOM     10  H   UNL     1      -0.351  -0.280   1.492  0.00  0.00    +0.149 HD
ENDROOT
BRANCH   7  11
ATOM     11  C   UNL     1      -2.088   1.654   2.300  0.00  0.00    -0.022 A 
ATOM     12  C   UNL     1      -1.281   2.073   3.341  0.00  0.00    +0.009 A 
ATOM     13  C   UNL     1      -1.822   2.279   4.596  0.00  0.00    +0.046 A 
ATOM     14  C   UNL     1      -3.174   2.054   4.812  0.00  0.00    +0.117 A 
ATOM     15  C   UNL     1      -3.980   1.629   3.767  0.00  0.00    +0.046 A 
ATOM     16  C   UNL     1      -3.436   1.429   2.513  0.00  0.00    +0.009 A 
BRANCH  14  17
ATOM     17  O   UNL     1      -3.708   2.252   6.046  0.00  0.00    -0.507 OA
ATOM     18  H   UNL     1      -3.689   1.468   6.613  0.00  0.00    +0.292 HD
ENDBRANCH  14  17
ENDBRANCH   7  11
BRANCH   1  20
ATOM     19  N   UNL     1      -2.555   4.742   0.908  0.00  0.00    -0.282 N 
ATOM     20  C   UNL     1      -2.404   3.674   0.100  0.00  0.00    +0.248 C 
ATOM     21  O   UNL     1      -3.208   3.465  -0.791  0.00  0.00    -0.270 OA
ATOM     22  H   UNL     1      -1.875   4.951   1.567  0.00  0.00    +0.155 HD
BRANCH  19  26
ATOM     23  C   UNL     1      -5.945   7.146   0.573  0.00  0.00    +0.121 A 
ATOM     24  C   UNL     1      -5.377   6.918   1.818  0.00  0.00    +0.047 A 
ATOM     25  C   UNL     1      -4.254   6.121   1.930  0.00  0.00    +0.027 A 
ATOM     26  C   UNL     1      -3.694   5.549   0.795  0.00  0.00    +0.034 A 
ATOM     27  C   UNL     1      -4.260   5.782  -0.451  0.00  0.00    +0.027 A 
ATOM     28  C   UNL     1      -5.386   6.574  -0.561  0.00  0.00    +0.047 A 
BRANCH  23  29
ATOM     29  O   UNL     1      -7.051   7.929   0.464  0.00  0.00    -0.492 OA
BRANCH  29  31
ATOM     30  C   UNL     1      -8.815   9.025  -0.772  0.00  0.00    +0.048 C 
ATOM     31  C   UNL     1      -7.583   8.122  -0.849  0.00  0.00    +0.225 C 
ENDBRANCH  29  31
ENDBRANCH  23  29
ENDBRANCH  19  26
ENDBRANCH   1  20
TORSDOF 6
