REMARK  Name = ZINC39693368
REMARK  12 active torsions:
REMARK  status: ('A' for Active; 'I' for Inactive)
REMARK    1  A    between atoms: C_1  and  C_2
REMARK    2  A    between atoms: C_2  and  C_3
REMARK    3  A    between atoms: C_2  and  C_4
REMARK    4  A    between atoms: C_8  and  C_17
REMARK    5  A    between atoms: N_19  and  C_20
REMARK    6  A    between atoms: C_20  and  C_21
REMARK    7  A    between atoms: C_21  and  N_22
REMARK    8  A    between atoms: C_23  and  O_25
REMARK    9  A    between atoms: O_25  and  C_26
REMARK   10  A    between atoms: C_26  and  C_27
REMARK   11  A    between atoms: C_26  and  C_28
REMARK   12  A    between atoms: C_26  and  C_29
REMARK                            x       y       z     vdW  Elec       q    Type
REMARK                         _______ _______ _______ _____ _____    ______ ____
ROOT
ATOM      1  C   UNL     1      -1.563  -0.569   0.062  0.00  0.00    +0.218 C 
ATOM      2  O   UNL     1      -1.953  -1.321   0.929  0.00  0.00    -0.275 OA
ATOM      3  N   UNL     1      -2.370  -0.258  -0.972  0.00  0.00    -0.300 N 
ATOM      4  C   UNL     1      -2.072   0.630  -2.121  0.00  0.00    +0.121 C 
ATOM      5  C   UNL     1      -2.713  -0.077  -3.337  0.00  0.00    +0.100 C 
ATOM      6  C   UNL     1      -3.817  -0.964  -2.738  0.00  0.00    -0.004 C 
ATOM      7  C   UNL     1      -3.752  -0.732  -1.221  0.00  0.00    +0.115 C 
ATOM      8  C   UNL     1      -5.181  -0.548  -3.279  0.00  0.00    -0.010 C 
ATOM      9  C   UNL     1      -6.256  -1.482  -2.714  0.00  0.00    -0.082 C 
ATOM     10  N   UNL     1      -5.956  -2.866  -3.099  0.00  0.00    +0.379 N 
ATOM     11  C   UNL     1      -4.686  -3.289  -2.498  0.00  0.00    -0.082 C 
ATOM     12  C   UNL     1      -3.545  -2.432  -3.053  0.00  0.00    -0.010 C 
ATOM     13  H   UNL     1      -6.697  -3.471  -2.778  0.00  0.00    -0.086 HD
ATOM     14  H   UNL     1      -5.887  -2.927  -4.104  0.00  0.00    -0.086 HD
ENDROOT
BRANCH   5  15
ATOM     15  C   UNL     1      -3.306   0.937  -4.281  0.00  0.00    +0.218 C 
ATOM     16  O   UNL     1      -3.742   1.984  -3.851  0.00  0.00    -0.275 OA
ATOM     17  N   UNL     1      -3.351   0.681  -5.603  0.00  0.00    -0.314 N 
ATOM     18  H   UNL     1      -3.002  -0.157  -5.947  0.00  0.00    +0.149 HD
BRANCH  17  19
ATOM     19  C   UNL     1      -3.928   1.666  -6.521  0.00  0.00    +0.123 C 
BRANCH  19  20
ATOM     20  C   UNL     1      -3.857   1.132  -7.953  0.00  0.00    +0.126 C 
BRANCH  20  21
ATOM     21  N   UNL     1      -4.433   2.118  -8.871  0.00  0.00    -0.280 N 
ATOM     22  C   UNL     1      -4.479   1.862 -10.193  0.00  0.00    +0.401 C 
ATOM     23  O   UNL     1      -4.042   0.813 -10.624  0.00  0.00    -0.226 OA
ATOM     24  H   UNL     1      -4.782   2.955  -8.527  0.00  0.00    +0.152 HD
BRANCH  22  25
ATOM     25  O   UNL     1      -5.008   2.768 -11.037  0.00  0.00    -0.445 OA
BRANCH  25  26
ATOM     26  C   UNL     1      -5.024   2.430 -12.425  0.00  0.00    +0.107 C 
ATOM     27  C   UNL     1      -5.839   1.151 -12.630  0.00  0.00    +0.055 C 
ATOM     28  C   UNL     1      -5.658   3.572 -13.221  0.00  0.00    +0.055 C 
ATOM     29  C   UNL     1      -3.591   2.204 -12.911  0.00  0.00    +0.055 C 
ENDBRANCH  25  26
ENDBRANCH  22  25
ENDBRANCH  20  21
ENDBRANCH  19  20
ENDBRANCH  17  19
ENDBRANCH   5  15
BRANCH   1  31
ATOM     30  C   UNL     1      -0.274   1.545   0.192  0.00  0.00    +0.017 C 
ATOM     31  C   UNL     1      -0.178   0.019   0.140  0.00  0.00    +0.069 C 
ATOM     32  C   UNL     1       0.522  -0.491   1.401  0.00  0.00    +0.017 C 
ENDBRANCH   1  31
TORSDOF 7
