REMARK  Name = ZINC27747598
REMARK  11 active torsions:
REMARK  status: ('A' for Active; 'I' for Inactive)
REMARK    1  A    between atoms: C_1  and  C_2
REMARK    2  A    between atoms: C_2  and  C_3
REMARK    3  A    between atoms: C_6  and  N_9
REMARK    4  A    between atoms: C_10  and  C_12
REMARK    5  A    between atoms: C_13  and  N_22
REMARK    6  A    between atoms: C_16  and  S_18
REMARK    7  A    between atoms: S_18  and  C_21
REMARK    8  A    between atoms: N_22  and  C_23
REMARK    9  A    between atoms: N_22  and  C_31
REMARK   10  A    between atoms: C_23  and  C_24
REMARK   11  A    between atoms: C_31  and  C_32
REMARK                            x       y       z     vdW  Elec       q    Type
REMARK                         _______ _______ _______ _____ _____    ______ ____
ROOT
ATOM      1  C   UNL     1       1.010   3.560  -0.031  0.00  0.00    +0.152 A 
ATOM      2  C   UNL     1       2.151   4.374   0.049  0.00  0.00    +0.080 A 
ATOM      3  C   UNL     1       1.967   5.749   0.221  0.00  0.00    +0.140 A 
ATOM      4  N   UNL     1       0.739   6.226   0.302  0.00  0.00    -0.218 NA
ATOM      5  C   UNL     1      -0.310   5.428   0.222  0.00  0.00    +0.271 A 
ATOM      6  N   UNL     1      -0.191   4.130   0.055  0.00  0.00    -0.205 NA
ENDROOT
BRANCH   1   8
ATOM      7  N   UNL     1       0.035   1.328  -0.288  0.00  0.00    -0.280 N 
ATOM      8  C   UNL     1       1.139   2.098  -0.213  0.00  0.00    +0.269 C 
ATOM      9  O   UNL     1       2.240   1.590  -0.295  0.00  0.00    -0.268 OA
ATOM     10  H   UNL     1      -0.962   1.794  -0.285  0.00  0.00    +0.155 HD
BRANCH   7  14
ATOM     11  C   UNL     1       0.396  -2.814  -0.530  0.00  0.00    -0.048 A 
ATOM     12  C   UNL     1      -0.658  -2.253   0.169  0.00  0.00    +0.005 A 
ATOM     13  C   UNL     1      -0.780  -0.880   0.251  0.00  0.00    +0.023 A 
ATOM     14  C   UNL     1       0.156  -0.063  -0.369  0.00  0.00    +0.034 A 
ATOM     15  C   UNL     1       1.210  -0.629  -1.074  0.00  0.00    +0.023 A 
ATOM     16  C   UNL     1       1.330  -2.003  -1.147  0.00  0.00    +0.005 A 
BRANCH  11  18
ATOM     17  C   UNL     1      -0.225  -4.820  -1.849  0.00  0.00    +0.009 C 
ATOM     18  C   UNL     1       0.527  -4.313  -0.617  0.00  0.00    +0.032 C 
ENDBRANCH  11  18
ENDBRANCH   7  14
ENDBRANCH   1   8
BRANCH   5  19
ATOM     19  S   UNL     1      -1.923   6.128   0.337  0.00  0.00    +0.029 S 
ATOM     20  O   UNL     1      -2.741   5.076   0.829  0.00  0.00    -0.167 OA
ATOM     21  O   UNL     1      -1.748   7.322   1.088  0.00  0.00    -0.167 OA
ATOM     22  C   UNL     1      -2.380   6.528  -1.373  0.00  0.00    +0.204 C 
ENDBRANCH   5  19
BRANCH   2  23
ATOM     23  N   UNL     1       3.425   3.829  -0.040  0.00  0.00    -0.315 N 
BRANCH  23  24
ATOM     24  C   UNL     1       4.160   4.392  -1.180  0.00  0.00    +0.140 C 
BRANCH  24  25
ATOM     25  C   UNL     1       3.489   3.977  -2.465  0.00  0.00    -0.030 A 
ATOM     26  C   UNL     1       3.795   2.759  -3.041  0.00  0.00    +0.006 A 
ATOM     27  C   UNL     1       3.176   2.375  -4.216  0.00  0.00    +0.020 A 
ATOM     28  C   UNL     1       2.259   3.215  -4.821  0.00  0.00    +0.041 A 
ATOM     29  C   UNL     1       1.957   4.437  -4.246  0.00  0.00    +0.020 A 
ATOM     30  C   UNL     1       2.572   4.817  -3.068  0.00  0.00    +0.006 A 
ATOM     31 CL   UNL     1       1.486   2.737  -6.300  0.00  0.00    -0.084 Cl
ENDBRANCH  24  25
ENDBRANCH  23  24
BRANCH  23  32
ATOM     32  C   UNL     1       4.169   4.021   1.212  0.00  0.00    +0.179 C 
BRANCH  32  33
ATOM     33  C   UNL     1       5.371   3.113   1.227  0.00  0.00    +0.122 A 
ATOM     34  C   UNL     1       6.618   3.452   0.851  0.00  0.00    +0.046 A 
ATOM     35  C   UNL     1       7.425   2.305   1.026  0.00  0.00    +0.041 A 
ATOM     36  C   UNL     1       6.623   1.333   1.498  0.00  0.00    +0.195 A 
ATOM     37  O   UNL     1       5.382   1.830   1.623  0.00  0.00    -0.466 OA
ENDBRANCH  32  33
ENDBRANCH  23  32
ENDBRANCH   2  23
TORSDOF 9
