REMARK  Name = ZINC17029290
REMARK  4 active torsions:
REMARK  status: ('A' for Active; 'I' for Inactive)
REMARK    1  A    between atoms: C_1  and  C_2
REMARK    2  A    between atoms: C_2  and  C_4
REMARK    3  A    between atoms: C_2  and  N_10
REMARK    4  A    between atoms: C_13  and  C_20
REMARK                            x       y       z     vdW  Elec       q    Type
REMARK                         _______ _______ _______ _____ _____    ______ ____
ROOT
ATOM      1  N   UNL     1       0.603  -0.615   1.190  0.00  0.00    -0.253 N 
ATOM      2  C   UNL     1      -0.091  -1.530   1.895  0.00  0.00    +0.263 A 
ATOM      3  O   UNL     1      -1.215  -1.849   1.548  0.00  0.00    -0.267 OA
ATOM      4  C   UNL     1       0.490  -2.114   3.035  0.00  0.00    +0.073 A 
ATOM      5  C   UNL     1       1.749  -1.740   3.402  0.00  0.00    +0.260 A 
ATOM      6  N   UNL     1       2.420  -0.805   2.656  0.00  0.00    -0.275 N 
ATOM      7  H   UNL     1       3.316  -0.536   2.913  0.00  0.00    +0.173 HD
ATOM      8  C   UNL     1       1.846  -0.263   1.566  0.00  0.00    +0.333 A 
ATOM      9  O   UNL     1       2.458   0.561   0.914  0.00  0.00    -0.246 OA
ATOM     10  O   UNL     1       2.330  -2.285   4.492  0.00  0.00    -0.267 OA
ENDROOT
BRANCH   4  11
ATOM     11  C   UNL     1      -0.267  -3.139   3.839  0.00  0.00    +0.018 C 
ATOM     12  C   UNL     1      -1.486  -2.498   4.459  0.00  0.00    +0.011 A 
ATOM     13  C   UNL     1      -2.697  -3.098   4.490  0.00  0.00    -0.022 A 
ATOM     14  C   UNL     1      -3.608  -2.192   5.151  0.00  0.00    +0.003 A 
ATOM     15  C   UNL     1      -4.969  -2.269   5.465  0.00  0.00    +0.010 A 
ATOM     16  C   UNL     1      -5.519  -1.192   6.113  0.00  0.00    +0.001 A 
ATOM     17  C   UNL     1      -4.774  -0.073   6.447  0.00  0.00    +0.002 A 
ATOM     18  C   UNL     1      -3.426   0.031   6.149  0.00  0.00    +0.026 A 
ATOM     19  C   UNL     1      -2.839  -1.048   5.492  0.00  0.00    +0.047 A 
ATOM     20  N   UNL     1      -1.563  -1.270   5.058  0.00  0.00    -0.359 N 
ATOM     21  H   UNL     1      -0.823  -0.651   5.160  0.00  0.00    +0.166 HD
ATOM     22  C   UNL     1      -2.954  -4.470   3.917  0.00  0.00    +0.018 C 
ATOM     23  C   UNL     1      -1.595  -5.146   3.688  0.00  0.00    -0.076 C 
ATOM     24  N   UNL     1      -0.705  -4.233   2.958  0.00  0.00    +0.388 N 
ATOM     25  H   UNL     1      -1.200  -3.848   2.167  0.00  0.00    -0.084 HD
ATOM     26  H   UNL     1       0.102  -4.741   2.629  0.00  0.00    -0.084 HD
ENDBRANCH   4  11
BRANCH   1  28
ATOM     27  C   UNL     1      -0.267  -1.085  -1.047  0.00  0.00    +0.036 C 
ATOM     28  C   UNL     1       0.002  -0.004   0.002  0.00  0.00    +0.122 C 
BRANCH  28  29
ATOM     29  C   UNL     1      -1.296   0.662   0.382  0.00  0.00    -0.025 A 
ATOM     30  C   UNL     1      -1.413   1.302   1.601  0.00  0.00    +0.005 A 
ATOM     31  C   UNL     1      -2.603   1.913   1.949  0.00  0.00    +0.000 A 
ATOM     32  C   UNL     1      -3.676   1.884   1.078  0.00  0.00    +0.000 A 
ATOM     33  C   UNL     1      -3.558   1.244  -0.142  0.00  0.00    +0.000 A 
ATOM     34  C   UNL     1      -2.366   0.637  -0.492  0.00  0.00    +0.005 A 
ENDBRANCH  28  29
ENDBRANCH   1  28
TORSDOF 3
