REMARK  Name = ZINC66912475
REMARK  7 active torsions:
REMARK  status: ('A' for Active; 'I' for Inactive)
REMARK    1  A    between atoms: C_1  and  C_2
REMARK    2  A    between atoms: C_2  and  N_3
REMARK    3  A    between atoms: C_5  and  S_8
REMARK    4  A    between atoms: S_8  and  N_11
REMARK    5  A    between atoms: N_11  and  C_12
REMARK    6  A    between atoms: C_12  and  C_14
REMARK    7  A    between atoms: C_12  and  C_21
REMARK                            x       y       z     vdW  Elec       q    Type
REMARK                         _______ _______ _______ _____ _____    ______ ____
ROOT
ATOM      1  C   UNL     1      -4.485  -4.427   0.726  0.00  0.00    +0.135 C 
ENDROOT
BRANCH   1   2
ATOM      2  C   UNL     1      -3.494  -5.340   1.400  0.00  0.00    -0.026 A 
ATOM      3  C   UNL     1      -3.038  -6.469   0.746  0.00  0.00    +0.008 A 
ATOM      4  C   UNL     1      -2.128  -7.306   1.363  0.00  0.00    +0.038 A 
ATOM      5  C   UNL     1      -1.673  -7.014   2.638  0.00  0.00    +0.123 A 
ATOM      6  C   UNL     1      -2.131  -5.882   3.292  0.00  0.00    +0.038 A 
ATOM      7  C   UNL     1      -3.036  -5.044   2.671  0.00  0.00    +0.008 A 
ATOM      8  F   UNL     1      -0.784  -7.832   3.243  0.00  0.00    -0.205 F 
ENDBRANCH   1   2
BRANCH   1   9
ATOM      9  C   UNL     1      -5.891  -5.016   0.856  0.00  0.00    +0.141 C 
ATOM     10  C   UNL     1      -6.911  -4.154   0.070  0.00  0.00    +0.036 C 
ATOM     11  C   UNL     1      -8.025  -5.199  -0.212  0.00  0.00    +0.031 C 
ATOM     12  C   UNL     1      -7.215  -6.500  -0.396  0.00  0.00    +0.160 C 
ATOM     13  O   UNL     1      -5.946  -6.316   0.245  0.00  0.00    -0.375 OA
ENDBRANCH   1   9
BRANCH   1  14
ATOM     14  N   UNL     1      -4.141  -4.294  -0.692  0.00  0.00    -0.180 NA
ATOM     15  H   UNL     1      -4.440  -4.963  -1.328  0.00  0.00    +0.149 HD
BRANCH  14  16
ATOM     16  S   UNL     1      -3.241  -3.004  -1.208  0.00  0.00    +0.062 S 
ATOM     17  O   UNL     1      -3.849  -1.841  -0.663  0.00  0.00    -0.153 OA
ATOM     18  O   UNL     1      -3.044  -3.178  -2.604  0.00  0.00    -0.153 OA
BRANCH  16  21
ATOM     19  N   UNL     1       0.434  -3.662  -0.090  0.00  0.00    -0.270 N 
ATOM     20  C   UNL     1      -0.583  -3.790  -0.967  0.00  0.00    +0.136 A 
ATOM     21  C   UNL     1      -1.654  -3.141  -0.455  0.00  0.00    +0.142 A 
ATOM     22  C   UNL     1      -1.278  -2.597   0.778  0.00  0.00    +0.163 A 
ATOM     23  N   UNL     1      -0.028  -2.914   1.000  0.00  0.00    -0.178 NA
BRANCH  19  25
ATOM     24  C   UNL     1       2.812  -3.090  -0.108  0.00  0.00    +0.029 C 
ATOM     25  C   UNL     1       1.783  -4.213  -0.247  0.00  0.00    +0.140 C 
ENDBRANCH  19  25
ENDBRANCH  16  21
ENDBRANCH  14  16
ENDBRANCH   1  14
TORSDOF 6
