REMARK  Name = ZINC13499570
REMARK  11 active torsions:
REMARK  status: ('A' for Active; 'I' for Inactive)
REMARK    1  A    between atoms: C_1  and  C_2
REMARK    2  A    between atoms: C_2  and  C_3
REMARK    3  A    between atoms: C_3  and  C_4
REMARK    4  A    between atoms: C_4  and  C_6
REMARK    5  A    between atoms: C_4  and  N_75
REMARK    6  A    between atoms: N_10  and  C_11
REMARK    7  A    between atoms: C_16  and  C_17
REMARK    8  A    between atoms: C_16  and  N_75
REMARK    9  A    between atoms: C_20  and  C_30
REMARK   10  A    between atoms: C_22  and  C_29
REMARK   11  A    between atoms: C_31  and  N_75
REMARK                            x       y       z     vdW  Elec       q    Type
REMARK                         _______ _______ _______ _____ _____    ______ ____
ROOT
ATOM      1  N   UNL     1       1.414  -2.636   0.068  0.00  0.00    +0.391 N 
ATOM      2  H   UNL     1       1.900  -3.503  -0.188  0.00  0.00    -0.080 HD
ENDROOT
BRANCH   1   3
ATOM      3  C   UNL     1       2.405  -1.664   0.578  0.00  0.00    -0.067 C 
ATOM      4  C   UNL     1       1.767  -0.282   0.738  0.00  0.00    -0.015 C 
ATOM      5  C   UNL     1       2.812   0.704   1.262  0.00  0.00    -0.002 C 
ATOM      6  C   UNL     1       3.974   0.791   0.269  0.00  0.00    -0.000 C 
ATOM      7  C   UNL     1       4.611  -0.591   0.109  0.00  0.00    -0.002 C 
ATOM      8  C   UNL     1       3.566  -1.577  -0.414  0.00  0.00    -0.015 C 
ENDBRANCH   1   3
BRANCH   1   9
ATOM      9  C   UNL     1       0.741  -2.090  -1.129  0.00  0.00    +0.003 C 
BRANCH   9  10
ATOM     10  C   UNL     1      -0.272  -1.046  -0.736  0.00  0.00    +0.138 A 
ATOM     11  N   UNL     1      -1.148  -1.134   0.235  0.00  0.00    -0.115 NA
ATOM     12  N   UNL     1      -1.831  -0.041   0.255  0.00  0.00    -0.023 NA
ATOM     13  N   UNL     1      -1.417   0.738  -0.683  0.00  0.00    -0.044 NA
ATOM     14  N   UNL     1      -0.457   0.154  -1.316  0.00  0.00    -0.228 N 
BRANCH  14  15
ATOM     15  C   UNL     1       0.292   0.695  -2.453  0.00  0.00    +0.111 C 
ATOM     16  C   UNL     1       0.953   2.033  -2.062  0.00  0.00    +0.027 C 
ATOM     17  C   UNL     1       0.839   2.900  -3.341  0.00  0.00    +0.002 C 
ATOM     18  C   UNL     1      -0.555   2.514  -3.894  0.00  0.00    +0.002 C 
ATOM     19  C   UNL     1      -0.667   1.000  -3.618  0.00  0.00    +0.027 C 
ENDBRANCH  14  15
ENDBRANCH   9  10
BRANCH   9  20
ATOM     20  C   UNL     1       0.037  -3.234  -1.861  0.00  0.00    -0.008 C 
BRANCH  20  22
ATOM     21  C   UNL     1       0.372  -5.428  -3.008  0.00  0.00    +0.004 C 
ATOM     22  C   UNL     1       1.080  -4.226  -2.381  0.00  0.00    -0.005 C 
ENDBRANCH  20  22
ENDBRANCH   9  20
ENDBRANCH   1   9
BRANCH   1  23
ATOM     23  C   UNL     1       0.416  -2.936   1.116  0.00  0.00    -0.036 C 
BRANCH  23  24
ATOM     24  C   UNL     1       1.051  -3.834   2.146  0.00  0.00    +0.001 A 
ATOM     25  C   UNL     1       1.584  -3.300   3.272  0.00  0.00    +0.017 A 
ATOM     26  C   UNL     1       2.190  -4.200   4.255  0.00  0.00    +0.002 A 
ATOM     27  C   UNL     1       2.752  -3.708   5.437  0.00  0.00    -0.041 A 
ATOM     28  C   UNL     1       3.313  -4.574   6.332  0.00  0.00    +0.007 A 
ATOM     29  C   UNL     1       3.332  -5.939   6.078  0.00  0.00    -0.048 A 
ATOM     30  C   UNL     1       2.784  -6.446   4.919  0.00  0.00    +0.029 A 
ATOM     31  C   UNL     1       2.207  -5.583   3.994  0.00  0.00    +0.050 A 
ATOM     32  N   UNL     1       1.652  -6.063   2.826  0.00  0.00    -0.322 N 
ATOM     33  H   UNL     1       1.664  -7.017   2.648  0.00  0.00    +0.169 HD
ATOM     34  C   UNL     1       1.093  -5.229   1.932  0.00  0.00    +0.251 A 
ATOM     35  O   UNL     1       0.612  -5.689   0.911  0.00  0.00    -0.268 OA
ATOM     36  C   UNL     1       3.956  -6.875   7.080  0.00  0.00    +0.044 C 
ATOM     37  C   UNL     1       2.738  -2.228   5.723  0.00  0.00    +0.044 C 
ENDBRANCH  23  24
ENDBRANCH   1  23
TORSDOF 8
