REMARK  Name = ZINC66199480
REMARK  11 active torsions:
REMARK  status: ('A' for Active; 'I' for Inactive)
REMARK    1  A    between atoms: C_1  and  C_2
REMARK    2  A    between atoms: C_2  and  C_4
REMARK    3  A    between atoms: C_2  and  C_14
REMARK    4  A    between atoms: C_7  and  C_10
REMARK    5  A    between atoms: C_10  and  C_11
REMARK    6  A    between atoms: C_11  and  C_12
REMARK    7  A    between atoms: C_11  and  C_13
REMARK    8  A    between atoms: N_16  and  C_17
REMARK    9  A    between atoms: C_17  and  N_19
REMARK   10  A    between atoms: N_19  and  C_20
REMARK   11  A    between atoms: C_25  and  C_26
REMARK                            x       y       z     vdW  Elec       q    Type
REMARK                         _______ _______ _______ _____ _____    ______ ____
ROOT
ATOM      1  C   UNL     1       0.377  -0.820   1.251  0.00  0.00    +0.226 C 
ATOM      2  O   UNL     1       1.223  -1.679   1.119  0.00  0.00    -0.275 OA
ATOM      3  N   UNL     1       0.098  -0.333   2.476  0.00  0.00    -0.267 N 
ATOM      4  H   UNL     1      -0.579   0.353   2.582  0.00  0.00    +0.157 HD
ENDROOT
BRANCH   1   6
ATOM      5  C   UNL     1      -0.117   1.206  -0.089  0.00  0.00    +0.022 C 
ATOM      6  C   UNL     1      -0.361  -0.298   0.046  0.00  0.00    +0.102 C 
BRANCH   6   7
ATOM      7  C   UNL     1       0.135  -1.001  -1.191  0.00  0.00    -0.036 A 
ATOM      8  C   UNL     1       1.468  -0.915  -1.547  0.00  0.00    +0.004 A 
ATOM      9  C   UNL     1       1.923  -1.560  -2.682  0.00  0.00    +0.004 A 
ATOM     10  C   UNL     1       1.046  -2.291  -3.460  0.00  0.00    -0.047 A 
ATOM     11  C   UNL     1      -0.287  -2.378  -3.104  0.00  0.00    +0.004 A 
ATOM     12  C   UNL     1      -0.741  -1.737  -1.966  0.00  0.00    +0.004 A 
BRANCH  10  13
ATOM     13  C   UNL     1       1.542  -2.994  -4.698  0.00  0.00    +0.038 C 
BRANCH  13  14
ATOM     14  C   UNL     1       1.997  -4.409  -4.334  0.00  0.00    -0.013 C 
ATOM     15  C   UNL     1       2.383  -5.164  -5.607  0.00  0.00    +0.007 C 
ATOM     16  C   UNL     1       3.206  -4.331  -3.400  0.00  0.00    +0.007 C 
ENDBRANCH  13  14
ENDBRANCH  10  13
ENDBRANCH   6   7
ENDBRANCH   1   6
BRANCH   3  17
ATOM     17  C   UNL     1       0.758  -0.800   3.554  0.00  0.00    +0.141 C 
ATOM     18  S   UNL     1       1.952  -2.013   3.367  0.00  0.00    -0.018 S 
BRANCH  17  19
ATOM     19  N   UNL     1       0.478  -0.314   4.779  0.00  0.00    -0.296 N 
ATOM     20  H   UNL     1      -0.148   0.421   4.878  0.00  0.00    +0.154 HD
BRANCH  19  21
ATOM     21  C   UNL     1       1.088  -0.864   5.903  0.00  0.00    +0.045 A 
ATOM     22  C   UNL     1       2.458  -1.089   5.914  0.00  0.00    +0.024 A 
ATOM     23  C   UNL     1       3.060  -1.635   7.030  0.00  0.00    +0.002 A 
ATOM     24  C   UNL     1       2.305  -1.963   8.145  0.00  0.00    +0.001 A 
ATOM     25  C   UNL     1       0.945  -1.746   8.152  0.00  0.00    +0.015 A 
ATOM     26  C   UNL     1       0.322  -1.190   7.033  0.00  0.00    +0.058 A 
BRANCH  26  27
ATOM     27  C   UNL     1      -1.134  -0.950   7.036  0.00  0.00    +0.243 C 
ATOM     28  O   UNL     1      -1.688  -0.560   6.027  0.00  0.00    -0.270 OA
ATOM     29  N   UNL     1      -1.849  -1.164   8.158  0.00  0.00    -0.325 N 
ATOM     30  H   UNL     1      -1.407  -1.475   8.963  0.00  0.00    +0.145 HD
ATOM     31  H   UNL     1      -2.807  -1.006   8.160  0.00  0.00    +0.145 HD
ENDBRANCH  26  27
ENDBRANCH  19  21
ENDBRANCH  17  19
ENDBRANCH   3  17
TORSDOF 8
