REMARK  Name = ZINC40036293
REMARK  14 active torsions:
REMARK  status: ('A' for Active; 'I' for Inactive)
REMARK    1  A    between atoms: C_1  and  C_2
REMARK    2  A    between atoms: C_2  and  C_3
REMARK    3  A    between atoms: C_3  and  C_4
REMARK    4  A    between atoms: C_4  and  C_37
REMARK    5  A    between atoms: N_16  and  C_34
REMARK    6  A    between atoms: N_19  and  N_20
REMARK    7  A    between atoms: C_21  and  C_22
REMARK    8  A    between atoms: C_24  and  O_32
REMARK    9  A    between atoms: C_25  and  O_30
REMARK   10  A    between atoms: C_26  and  O_28
REMARK   11  A    between atoms: O_28  and  C_29
REMARK   12  A    between atoms: O_30  and  C_31
REMARK   13  A    between atoms: O_32  and  C_33
REMARK   14  A    between atoms: C_34  and  C_35
REMARK                            x       y       z     vdW  Elec       q    Type
REMARK                         _______ _______ _______ _____ _____    ______ ____
ROOT
ATOM      1  C   UNL     1      -1.413  -2.063   0.004  0.00  0.00    +0.004 C 
ATOM      2  C   UNL     1      -2.878  -2.485  -0.071  0.00  0.00    +0.047 C 
ATOM      3  C   UNL     1      -3.575  -2.212   1.234  0.00  0.00    -0.037 A 
ATOM      4  C   UNL     1      -4.893  -1.805   1.252  0.00  0.00    +0.004 A 
ATOM      5  C   UNL     1      -5.527  -1.560   2.457  0.00  0.00    +0.000 A 
ATOM      6  C   UNL     1      -4.848  -1.720   3.651  0.00  0.00    +0.001 A 
ATOM      7  C   UNL     1      -3.528  -2.125   3.648  0.00  0.00    +0.010 A 
ATOM      8  C   UNL     1      -2.885  -2.371   2.438  0.00  0.00    +0.004 A 
ATOM      9  C   UNL     1      -1.468  -2.796   2.401  0.00  0.00    +0.084 A 
ATOM     10  C   UNL     1      -0.755  -2.652   1.220  0.00  0.00    +0.049 A 
ATOM     11  C   UNL     1       0.584  -3.063   1.186  0.00  0.00    +0.260 A 
ATOM     12  O   UNL     1       1.244  -2.954   0.165  0.00  0.00    -0.267 OA
ATOM     13  N   UNL     1       1.130  -3.583   2.306  0.00  0.00    -0.276 N 
ATOM     14  C   UNL     1       0.386  -3.698   3.442  0.00  0.00    +0.219 A 
ATOM     15  N   UNL     1      -0.874  -3.314   3.481  0.00  0.00    -0.214 NA
ATOM     16  N   UNL     1       0.962  -4.224   4.569  0.00  0.00    -0.206 N 
ATOM     17  C   UNL     1      -0.683  -2.551  -1.249  0.00  0.00    +0.017 C 
ATOM     18  H   UNL     1       1.889  -4.510   4.552  0.00  0.00    +0.177 HD
ENDROOT
BRANCH  16  19
ATOM     19  N   UNL     1       0.211  -4.349   5.745  0.00  0.00    -0.188 NA
ATOM     20  C   UNL     1       0.756  -4.848   6.813  0.00  0.00    +0.138 C 
BRANCH  20  21
ATOM     21  C   UNL     1      -0.033  -4.979   8.051  0.00  0.00    +0.002 A 
ATOM     22  C   UNL     1      -1.370  -4.573   8.075  0.00  0.00    +0.059 A 
ATOM     23  C   UNL     1      -2.108  -4.698   9.239  0.00  0.00    +0.166 A 
ATOM     24  C   UNL     1      -1.520  -5.226  10.384  0.00  0.00    +0.204 A 
ATOM     25  C   UNL     1      -0.189  -5.631  10.363  0.00  0.00    +0.166 A 
ATOM     26  C   UNL     1       0.552  -5.515   9.201  0.00  0.00    +0.059 A 
BRANCH  25  27
ATOM     27  O   UNL     1       0.381  -6.147  11.484  0.00  0.00    -0.491 OA
ATOM     28  C   UNL     1       1.752  -6.543  11.392  0.00  0.00    +0.277 C 
ENDBRANCH  25  27
BRANCH  24  29
ATOM     29  O   UNL     1      -2.249  -5.347  11.526  0.00  0.00    -0.488 OA
ATOM     30  C   UNL     1      -2.958  -6.573  11.717  0.00  0.00    +0.277 C 
ENDBRANCH  24  29
BRANCH  23  31
ATOM     31  O   UNL     1      -3.409  -4.302   9.263  0.00  0.00    -0.491 OA
ATOM     32  C   UNL     1      -3.947  -3.768   8.052  0.00  0.00    +0.277 C 
ENDBRANCH  23  31
ENDBRANCH  20  21
ENDBRANCH  16  19
BRANCH   1  33
ATOM     33  C   UNL     1      -1.329  -0.537   0.075  0.00  0.00    +0.011 C 
BRANCH  33  35
ATOM     34  C   UNL     1       0.222   1.418   0.192  0.00  0.00    +0.004 C 
ATOM     35  C   UNL     1       0.139  -0.108   0.122  0.00  0.00    -0.003 C 
ENDBRANCH  33  35
ENDBRANCH   1  33
BRANCH  13  36
ATOM     36  C   UNL     1       2.526  -4.026   2.301  0.00  0.00    +0.155 C 
BRANCH  36  37
ATOM     37  C   UNL     1       3.419  -2.879   2.700  0.00  0.00    -0.013 C 
ATOM     38  C   UNL     1       4.252  -3.015   3.701  0.00  0.00    +0.005 C 
ENDBRANCH  36  37
ENDBRANCH  13  36
TORSDOF 9
