REMARK  Name = ZINC39265729
REMARK  11 active torsions:
REMARK  status: ('A' for Active; 'I' for Inactive)
REMARK    1  A    between atoms: C_1  and  C_2
REMARK    2  A    between atoms: C_2  and  C_3
REMARK    3  A    between atoms: C_2  and  C_4
REMARK    4  A    between atoms: C_2  and  N_11
REMARK    5  A    between atoms: C_4  and  C_5
REMARK    6  A    between atoms: C_12  and  C_14
REMARK    7  A    between atoms: C_14  and  N_15
REMARK    8  A    between atoms: C_16  and  C_35
REMARK    9  A    between atoms: C_25  and  O_27
REMARK   10  A    between atoms: O_27  and  C_28
REMARK   11  A    between atoms: C_28  and  C_29
REMARK                            x       y       z     vdW  Elec       q    Type
REMARK                         _______ _______ _______ _____ _____    ______ ____
ROOT
ATOM      1  N   UNL     1       3.953  -0.167  -2.754  0.00  0.00    -0.281 N 
ATOM      2  C   UNL     1       4.789   0.992  -3.044  0.00  0.00    +0.139 C 
ATOM      3  C   UNL     1       5.948   0.237  -2.418  0.00  0.00    +0.139 C 
ATOM      4  C   UNL     1       4.954  -0.856  -2.191  0.00  0.00    +0.243 C 
ATOM      5  O   UNL     1       5.027  -1.956  -1.685  0.00  0.00    -0.273 OA
ATOM      6  C   UNL     1       6.532   0.867  -1.142  0.00  0.00    +0.039 C 
ATOM      7  C   UNL     1       8.000   0.361  -1.149  0.00  0.00    +0.022 C 
ATOM      8  C   UNL     1       8.319   0.349  -2.666  0.00  0.00    +0.112 C 
ATOM      9  N   UNL     1       7.064  -0.080  -3.313  0.00  0.00    -0.251 N 
ATOM     10  C   UNL     1       6.962  -0.666  -4.522  0.00  0.00    +0.404 C 
ATOM     11  O   UNL     1       5.871  -0.979  -4.956  0.00  0.00    -0.226 OA
ENDROOT
BRANCH   2  12
ATOM     12  C   UNL     1       4.391   2.228  -2.279  0.00  0.00    -0.024 A 
ATOM     13  C   UNL     1       3.890   2.114  -0.996  0.00  0.00    +0.005 A 
ATOM     14  C   UNL     1       3.525   3.247  -0.293  0.00  0.00    +0.000 A 
ATOM     15  C   UNL     1       3.661   4.494  -0.874  0.00  0.00    +0.000 A 
ATOM     16  C   UNL     1       4.164   4.608  -2.157  0.00  0.00    +0.000 A 
ATOM     17  C   UNL     1       4.533   3.475  -2.858  0.00  0.00    +0.005 A 
ENDBRANCH   2  12
BRANCH   1  18
ATOM     18  C   UNL     1       2.537  -0.465  -2.986  0.00  0.00    +0.204 C 
BRANCH  18  20
ATOM     19  N   UNL     1       1.186  -1.719  -4.636  0.00  0.00    -0.309 N 
ATOM     20  C   UNL     1       2.392  -1.240  -4.271  0.00  0.00    +0.231 C 
ATOM     21  O   UNL     1       3.360  -1.433  -4.976  0.00  0.00    -0.274 OA
ATOM     22  H   UNL     1       0.412  -1.565  -4.072  0.00  0.00    +0.149 HD
BRANCH  19  24
ATOM     23  C   UNL     1       1.935  -3.715  -5.834  0.00  0.00    +0.031 C 
ATOM     24  C   UNL     1       1.044  -2.472  -5.884  0.00  0.00    +0.033 C 
ATOM     25  C   UNL     1       1.464  -1.591  -7.062  0.00  0.00    +0.031 C 
BRANCH  24  26
ATOM     26  C   UNL     1      -0.415  -2.898  -6.061  0.00  0.00    +0.060 C 
BRANCH  26  27
ATOM     27  C   UNL     1      -0.560  -3.673  -7.345  0.00  0.00    -0.045 A 
ATOM     28  C   UNL     1      -0.848  -3.010  -8.523  0.00  0.00    +0.004 A 
ATOM     29  C   UNL     1      -0.981  -3.720  -9.701  0.00  0.00    +0.000 A 
ATOM     30  C   UNL     1      -0.827  -5.094  -9.701  0.00  0.00    +0.000 A 
ATOM     31  C   UNL     1      -0.539  -5.757  -8.523  0.00  0.00    +0.000 A 
ATOM     32  C   UNL     1      -0.401  -5.046  -7.345  0.00  0.00    +0.004 A 
ENDBRANCH  26  27
ENDBRANCH  24  26
ENDBRANCH  19  24
ENDBRANCH  18  20
ENDBRANCH   1  18
BRANCH  10  33
ATOM     33  O   UNL     1       8.069  -0.905  -5.250  0.00  0.00    -0.445 OA
BRANCH  33  34
ATOM     34  C   UNL     1       7.887  -1.529  -6.523  0.00  0.00    +0.269 C 
BRANCH  34  35
ATOM     35  C   UNL     1       9.227  -1.715  -7.188  0.00  0.00    -0.010 A 
ATOM     36  C   UNL     1       9.739  -0.721  -8.001  0.00  0.00    +0.007 A 
ATOM     37  C   UNL     1      10.968  -0.891  -8.610  0.00  0.00    +0.000 A 
ATOM     38  C   UNL     1      11.685  -2.056  -8.406  0.00  0.00    +0.000 A 
ATOM     39  C   UNL     1      11.173  -3.049  -7.593  0.00  0.00    +0.000 A 
ATOM     40  C   UNL     1       9.946  -2.877  -6.980  0.00  0.00    +0.007 A 
ENDBRANCH  34  35
ENDBRANCH  33  34
ENDBRANCH  10  33
TORSDOF 9
