REMARK  Name = ZINC35908180
REMARK  11 active torsions:
REMARK  status: ('A' for Active; 'I' for Inactive)
REMARK    1  A    between atoms: C_1  and  C_2
REMARK    2  A    between atoms: C_2  and  C_3
REMARK    3  A    between atoms: C_12  and  C_13
REMARK    4  A    between atoms: C_13  and  C_15
REMARK    5  A    between atoms: C_13  and  C_30
REMARK    6  A    between atoms: C_15  and  C_16
REMARK    7  A    between atoms: C_22  and  C_25
REMARK    8  A    between atoms: C_25  and  O_27
REMARK    9  A    between atoms: O_27  and  C_28
REMARK   10  A    between atoms: C_28  and  C_29
REMARK   11  A    between atoms: C_34  and  N_36
REMARK                            x       y       z     vdW  Elec       q    Type
REMARK                         _______ _______ _______ _____ _____    ______ ____
ROOT
ATOM      1  C   UNL     1       0.025  -1.613   6.063  0.00  0.00    +0.060 C 
ENDROOT
BRANCH   1  11
ATOM      2  C   UNL     1       0.731  -0.503   1.223  0.00  0.00    -0.024 A 
ATOM      3  C   UNL     1       2.073  -0.808   1.151  0.00  0.00    +0.005 A 
ATOM      4  C   UNL     1       2.756  -1.268   2.268  0.00  0.00    +0.001 A 
ATOM      5  C   UNL     1       2.107  -1.427   3.460  0.00  0.00    +0.010 A 
ATOM      6  C   UNL     1       0.748  -1.125   3.556  0.00  0.00    +0.004 A 
ATOM      7  C   UNL     1       0.053  -0.653   2.428  0.00  0.00    +0.050 A 
ATOM      8  N   UNL     1      -1.250  -0.435   2.816  0.00  0.00    -0.360 N 
ATOM      9  H   UNL     1      -1.957  -0.111   2.236  0.00  0.00    +0.165 HD
ATOM     10  C   UNL     1      -1.400  -0.746   4.140  0.00  0.00    +0.088 A 
ATOM     11  C   UNL     1      -0.232  -1.176   4.644  0.00  0.00    -0.015 A 
BRANCH   2  13
ATOM     12  C   UNL     1      -0.019   1.526   0.010  0.00  0.00    +0.009 C 
ATOM     13  C   UNL     1       0.002  -0.004   0.002  0.00  0.00    +0.034 C 
ENDBRANCH   2  13
ENDBRANCH   1  11
BRANCH   1  14
ATOM     14  C   UNL     1      -0.290  -0.479   7.003  0.00  0.00    -0.037 A 
ATOM     15  C   UNL     1      -1.568   0.047   7.048  0.00  0.00    +0.004 A 
ATOM     16  C   UNL     1      -1.858   1.087   7.910  0.00  0.00    +0.003 A 
ATOM     17  C   UNL     1      -0.870   1.601   8.729  0.00  0.00    +0.033 A 
ATOM     18  C   UNL     1       0.407   1.075   8.686  0.00  0.00    +0.126 A 
ATOM     19  C   UNL     1       0.696   0.031   7.826  0.00  0.00    +0.037 A 
BRANCH  18  20
ATOM     20  N   UNL     1       1.465   1.625   9.562  0.00  0.00    +0.056 N 
ATOM     21  O   UNL     1       1.212   2.536  10.316  0.00  0.00    -0.126 OA
ATOM     22  O   UNL     1       2.582   1.165   9.524  0.00  0.00    -0.126 OA
ENDBRANCH  18  20
ENDBRANCH   1  14
BRANCH   1  23
ATOM     23  C   UNL     1      -0.863  -2.814   6.395  0.00  0.00    +0.109 C 
BRANCH  23  24
ATOM     24  C   UNL     1      -0.519  -3.328   7.769  0.00  0.00    +0.216 C 
ATOM     25  O   UNL     1       0.351  -2.788   8.419  0.00  0.00    -0.276 OA
ATOM     26  N   UNL     1      -1.179  -4.389   8.276  0.00  0.00    -0.301 N 
ATOM     27  C   UNL     1      -2.231  -5.058   7.499  0.00  0.00    +0.108 C 
ATOM     28  C   UNL     1      -3.505  -5.121   8.347  0.00  0.00    +0.020 C 
ATOM     29  C   UNL     1      -3.190  -5.792   9.685  0.00  0.00    +0.018 C 
ATOM     30  C   UNL     1      -2.148  -4.963  10.441  0.00  0.00    +0.115 C 
ATOM     31  C   UNL     1      -0.855  -4.902   9.615  0.00  0.00    +0.122 C 
BRANCH  30  32
ATOM     32  C   UNL     1      -1.863  -5.607  11.773  0.00  0.00    +0.312 C 
ATOM     33  O   UNL     1      -0.743  -5.974  12.039  0.00  0.00    -0.250 OA
BRANCH  32  34
ATOM     34  O   UNL     1      -2.853  -5.772  12.664  0.00  0.00    -0.465 OA
BRANCH  34  35
ATOM     35  C   UNL     1      -2.511  -6.389  13.907  0.00  0.00    +0.229 C 
ATOM     36  C   UNL     1      -3.760  -6.492  14.786  0.00  0.00    +0.048 C 
ENDBRANCH  34  35
ENDBRANCH  32  34
ENDBRANCH  30  32
ENDBRANCH  23  24
ENDBRANCH   1  23
TORSDOF 9
