REMARK  Name = ZINC35729545
REMARK  14 active torsions:
REMARK  status: ('A' for Active; 'I' for Inactive)
REMARK    1  A    between atoms: C_1  and  C_2
REMARK    2  A    between atoms: C_3  and  C_30
REMARK    3  A    between atoms: C_4  and  C_11
REMARK    4  A    between atoms: N_9  and  C_10
REMARK    5  A    between atoms: C_14  and  N_17
REMARK    6  A    between atoms: C_18  and  C_20
REMARK    7  A    between atoms: C_23  and  C_26
REMARK    8  A    between atoms: C_26  and  C_27
REMARK    9  A    between atoms: C_26  and  C_28
REMARK   10  A    between atoms: C_26  and  C_29
REMARK   11  A    between atoms: C_30  and  O_32
REMARK   12  A    between atoms: O_32  and  C_33
REMARK   13  A    between atoms: C_33  and  C_34
REMARK   14  A    between atoms: C_33  and  C_35
REMARK                            x       y       z     vdW  Elec       q    Type
REMARK                         _______ _______ _______ _____ _____    ______ ____
ROOT
ATOM      1  C   UNL     1      -2.056  -2.388  -1.123  0.00  0.00    -0.022 A 
ATOM      2  C   UNL     1      -1.686  -2.159  -2.436  0.00  0.00    +0.007 A 
ATOM      3  C   UNL     1      -2.557  -2.466  -3.463  0.00  0.00    +0.023 A 
ATOM      4  C   UNL     1      -3.804  -3.004  -3.177  0.00  0.00    +0.034 A 
ATOM      5  C   UNL     1      -4.173  -3.232  -1.858  0.00  0.00    +0.023 A 
ATOM      6  C   UNL     1      -3.296  -2.928  -0.835  0.00  0.00    +0.007 A 
ENDROOT
BRANCH   1  10
ATOM      7  C   UNL     1      -0.102   1.650   0.388  0.00  0.00    +0.061 C 
ATOM      8  C   UNL     1      -0.058   0.164   0.140  0.00  0.00    +0.021 C 
ATOM      9  C   UNL     1      -1.192  -0.561   0.253  0.00  0.00    +0.078 C 
ATOM     10  C   UNL     1      -1.104  -2.052  -0.004  0.00  0.00    +0.141 C 
ATOM     11  N   UNL     1       0.220  -2.590  -0.359  0.00  0.00    -0.315 N 
ATOM     12  C   UNL     1       1.261  -1.737  -0.433  0.00  0.00    +0.137 C 
ATOM     13  S   UNL     1       2.806  -2.348  -0.845  0.00  0.00    -0.018 S 
ATOM     14  N   UNL     1       1.124  -0.425  -0.201  0.00  0.00    -0.289 N 
ATOM     15  C   UNL     1       2.313   0.424  -0.311  0.00  0.00    +0.137 C 
ATOM     16  H   UNL     1       0.341  -3.536  -0.536  0.00  0.00    +0.149 HD
BRANCH   9  17
ATOM     17  C   UNL     1      -2.419   0.049   0.601  0.00  0.00    +0.339 C 
ATOM     18  O   UNL     1      -2.467   1.248   0.804  0.00  0.00    -0.245 OA
BRANCH  17  19
ATOM     19  O   UNL     1      -3.538  -0.698   0.708  0.00  0.00    -0.459 OA
BRANCH  19  20
ATOM     20  C   UNL     1      -4.743  -0.015   1.062  0.00  0.00    +0.171 C 
ATOM     21  C   UNL     1      -5.940  -0.740   0.444  0.00  0.00    +0.052 C 
ATOM     22  C   UNL     1      -4.889   0.003   2.585  0.00  0.00    +0.052 C 
ENDBRANCH  19  20
ENDBRANCH  17  19
ENDBRANCH   9  17
ENDBRANCH   1  10
BRANCH   4  23
ATOM     23  N   UNL     1      -4.688  -3.315  -4.215  0.00  0.00    -0.282 N 
ATOM     24  C   UNL     1      -4.215  -3.793  -5.383  0.00  0.00    +0.248 C 
ATOM     25  O   UNL     1      -3.016  -3.893  -5.557  0.00  0.00    -0.270 OA
ATOM     26  H   UNL     1      -5.642  -3.186  -4.095  0.00  0.00    +0.155 HD
BRANCH  24  27
ATOM     27  C   UNL     1      -5.153  -4.195  -6.452  0.00  0.00    +0.037 A 
ATOM     28  C   UNL     1      -6.530  -4.076  -6.257  0.00  0.00    +0.013 A 
ATOM     29  C   UNL     1      -7.401  -4.452  -7.259  0.00  0.00    +0.005 A 
ATOM     30  C   UNL     1      -6.912  -4.948  -8.454  0.00  0.00    -0.042 A 
ATOM     31  C   UNL     1      -5.548  -5.069  -8.654  0.00  0.00    +0.005 A 
ATOM     32  C   UNL     1      -4.666  -4.690  -7.663  0.00  0.00    +0.013 A 
BRANCH  30  33
ATOM     33  C   UNL     1      -7.868  -5.359  -9.544  0.00  0.00    -0.013 C 
ATOM     34  C   UNL     1      -8.715  -4.154  -9.960  0.00  0.00    +0.015 C 
ATOM     35  C   UNL     1      -7.078  -5.868 -10.751  0.00  0.00    +0.015 C 
ATOM     36  C   UNL     1      -8.783  -6.471  -9.027  0.00  0.00    +0.015 C 
ENDBRANCH  30  33
ENDBRANCH  24  27
ENDBRANCH   4  23
TORSDOF 7
