REMARK  Name = ZINC35701035
REMARK  10 active torsions:
REMARK  status: ('A' for Active; 'I' for Inactive)
REMARK    1  A    between atoms: C_1  and  C_2
REMARK    2  A    between atoms: C_5  and  C_8
REMARK    3  A    between atoms: C_14  and  C_16
REMARK    4  A    between atoms: C_16  and  C_17
REMARK    5  A    between atoms: C_17  and  N_18
REMARK    6  A    between atoms: N_18  and  C_19
REMARK    7  A    between atoms: C_19  and  C_21
REMARK    8  A    between atoms: C_19  and  C_22
REMARK    9  A    between atoms: C_28  and  C_30
REMARK   10  A    between atoms: C_33  and  C_35
REMARK                            x       y       z     vdW  Elec       q    Type
REMARK                         _______ _______ _______ _____ _____    ______ ____
ROOT
ATOM      1  N   UNL     1       0.192 -12.915  -0.373  0.00  0.00    -0.294 N 
ATOM      2  C   UNL     1       1.351 -13.594  -0.275  0.00  0.00    +0.220 C 
ATOM      3  O   UNL     1       2.399 -13.048  -0.551  0.00  0.00    -0.275 OA
ENDROOT
BRANCH   2   4
ATOM      4  C   UNL     1       1.347 -15.032   0.176  0.00  0.00    +0.083 C 
ATOM      5  C   UNL     1       1.955 -15.344   1.545  0.00  0.00    +0.022 C 
ATOM      6  C   UNL     1       2.696 -15.747   0.268  0.00  0.00    +0.032 C 
BRANCH   6   7
ATOM      7  C   UNL     1       2.732 -17.213  -0.082  0.00  0.00    -0.044 A 
ATOM      8  C   UNL     1       1.961 -18.113   0.630  0.00  0.00    +0.004 A 
ATOM      9  C   UNL     1       1.994 -19.456   0.308  0.00  0.00    +0.000 A 
ATOM     10  C   UNL     1       2.797 -19.901  -0.725  0.00  0.00    +0.000 A 
ATOM     11  C   UNL     1       3.567 -19.001  -1.438  0.00  0.00    +0.000 A 
ATOM     12  C   UNL     1       3.531 -17.656  -1.119  0.00  0.00    +0.004 A 
ENDBRANCH   6   7
ENDBRANCH   2   4
BRANCH   1  13
ATOM     13  C   UNL     1      -1.074 -13.574  -0.040  0.00  0.00    +0.103 C 
ATOM     14  C   UNL     1      -1.824 -12.741   1.001  0.00  0.00    +0.033 C 
BRANCH  13  15
ATOM     15  C   UNL     1      -1.916 -13.702  -1.283  0.00  0.00    -0.027 A 
ATOM     16  C   UNL     1      -1.322 -14.021  -2.490  0.00  0.00    +0.005 A 
ATOM     17  C   UNL     1      -2.095 -14.139  -3.630  0.00  0.00    +0.000 A 
ATOM     18  C   UNL     1      -3.461 -13.938  -3.563  0.00  0.00    +0.000 A 
ATOM     19  C   UNL     1      -4.055 -13.620  -2.356  0.00  0.00    +0.000 A 
ATOM     20  C   UNL     1      -3.283 -13.507  -1.215  0.00  0.00    +0.005 A 
ENDBRANCH  13  15
ENDBRANCH   1  13
BRANCH   1  21
ATOM     21  C   UNL     1       0.196 -11.517  -0.812  0.00  0.00    +0.117 C 
BRANCH  21  22
ATOM     22  C   UNL     1       0.486 -10.608   0.384  0.00  0.00    +0.115 C 
BRANCH  22  29
ATOM     23  C   UNL     1       0.810  -4.294  -0.028  0.00  0.00    +0.134 A 
ATOM     24  N   UNL     1       0.562  -5.125  -1.033  0.00  0.00    -0.140 NA
ATOM     25  N   UNL     1       0.527  -6.367  -0.802  0.00  0.00    -0.125 NA
ATOM     26  C   UNL     1       0.731  -6.859   0.405  0.00  0.00    +0.188 A 
ATOM     27  S   UNL     1       1.003  -5.463   1.310  0.00  0.00    -0.030 S 
ATOM     28  N   UNL     1       0.727  -8.185   0.822  0.00  0.00    -0.263 N 
ATOM     29  C   UNL     1       0.491  -9.170  -0.068  0.00  0.00    +0.220 C 
ATOM     30  O   UNL     1       0.282  -8.899  -1.231  0.00  0.00    -0.275 OA
ATOM     31  H   UNL     1       0.893  -8.402   1.752  0.00  0.00    +0.157 HD
BRANCH  23  36
ATOM     32  C   UNL     1       1.186   1.448   0.006  0.00  0.00    +0.044 C 
ATOM     33  C   UNL     1       1.087  -0.056  -0.003  0.00  0.00    -0.050 A 
ATOM     34  C   UNL     1       0.808  -0.721  -1.184  0.00  0.00    +0.004 A 
ATOM     35  C   UNL     1       0.717  -2.097  -1.199  0.00  0.00    +0.011 A 
ATOM     36  C   UNL     1       0.907  -2.819  -0.019  0.00  0.00    +0.009 A 
ATOM     37  C   UNL     1       1.188  -2.142   1.168  0.00  0.00    +0.011 A 
ATOM     38  C   UNL     1       1.281  -0.766   1.169  0.00  0.00    +0.004 A 
ENDBRANCH  23  36
ENDBRANCH  22  29
ENDBRANCH  21  22
ENDBRANCH   1  21
TORSDOF 8
