REMARK  Name = ZINC35592465
REMARK  12 active torsions:
REMARK  status: ('A' for Active; 'I' for Inactive)
REMARK    1  A    between atoms: C_1  and  C_2
REMARK    2  A    between atoms: C_2  and  C_3
REMARK    3  A    between atoms: C_8  and  N_9
REMARK    4  A    between atoms: C_12  and  C_14
REMARK    5  A    between atoms: C_14  and  C_15
REMARK    6  A    between atoms: C_14  and  C_16
REMARK    7  A    between atoms: C_14  and  C_17
REMARK    8  A    between atoms: C_18  and  C_29
REMARK    9  A    between atoms: N_24  and  C_25
REMARK   10  A    between atoms: C_25  and  C_26
REMARK   11  A    between atoms: C_32  and  O_35
REMARK   12  A    between atoms: O_35  and  C_36
REMARK                            x       y       z     vdW  Elec       q    Type
REMARK                         _______ _______ _______ _____ _____    ______ ____
ROOT
ATOM      1  N   UNL     1      -0.142  -2.195  -3.126  0.00  0.00    -0.217 N 
ATOM      2  C   UNL     1      -0.317  -2.572  -4.414  0.00  0.00    +0.136 A 
ATOM      3  C   UNL     1       0.107  -1.562  -5.209  0.00  0.00    +0.034 A 
ATOM      4  C   UNL     1       0.554  -0.527  -4.386  0.00  0.00    +0.075 A 
ATOM      5  N   UNL     1       0.401  -0.901  -3.138  0.00  0.00    -0.169 NA
ATOM      6  C   UNL     1       0.090  -1.587  -6.716  0.00  0.00    +0.112 C 
ATOM      7  S   UNL     1      -1.639  -1.403  -7.282  0.00  0.00    -0.138 S 
ATOM      8  C   UNL     1      -2.539  -2.453  -6.092  0.00  0.00    +0.166 C 
ATOM      9  C   UNL     1      -1.792  -3.728  -5.840  0.00  0.00    +0.231 C 
ATOM     10  O   UNL     1      -2.050  -4.718  -6.492  0.00  0.00    -0.274 OA
ATOM     11  N   UNL     1      -0.844  -3.779  -4.899  0.00  0.00    -0.246 N 
ENDROOT
BRANCH   1  17
ATOM     12  C   UNL     1      -1.492  -2.568  -1.156  0.00  0.00    -0.022 A 
ATOM     13  C   UNL     1      -1.798  -3.322  -0.039  0.00  0.00    +0.006 A 
ATOM     14  C   UNL     1      -1.066  -4.458   0.251  0.00  0.00    +0.000 A 
ATOM     15  C   UNL     1      -0.025  -4.843  -0.574  0.00  0.00    +0.002 A 
ATOM     16  C   UNL     1       0.286  -4.093  -1.691  0.00  0.00    +0.028 A 
ATOM     17  C   UNL     1      -0.452  -2.955  -1.989  0.00  0.00    +0.071 A 
BRANCH  12  19
ATOM     18  C   UNL     1      -3.329  -1.653  -2.548  0.00  0.00    +0.009 C 
ATOM     19  C   UNL     1      -2.291  -1.330  -1.472  0.00  0.00    +0.034 C 
ENDBRANCH  12  19
ENDBRANCH   1  17
BRANCH   6  20
ATOM     20  C   UNL     1       0.925  -0.453  -7.250  0.00  0.00    -0.030 A 
ATOM     21  C   UNL     1       2.260  -0.658  -7.546  0.00  0.00    +0.008 A 
ATOM     22  C   UNL     1       3.028   0.381  -8.036  0.00  0.00    +0.046 A 
ATOM     23  C   UNL     1       2.458   1.631  -8.231  0.00  0.00    +0.120 A 
ATOM     24  C   UNL     1       1.119   1.834  -7.934  0.00  0.00    +0.046 A 
ATOM     25  C   UNL     1       0.354   0.791  -7.450  0.00  0.00    +0.008 A 
BRANCH  23  26
ATOM     26  O   UNL     1       3.212   2.654  -8.713  0.00  0.00    -0.495 OA
ATOM     27  C   UNL     1       2.559   3.913  -8.889  0.00  0.00    +0.277 C 
ENDBRANCH  23  26
ENDBRANCH   6  20
BRANCH   4  28
ATOM     28  C   UNL     1       1.111   0.793  -4.851  0.00  0.00    +0.007 C 
ATOM     29  C   UNL     1      -0.007   1.624  -5.484  0.00  0.00    +0.017 C 
ATOM     30  C   UNL     1       1.694   1.550  -3.655  0.00  0.00    +0.017 C 
ATOM     31  C   UNL     1       2.211   0.547  -5.885  0.00  0.00    +0.017 C 
ENDBRANCH   4  28
BRANCH  11  32
ATOM     32  C   UNL     1      -0.365  -5.064  -4.385  0.00  0.00    +0.210 C 
BRANCH  32  33
ATOM     33  C   UNL     1      -1.328  -5.580  -3.347  0.00  0.00    +0.228 C 
ATOM     34  O   UNL     1      -2.355  -4.977  -3.120  0.00  0.00    -0.274 OA
ATOM     35  N   UNL     1      -1.047  -6.711  -2.670  0.00  0.00    -0.328 N 
ATOM     36  H   UNL     1      -0.194  -7.154  -2.799  0.00  0.00    +0.145 HD
ATOM     37  H   UNL     1      -1.698  -7.083  -2.055  0.00  0.00    +0.145 HD
ENDBRANCH  32  33
ENDBRANCH  11  32
TORSDOF 7
