REMARK  Name = ZINC21282984
REMARK  10 active torsions:
REMARK  status: ('A' for Active; 'I' for Inactive)
REMARK    1  A    between atoms: C_1  and  C_2
REMARK    2  A    between atoms: C_2  and  C_3
REMARK    3  A    between atoms: C_3  and  C_4
REMARK    4  A    between atoms: C_4  and  C_5
REMARK    5  A    between atoms: C_5  and  C_28
REMARK    6  A    between atoms: N_8  and  C_12
REMARK    7  A    between atoms: C_12  and  C_13
REMARK    8  A    between atoms: N_15  and  C_16
REMARK    9  A    between atoms: C_16  and  C_18
REMARK   10  A    between atoms: C_16  and  C_19
REMARK                            x       y       z     vdW  Elec       q    Type
REMARK                         _______ _______ _______ _____ _____    ______ ____
ROOT
ATOM      1  C   UNL     1       8.372  -0.770   8.158  0.00  0.00    +0.138 C 
ATOM      2  C   UNL     1       7.002  -0.789   7.511  0.00  0.00    +0.251 C 
ATOM      3  O   UNL     1       6.055  -0.081   7.779  0.00  0.00    -0.272 OA
ATOM      4  N   UNL     1       7.054  -1.758   6.575  0.00  0.00    -0.215 N 
ATOM      5  C   UNL     1       8.253  -2.351   6.545  0.00  0.00    +0.310 C 
ATOM      6  O   UNL     1       8.540  -3.257   5.788  0.00  0.00    -0.252 OA
ATOM      7  N   UNL     1       9.107  -1.830   7.445  0.00  0.00    -0.281 N 
ATOM      8  H   UNL     1      10.153  -2.045   7.707  0.00  0.00    +0.152 HD
ENDROOT
BRANCH   1   9
ATOM      9  C   UNL     1       9.038   0.566   7.952  0.00  0.00    -0.015 A 
ATOM     10  C   UNL     1       8.863   1.575   8.881  0.00  0.00    +0.009 A 
ATOM     11  C   UNL     1       9.476   2.800   8.696  0.00  0.00    +0.039 A 
ATOM     12  C   UNL     1      10.258   3.019   7.574  0.00  0.00    +0.123 A 
ATOM     13  C   UNL     1      10.427   2.010   6.641  0.00  0.00    +0.039 A 
ATOM     14  C   UNL     1       9.817   0.784   6.832  0.00  0.00    +0.009 A 
ATOM     15  F   UNL     1      10.854   4.217   7.389  0.00  0.00    -0.205 F 
ENDBRANCH   1   9
BRANCH   1  16
ATOM     16  C   UNL     1       8.268  -1.093   9.650  0.00  0.00    +0.040 C 
BRANCH  16  17
ATOM     17  C   UNL     1       7.755  -2.524   9.827  0.00  0.00    +0.003 C 
BRANCH  17  19
ATOM     18  C   UNL     1       7.137  -4.278  11.496  0.00  0.00    +0.004 C 
ATOM     19  C   UNL     1       7.650  -2.847  11.319  0.00  0.00    -0.003 C 
ENDBRANCH  17  19
ENDBRANCH  16  17
ENDBRANCH   1  16
BRANCH   4  20
ATOM     20  C   UNL     1       5.934  -2.121   5.704  0.00  0.00    +0.213 C 
BRANCH  20  21
ATOM     21  C   UNL     1       5.989  -1.295   4.444  0.00  0.00    +0.231 C 
ATOM     22  O   UNL     1       6.877  -0.483   4.291  0.00  0.00    -0.274 OA
ATOM     23  N   UNL     1       5.053  -1.459   3.489  0.00  0.00    -0.307 N 
ATOM     24  H   UNL     1       4.248  -2.195   3.629  0.00  0.00    +0.149 HD
BRANCH  23  25
ATOM     25  C   UNL     1       5.107  -0.655   2.265  0.00  0.00    +0.100 C 
ATOM     26  C   UNL     1       6.042  -1.325   1.257  0.00  0.00    +0.033 C 
BRANCH  25  27
ATOM     27  C   UNL     1       3.725  -0.548   1.674  0.00  0.00    -0.024 A 
ATOM     28  C   UNL     1       2.885  -1.646   1.677  0.00  0.00    +0.009 A 
ATOM     29  C   UNL     1       1.617  -1.553   1.135  0.00  0.00    +0.050 A 
ATOM     30  C   UNL     1       1.183  -0.356   0.589  0.00  0.00    +0.166 A 
ATOM     31  C   UNL     1       2.028   0.751   0.586  0.00  0.00    +0.167 A 
ATOM     32  C   UNL     1       3.299   0.650   1.130  0.00  0.00    +0.055 A 
ATOM     33  O   UNL     1       1.376   1.797  -0.001  0.00  0.00    -0.453 OA
ATOM     34  C   UNL     1      -0.018   1.436   0.010  0.00  0.00    +0.466 C 
ATOM     35  O   UNL     1       0.002  -0.004   0.002  0.00  0.00    -0.453 OA
ENDBRANCH  25  27
ENDBRANCH  23  25
ENDBRANCH  20  21
ENDBRANCH   4  20
TORSDOF 8
