REMARK  Name = ZINC16647116
REMARK  8 active torsions:
REMARK  status: ('A' for Active; 'I' for Inactive)
REMARK    1  A    between atoms: C_1  and  C_2
REMARK    2  A    between atoms: C_2  and  C_3
REMARK    3  A    between atoms: C_3  and  C_4
REMARK    4  A    between atoms: C_4  and  N_5
REMARK    5  A    between atoms: N_16  and  C_25
REMARK    6  A    between atoms: N_18  and  C_19
REMARK    7  A    between atoms: C_25  and  C_26
REMARK    8  A    between atoms: N_28  and  C_29
REMARK                            x       y       z     vdW  Elec       q    Type
REMARK                         _______ _______ _______ _____ _____    ______ ____
ROOT
ATOM      1  N   UNL     1       4.581   6.778  -0.524  0.00  0.00    -0.299 N 
ATOM      2  C   UNL     1       5.097   5.780   0.222  0.00  0.00    +0.302 C 
ATOM      3  O   UNL     1       5.747   6.038   1.217  0.00  0.00    -0.253 OA
ATOM      4  N   UNL     1       4.892   4.497  -0.136  0.00  0.00    -0.285 N 
ATOM      5  C   UNL     1       4.208   4.171  -1.395  0.00  0.00    +0.112 C 
ATOM      6  C   UNL     1       3.028   3.242  -1.088  0.00  0.00    +0.054 C 
ATOM      7  C   UNL     1       3.525   2.034  -0.299  0.00  0.00    +0.115 C 
ATOM      8  C   UNL     1       4.159   2.475   1.018  0.00  0.00    +0.054 C 
ATOM      9  C   UNL     1       5.347   3.398   0.727  0.00  0.00    +0.112 C 
ATOM     10  C   UNL     1       4.513   1.240  -1.118  0.00  0.00    +0.241 C 
ATOM     11  O   UNL     1       5.675   1.530  -1.306  0.00  0.00    -0.273 OA
ATOM     12  N   UNL     1       3.882   0.151  -1.606  0.00  0.00    -0.275 N 
ATOM     13  C   UNL     1       2.479   0.159  -1.172  0.00  0.00    +0.217 C 
ATOM     14  N   UNL     1       2.405   1.107  -0.035  0.00  0.00    -0.300 N 
ATOM     15  H   UNL     1       4.001   6.573  -1.273  0.00  0.00    +0.150 HD
ENDROOT
BRANCH  14  16
ATOM     16  C   UNL     1       1.184   1.785  -0.028  0.00  0.00    +0.032 A 
ATOM     17  C   UNL     1       0.977   2.836   0.857  0.00  0.00    +0.023 A 
ATOM     18  C   UNL     1      -0.233   3.502   0.865  0.00  0.00    +0.002 A 
ATOM     19  C   UNL     1      -1.234   3.131  -0.014  0.00  0.00    +0.000 A 
ATOM     20  C   UNL     1      -1.031   2.085  -0.896  0.00  0.00    +0.002 A 
ATOM     21  C   UNL     1       0.175   1.411  -0.906  0.00  0.00    +0.023 A 
ENDBRANCH  14  16
BRANCH   1  22
ATOM     22  C   UNL     1       4.898   8.171  -0.202  0.00  0.00    +0.106 C 
BRANCH  22  23
ATOM     23  C   UNL     1       4.191   9.097  -1.194  0.00  0.00    +0.018 C 
BRANCH  23  25
ATOM     24  C   UNL     1       3.815  11.479  -1.850  0.00  0.00    +0.004 C 
ATOM     25  C   UNL     1       4.522  10.553  -0.857  0.00  0.00    -0.002 C 
ENDBRANCH  23  25
ENDBRANCH  22  23
ENDBRANCH   1  22
BRANCH  12  26
ATOM     26  C   UNL     1       4.501  -0.881  -2.441  0.00  0.00    +0.205 C 
BRANCH  26  27
ATOM     27  C   UNL     1       4.357  -0.506  -3.894  0.00  0.00    +0.231 C 
ATOM     28  O   UNL     1       3.792   0.522  -4.201  0.00  0.00    -0.274 OA
ATOM     29  N   UNL     1       4.855  -1.313  -4.851  0.00  0.00    -0.311 N 
ATOM     30  H   UNL     1       5.307  -2.135  -4.605  0.00  0.00    +0.149 HD
BRANCH  29  31
ATOM     31  C   UNL     1       4.715  -0.948  -6.263  0.00  0.00    +0.073 C 
ATOM     32  C   UNL     1       3.354  -1.421  -6.779  0.00  0.00    +0.022 C 
ATOM     33  C   UNL     1       3.207  -1.040  -8.253  0.00  0.00    +0.002 C 
ATOM     34  C   UNL     1       4.320  -1.706  -9.065  0.00  0.00    +0.000 C 
ATOM     35  C   UNL     1       5.680  -1.233  -8.549  0.00  0.00    +0.002 C 
ATOM     36  C   UNL     1       5.827  -1.614  -7.075  0.00  0.00    +0.022 C 
ENDBRANCH  29  31
ENDBRANCH  26  27
ENDBRANCH  12  26
TORSDOF 7
