REMARK  Name = ZINC01375194
REMARK  14 active torsions:
REMARK  status: ('A' for Active; 'I' for Inactive)
REMARK    1  A    between atoms: C_1  and  C_2
REMARK    2  A    between atoms: C_2  and  C_3
REMARK    3  A    between atoms: C_3  and  C_5
REMARK    4  A    between atoms: C_3  and  N_14
REMARK    5  A    between atoms: N_9  and  C_10
REMARK    6  A    between atoms: C_10  and  C_11
REMARK    7  A    between atoms: C_10  and  C_12
REMARK    8  A    between atoms: C_10  and  C_13
REMARK    9  A    between atoms: N_14  and  C_15
REMARK   10  A    between atoms: N_14  and  C_22
REMARK   11  A    between atoms: C_15  and  C_16
REMARK   12  A    between atoms: C_22  and  C_23
REMARK   13  A    between atoms: C_26  and  C_36
REMARK   14  A    between atoms: C_28  and  C_35
REMARK                            x       y       z     vdW  Elec       q    Type
REMARK                         _______ _______ _______ _____ _____    ______ ____
ROOT
ATOM      1  N   UNL     1      -1.388   3.674   0.342  0.00  0.00    +0.392 N 
ATOM      2  H   UNL     1      -0.633   4.309  -0.144  0.00  0.00    -0.080 HD
ENDROOT
BRANCH   1   3
ATOM      3  C   UNL     1      -1.338   2.349  -0.291  0.00  0.00    +0.003 C 
BRANCH   3   4
ATOM      4  C   UNL     1      -0.094   1.626   0.157  0.00  0.00    +0.139 A 
ATOM      5  N   UNL     1       1.127   2.101   0.166  0.00  0.00    -0.115 NA
ATOM      6  N   UNL     1       1.910   1.179   0.611  0.00  0.00    -0.023 NA
ATOM      7  N   UNL     1       1.220   0.128   0.885  0.00  0.00    -0.043 NA
ATOM      8  N   UNL     1      -0.020   0.364   0.619  0.00  0.00    -0.226 N 
BRANCH   8   9
ATOM      9  C   UNL     1      -1.139  -0.568   0.788  0.00  0.00    +0.059 C 
ATOM     10  C   UNL     1      -1.896  -0.701  -0.534  0.00  0.00    +0.036 C 
ATOM     11  C   UNL     1      -0.603  -1.937   1.210  0.00  0.00    +0.036 C 
ATOM     12  C   UNL     1      -2.086  -0.037   1.867  0.00  0.00    +0.036 C 
ENDBRANCH   8   9
ENDBRANCH   3   4
BRANCH   3  14
ATOM     13  C   UNL     1      -0.048   3.264  -2.225  0.00  0.00    +0.002 C 
ATOM     14  C   UNL     1      -1.314   2.511  -1.812  0.00  0.00    -0.011 C 
ENDBRANCH   3  14
ENDBRANCH   1   3
BRANCH   1  15
ATOM     15  C   UNL     1      -1.054   3.588   1.770  0.00  0.00    -0.042 C 
BRANCH  15  16
ATOM     16  C   UNL     1      -0.614   4.942   2.265  0.00  0.00    -0.064 A 
ATOM     17  C   UNL     1       0.691   5.356   2.075  0.00  0.00    +0.002 A 
ATOM     18  C   UNL     1       1.094   6.600   2.525  0.00  0.00    +0.000 A 
ATOM     19  C   UNL     1       0.194   7.425   3.173  0.00  0.00    +0.000 A 
ATOM     20  C   UNL     1      -1.109   7.008   3.368  0.00  0.00    +0.000 A 
ATOM     21  C   UNL     1      -1.514   5.767   2.913  0.00  0.00    +0.002 A 
ENDBRANCH  15  16
ENDBRANCH   1  15
BRANCH   1  22
ATOM     22  C   UNL     1      -2.701   4.302   0.145  0.00  0.00    -0.036 C 
BRANCH  22  23
ATOM     23  C   UNL     1      -3.782   3.369   0.629  0.00  0.00    +0.001 A 
ATOM     24  C   UNL     1      -4.251   3.478   1.897  0.00  0.00    +0.017 A 
ATOM     25  C   UNL     1      -5.301   2.557   2.336  0.00  0.00    +0.002 A 
ATOM     26  C   UNL     1      -5.825   2.622   3.631  0.00  0.00    -0.041 A 
ATOM     27  C   UNL     1      -6.804   1.748   4.010  0.00  0.00    +0.007 A 
ATOM     28  C   UNL     1      -7.284   0.796   3.121  0.00  0.00    -0.048 A 
ATOM     29  C   UNL     1      -6.782   0.714   1.840  0.00  0.00    +0.029 A 
ATOM     30  C   UNL     1      -5.785   1.593   1.431  0.00  0.00    +0.050 A 
ATOM     31  N   UNL     1      -5.265   1.534   0.156  0.00  0.00    -0.322 N 
ATOM     32  H   UNL     1      -5.636   0.781  -0.555  0.00  0.00    +0.169 HD
ATOM     33  C   UNL     1      -4.305   2.388  -0.240  0.00  0.00    +0.251 A 
ATOM     34  O   UNL     1      -3.873   2.310  -1.377  0.00  0.00    -0.268 OA
ATOM     35  C   UNL     1      -8.364  -0.158   3.561  0.00  0.00    +0.044 C 
ATOM     36  C   UNL     1      -5.311   3.651   4.605  0.00  0.00    +0.044 C 
ENDBRANCH  22  23
ENDBRANCH   1  22
TORSDOF 8
