REMARK  Name = ZINC12893672
REMARK  5 active torsions:
REMARK  status: ('A' for Active; 'I' for Inactive)
REMARK    1  A    between atoms: C_3  and  C_6
REMARK    2  A    between atoms: C_6  and  N_7
REMARK    3  A    between atoms: C_8  and  C_10
REMARK    4  A    between atoms: N_12  and  N_13
REMARK    5  A    between atoms: C_14  and  C_16
REMARK                            x       y       z     vdW  Elec       q    Type
REMARK                         _______ _______ _______ _____ _____    ______ ____
ROOT
ATOM      1  N   UNL     1      -2.409   5.672   0.044  0.00  0.00    -0.234 N 
ATOM      2  C   UNL     1      -3.586   6.330   0.053  0.00  0.00    +0.232 C 
ATOM      3  O   UNL     1      -4.628   5.709   0.055  0.00  0.00    -0.274 OA
ATOM      4  H   UNL     1      -1.464   6.235   0.043  0.00  0.00    +0.173 HD
ENDROOT
BRANCH   2   5
ATOM      5  C   UNL     1      -3.606   7.837   0.062  0.00  0.00    +0.077 C 
ATOM      6  C   UNL     1      -2.856   8.344   1.295  0.00  0.00    +0.018 C 
ATOM      7  C   UNL     1      -2.979   9.881   1.374  0.00  0.00    +0.016 C 
ATOM      8  C   UNL     1      -2.658  10.383  -0.060  0.00  0.00    +0.006 C 
ATOM      9  C   UNL     1      -4.010  10.371  -0.846  0.00  0.00    +0.006 C 
ATOM     10  C   UNL     1      -5.066   9.861   0.171  0.00  0.00    +0.016 C 
ATOM     11  C   UNL     1      -5.058   8.320   0.071  0.00  0.00    +0.018 C 
ATOM     12  C   UNL     1      -4.464  10.214   1.532  0.00  0.00    +0.068 C 
ATOM     13  S   UNL     1      -5.240   9.284   2.893  0.00  0.00    -0.142 S 
ATOM     14  C   UNL     1      -5.276  10.528   4.247  0.00  0.00    +0.081 C 
ATOM     15  C   UNL     1      -5.675  11.862   3.565  0.00  0.00    +0.081 C 
ATOM     16  S   UNL     1      -4.744  11.950   1.989  0.00  0.00    -0.142 S 
ENDBRANCH   2   5
BRANCH   1  19
ATOM     17  C   UNL     1      -1.214   3.613   0.027  0.00  0.00    +0.315 C 
ATOM     18  O   UNL     1      -0.172   4.234   0.026  0.00  0.00    -0.264 OA
ATOM     19  N   UNL     1      -2.390   4.271   0.037  0.00  0.00    -0.227 N 
ATOM     20  H   UNL     1      -3.336   3.708   0.038  0.00  0.00    +0.173 HD
BRANCH  17  22
ATOM     21  N   UNL     1      -0.018   1.461   0.010  0.00  0.00    -0.300 N 
ATOM     22  C   UNL     1      -1.194   2.119   0.019  0.00  0.00    +0.301 C 
ATOM     23  O   UNL     1      -2.237   1.498   0.021  0.00  0.00    -0.265 OA
ATOM     24  H   UNL     1       0.927   2.024   0.009  0.00  0.00    +0.150 HD
BRANCH  21  25
ATOM     25  C   UNL     1       0.002  -0.004   0.002  0.00  0.00    +0.179 C 
BRANCH  25  28
ATOM     26  C   UNL     1       3.447  -1.171   0.595  0.00  0.00    +0.041 A 
ATOM     27  C   UNL     1       2.185  -0.745   1.068  0.00  0.00    +0.046 A 
ATOM     28  C   UNL     1       1.429  -0.487  -0.014  0.00  0.00    +0.122 A 
ATOM     29  O   UNL     1       2.161  -0.738  -1.112  0.00  0.00    -0.466 OA
ATOM     30  C   UNL     1       3.388  -1.148  -0.749  0.00  0.00    +0.195 A 
ENDBRANCH  25  28
ENDBRANCH  21  25
ENDBRANCH  17  22
ENDBRANCH   1  19
TORSDOF 5
