REMARK  Name = ZINC20436765
REMARK  9 active torsions:
REMARK  status: ('A' for Active; 'I' for Inactive)
REMARK    1  A    between atoms: C_9  and  O_28
REMARK    2  A    between atoms: C_10  and  C_11
REMARK    3  A    between atoms: C_11  and  N_12
REMARK    4  A    between atoms: N_12  and  C_13
REMARK    5  A    between atoms: C_13  and  C_14
REMARK    6  A    between atoms: C_14  and  N_15
REMARK    7  A    between atoms: N_15  and  C_16
REMARK    8  A    between atoms: C_16  and  C_17
REMARK    9  A    between atoms: C_26  and  O_27
REMARK                            x       y       z     vdW  Elec       q    Type
REMARK                         _______ _______ _______ _____ _____    ______ ____
ROOT
ATOM      1  C   UNL     1      -3.114   6.953   1.489  0.00  0.00    -0.067 C 
ENDROOT
BRANCH   1   2
ATOM      2  N   UNL     1      -1.837   6.230   1.435  0.00  0.00    +0.383 N 
ATOM      3  H   UNL     1      -1.955   5.265   1.950  0.00  0.00    -0.085 HD
ATOM      4  H   UNL     1      -1.071   6.828   1.949  0.00  0.00    -0.085 HD
BRANCH   2   5
ATOM      5  C   UNL     1      -1.423   5.995   0.045  0.00  0.00    -0.042 C 
BRANCH   5  15
ATOM      6  C   UNL     1      -0.013   1.076   0.008  0.00  0.00    +0.001 A 
ATOM      7  C   UNL     1      -1.235   1.746   0.017  0.00  0.00    +0.001 A 
ATOM      8  C   UNL     1      -1.288   3.105   0.030  0.00  0.00    +0.009 A 
ATOM      9  C   UNL     1      -0.095   3.849   0.023  0.00  0.00    -0.013 A 
ATOM     10  C   UNL     1       1.148   3.167   0.008  0.00  0.00    -0.017 A 
ATOM     11  C   UNL     1       1.163   1.762   0.000  0.00  0.00    +0.008 A 
ATOM     12  C   UNL     1       2.342   3.909  -0.000  0.00  0.00    +0.012 A 
ATOM     13  C   UNL     1       2.292   5.268   0.006  0.00  0.00    +0.046 A 
ATOM     14  C   UNL     1       1.067   5.942   0.021  0.00  0.00    +0.119 A 
ATOM     15  C   UNL     1      -0.112   5.253   0.029  0.00  0.00    -0.015 A 
BRANCH  14  16
ATOM     16  O   UNL     1       1.050   7.301   0.027  0.00  0.00    -0.507 OA
ATOM     17  H   UNL     1       0.090   7.838   0.039  0.00  0.00    +0.292 HD
ENDBRANCH  14  16
ENDBRANCH   5  15
ENDBRANCH   2   5
ENDBRANCH   1   2
BRANCH   1  18
ATOM     18  C   UNL     1      -3.511   7.178   2.950  0.00  0.00    +0.062 C 
BRANCH  18  19
ATOM     19  N   UNL     1      -4.789   7.901   3.004  0.00  0.00    -0.314 NA
ATOM     20  H   UNL     1      -4.682   8.873   2.499  0.00  0.00    +0.122 HD
BRANCH  19  21
ATOM     21  C   UNL     1      -5.202   8.136   4.394  0.00  0.00    +0.120 C 
BRANCH  21  22
ATOM     22  C   UNL     1      -6.514   8.878   4.409  0.00  0.00    +0.015 A 
ATOM     23  C   UNL     1      -7.726   8.169   4.417  0.00  0.00    -0.010 A 
ATOM     24  C   UNL     1      -7.749   6.764   4.411  0.00  0.00    +0.009 A 
ATOM     25  C   UNL     1      -8.943   6.110   4.419  0.00  0.00    +0.001 A 
ATOM     26  C   UNL     1     -10.146   6.813   4.434  0.00  0.00    +0.001 A 
ATOM     27  C   UNL     1     -10.162   8.174   4.440  0.00  0.00    +0.008 A 
ATOM     28  C   UNL     1      -8.950   8.884   4.432  0.00  0.00    -0.017 A 
ATOM     29  C   UNL     1      -8.929  10.290   4.439  0.00  0.00    +0.012 A 
ATOM     30  C   UNL     1      -7.739  10.947   4.431  0.00  0.00    +0.046 A 
ATOM     31  C   UNL     1      -6.530  10.244   4.422  0.00  0.00    +0.122 A 
BRANCH  31  32
ATOM     32  O   UNL     1      -5.356  10.928   4.420  0.00  0.00    -0.506 OA
ATOM     33  H   UNL     1      -5.361  12.028   4.429  0.00  0.00    +0.292 HD
ENDBRANCH  31  32
ENDBRANCH  21  22
ENDBRANCH  19  21
ENDBRANCH  18  19
ENDBRANCH   1  18
TORSDOF 9
