REMARK  Name = ZINC02915186
REMARK  7 active torsions:
REMARK  status: ('A' for Active; 'I' for Inactive)
REMARK    1  A    between atoms: C_1  and  C_2
REMARK    2  A    between atoms: C_2  and  O_3
REMARK    3  A    between atoms: O_3  and  C_4
REMARK    4  A    between atoms: C_6  and  C_15
REMARK    5  A    between atoms: C_9  and  O_10
REMARK    6  A    between atoms: O_10  and  C_11
REMARK    7  A    between atoms: C_11  and  C_12
REMARK                            x       y       z     vdW  Elec       q    Type
REMARK                         _______ _______ _______ _____ _____    ______ ____
ROOT
ATOM      1  C   UNL     1      -1.469  -1.836   1.045  0.00  0.00    +0.164 A 
ATOM      2  C   UNL     1      -1.366  -0.493   0.748  0.00  0.00    +0.057 A 
ATOM      3  C   UNL     1      -0.134   0.036   0.332  0.00  0.00    -0.019 A 
ATOM      4  C   UNL     1       0.986  -0.802   0.232  0.00  0.00    +0.026 A 
ATOM      5  C   UNL     1       0.873  -2.140   0.536  0.00  0.00    +0.059 A 
ATOM      6  C   UNL     1      -0.350  -2.663   0.943  0.00  0.00    +0.175 A 
ATOM      7  I   UNL     1       2.546  -3.391   0.386  0.00  0.00    -0.040 I 
ENDROOT
BRANCH   3   8
ATOM      8  C   UNL     1      -0.018   1.459   0.010  0.00  0.00    +0.026 C 
ATOM      9  C   UNL     1      -0.972   2.068  -0.781  0.00  0.00    +0.100 C 
ATOM     10  C   UNL     1      -1.992   1.282  -1.503  0.00  0.00    +0.255 C 
ATOM     11  O   UNL     1      -2.021   0.068  -1.420  0.00  0.00    -0.270 OA
ATOM     12  N   UNL     1      -2.895   1.946  -2.253  0.00  0.00    -0.263 N 
ATOM     13  C   UNL     1      -2.872   3.282  -2.358  0.00  0.00    +0.143 C 
ATOM     14  S   UNL     1      -4.055   4.037  -3.339  0.00  0.00    -0.018 S 
ATOM     15  N   UNL     1      -1.974   4.059  -1.737  0.00  0.00    -0.263 N 
ATOM     16  C   UNL     1      -1.013   3.534  -0.948  0.00  0.00    +0.255 C 
ATOM     17  O   UNL     1      -0.204   4.250  -0.390  0.00  0.00    -0.270 OA
ATOM     18  H   UNL     1      -3.575   1.445  -2.731  0.00  0.00    +0.157 HD
ATOM     19  H   UNL     1      -2.015   5.020  -1.858  0.00  0.00    +0.157 HD
ENDBRANCH   3   8
BRANCH   1  20
ATOM     20  O   UNL     1      -2.662  -2.353   1.444  0.00  0.00    -0.489 OA
BRANCH  20  22
ATOM     21  C   UNL     1      -5.012  -2.208   1.988  0.00  0.00    +0.048 C 
ATOM     22  C   UNL     1      -3.766  -1.449   1.527  0.00  0.00    +0.226 C 
ENDBRANCH  20  22
ENDBRANCH   1  20
BRANCH   6  23
ATOM     23  O   UNL     1      -0.455  -3.983   1.242  0.00  0.00    -0.483 OA
BRANCH  23  24
ATOM     24  C   UNL     1      -0.208  -4.363   2.597  0.00  0.00    +0.256 C 
BRANCH  24  25
ATOM     25  C   UNL     1      -0.370  -5.855   2.737  0.00  0.00    +0.006 C 
ATOM     26  C   UNL     1       0.515  -6.549   3.410  0.00  0.00    +0.007 C 
ENDBRANCH  24  25
ENDBRANCH  23  24
ENDBRANCH   6  23
TORSDOF 6
