REMARK  Name = ZINC62715812
REMARK  3 active torsions:
REMARK  status: ('A' for Active; 'I' for Inactive)
REMARK    1  A    between atoms: C_1  and  C_2
REMARK    2  A    between atoms: C_2  and  C_11
REMARK    3  A    between atoms: C_4  and  C_9
REMARK                            x       y       z     vdW  Elec       q    Type
REMARK                         _______ _______ _______ _____ _____    ______ ____
ROOT
ATOM      1  C   UNL     1      -0.018   1.524   0.081  0.00  0.00    +0.022 C 
ATOM      2  C   UNL     1       0.002  -0.004   0.002  0.00  0.00    +0.012 C 
ATOM      3  C   UNL     1       0.714  -0.443  -1.281  0.00  0.00    +0.035 C 
ATOM      4  C   UNL     1       0.690  -1.964  -1.395  0.00  0.00    +0.094 C 
ATOM      5  C   UNL     1       1.623  -2.599  -0.367  0.00  0.00    +0.029 C 
ATOM      6  C   UNL     1       1.032  -2.448   1.038  0.00  0.00    +0.071 C 
ATOM      7  S   UNL     1       0.905  -0.677   1.429  0.00  0.00    -0.154 S 
ATOM      8  C   UNL     1      -1.432  -0.537   0.005  0.00  0.00    +0.022 C 
ENDROOT
BRANCH   4   9
ATOM      9  C   UNL     1      -0.682  -2.446  -1.165  0.00  0.00    +0.066 C 
ATOM     10  N   UNL     1      -1.741  -2.817  -0.988  0.00  0.00    -0.196 NA
ENDBRANCH   4   9
TORSDOF 1
