REMARK  Name = ZINC12774681
REMARK  15 active torsions:
REMARK  status: ('A' for Active; 'I' for Inactive)
REMARK    1  A    between atoms: C_1  and  C_2
REMARK    2  A    between atoms: C_5  and  C_36
REMARK    3  A    between atoms: C_6  and  O_8
REMARK    4  A    between atoms: O_8  and  C_9
REMARK    5  A    between atoms: C_9  and  C_10
REMARK    6  A    between atoms: C_10  and  C_12
REMARK    7  A    between atoms: C_10  and  O_35
REMARK    8  A    between atoms: C_12  and  S_13
REMARK    9  A    between atoms: S_13  and  C_14
REMARK   10  A    between atoms: C_17  and  C_27
REMARK   11  A    between atoms: N_18  and  C_19
REMARK   12  A    between atoms: C_22  and  O_25
REMARK   13  A    between atoms: O_25  and  C_26
REMARK   14  A    between atoms: C_32  and  O_33
REMARK   15  A    between atoms: O_33  and  C_34
REMARK                            x       y       z     vdW  Elec       q    Type
REMARK                         _______ _______ _______ _____ _____    ______ ____
ROOT
ATOM      1  C   UNL     1       0.185  -0.732  -8.812  0.00  0.00    +0.196 A 
ATOM      2  N   UNL     1       0.184  -2.040  -8.684  0.00  0.00    -0.122 NA
ATOM      3  N   UNL     1       0.421  -2.596  -9.819  0.00  0.00    -0.128 NA
ATOM      4  C   UNL     1       0.596  -1.678 -10.741  0.00  0.00    +0.173 A 
ATOM      5  N   UNL     1       0.451  -0.454 -10.125  0.00  0.00    -0.270 N 
ENDROOT
BRANCH   5   6
ATOM      6  C   UNL     1       0.554   0.813 -10.720  0.00  0.00    +0.051 A 
ATOM      7  C   UNL     1      -0.385   1.218 -11.659  0.00  0.00    +0.030 A 
ATOM      8  C   UNL     1      -0.286   2.466 -12.240  0.00  0.00    +0.047 A 
ATOM      9  C   UNL     1       0.758   3.312 -11.894  0.00  0.00    +0.120 A 
ATOM     10  C   UNL     1       1.700   2.905 -10.960  0.00  0.00    +0.047 A 
ATOM     11  C   UNL     1       1.598   1.659 -10.374  0.00  0.00    +0.030 A 
BRANCH   9  12
ATOM     12  O   UNL     1       0.858   4.539 -12.470  0.00  0.00    -0.495 OA
ATOM     13  C   UNL     1      -0.146   4.892 -13.424  0.00  0.00    +0.277 C 
ENDBRANCH   9  12
ENDBRANCH   5   6
BRANCH   4  14
ATOM     14  C   UNL     1       0.893  -1.913 -12.169  0.00  0.00    +0.061 A 
ATOM     15  C   UNL     1       1.914  -1.200 -12.800  0.00  0.00    +0.015 A 
ATOM     16  C   UNL     1       2.187  -1.424 -14.133  0.00  0.00    +0.001 A 
ATOM     17  C   UNL     1       1.452  -2.354 -14.849  0.00  0.00    +0.004 A 
ATOM     18  C   UNL     1       0.439  -3.065 -14.235  0.00  0.00    +0.046 A 
ATOM     19  C   UNL     1       0.156  -2.856 -12.896  0.00  0.00    +0.131 A 
BRANCH  19  20
ATOM     20  O   UNL     1      -0.836  -3.559 -12.290  0.00  0.00    -0.494 OA
ATOM     21  C   UNL     1      -1.546  -4.503 -13.094  0.00  0.00    +0.277 C 
ENDBRANCH  19  20
ENDBRANCH   4  14
BRANCH   1  22
ATOM     22  S   UNL     1      -0.096   0.443  -7.530  0.00  0.00    -0.083 S 
BRANCH  22  23
ATOM     23  C   UNL     1      -0.367  -0.674  -6.133  0.00  0.00    +0.112 C 
BRANCH  23  24
ATOM     24  C   UNL     1      -0.639   0.145  -4.870  0.00  0.00    +0.162 C 
BRANCH  24  25
ATOM     25  O   UNL     1      -1.865   0.863  -5.023  0.00  0.00    -0.388 OA
ATOM     26  H   UNL     1      -2.636   0.298  -5.168  0.00  0.00    +0.210 HD
ENDBRANCH  24  25
BRANCH  24  27
ATOM     27  C   UNL     1      -0.744  -0.793  -3.666  0.00  0.00    +0.261 C 
BRANCH  27  28
ATOM     28  O   UNL     1      -0.882  -0.021  -2.471  0.00  0.00    -0.489 OA
BRANCH  28  34
ATOM     29  C   UNL     1      -1.042  -4.295  -0.119  0.00  0.00    +0.044 C 
ATOM     30  C   UNL     1      -1.071  -2.788  -0.117  0.00  0.00    -0.047 A 
ATOM     31  C   UNL     1      -1.212  -2.102   1.076  0.00  0.00    +0.004 A 
ATOM     32  C   UNL     1      -1.238  -0.720   1.082  0.00  0.00    +0.007 A 
ATOM     33  C   UNL     1      -1.125  -0.021  -0.104  0.00  0.00    -0.009 A 
ATOM     34  C   UNL     1      -0.988  -0.706  -1.302  0.00  0.00    +0.124 A 
ATOM     35  C   UNL     1      -0.956  -2.094  -1.305  0.00  0.00    +0.049 A 
ATOM     36  C   UNL     1      -1.155   1.486  -0.097  0.00  0.00    +0.047 C 
ENDBRANCH  28  34
ENDBRANCH  27  28
ENDBRANCH  24  27
ENDBRANCH  23  24
ENDBRANCH  22  23
ENDBRANCH   1  22
TORSDOF 11
