REMARK  Name = ZINC36368056
REMARK  5 active torsions:
REMARK  status: ('A' for Active; 'I' for Inactive)
REMARK    1  A    between atoms: C_1  and  C_2
REMARK    2  A    between atoms: C_4  and  N_28
REMARK    3  A    between atoms: C_6  and  C_9
REMARK    4  A    between atoms: C_7  and  O_8
REMARK    5  A    between atoms: CA_22  and  C_25
REMARK                            x       y       z     vdW  Elec       q    Type
REMARK                         _______ _______ _______ _____ _____    ______ ____
ROOT
ATOM      1  C   UNL     1       0.052  -2.856   2.487  0.00  0.00    +0.136 C 
ATOM      2  C   UNL     1      -1.347  -2.928   3.051  0.00  0.00    +0.042 A 
ATOM      3  C   UNL     1      -2.118  -4.037   2.973  0.00  0.00    -0.015 A 
ATOM      4  C   UNL     1      -3.375  -3.730   3.617  0.00  0.00    +0.003 A 
ATOM      5  C   UNL     1      -4.537  -4.476   3.839  0.00  0.00    +0.010 A 
ATOM      6  C   UNL     1      -5.561  -3.847   4.503  0.00  0.00    +0.001 A 
ATOM      7  C   UNL     1      -5.461  -2.536   4.938  0.00  0.00    +0.002 A 
ATOM      8  C   UNL     1      -4.324  -1.775   4.733  0.00  0.00    +0.026 A 
ATOM      9  C   UNL     1      -3.268  -2.386   4.061  0.00  0.00    +0.047 A 
ATOM     10  N   UNL     1      -2.030  -1.936   3.700  0.00  0.00    -0.356 N 
ATOM     11  H   UNL     1      -1.686  -1.046   3.877  0.00  0.00    +0.166 HD
ATOM     12  C   UNL     1      -1.668  -5.317   2.313  0.00  0.00    +0.068 C 
ATOM     13  CA  UNL     1      -0.437  -5.001   1.454  0.00  0.00    +0.173 C 
ATOM     14  N   UNL     1       0.534  -4.226   2.248  0.00  0.00    -0.292 NA
ATOM     15  H   UNL     1       1.443  -4.219   1.810  0.00  0.00    +0.124 HD
ENDROOT
BRANCH   1  21
ATOM     16  C   UNL     1       2.492  -0.403  -1.142  0.00  0.00    +0.047 C 
ATOM     17  C   UNL     1       1.205  -0.916  -0.550  0.00  0.00    -0.007 A 
ATOM     18  C   UNL     1       0.006  -0.687  -1.197  0.00  0.00    +0.039 A 
ATOM     19  C   UNL     1      -1.175  -1.159  -0.654  0.00  0.00    +0.127 A 
ATOM     20  C   UNL     1      -1.160  -1.860   0.537  0.00  0.00    +0.042 A 
ATOM     21  C   UNL     1       0.036  -2.092   1.188  0.00  0.00    +0.019 A 
ATOM     22  C   UNL     1       1.223  -1.625   0.643  0.00  0.00    +0.125 A 
BRANCH  19  23
ATOM     23  N   UNL     1      -2.458  -0.911  -1.350  0.00  0.00    +0.056 N 
ATOM     24  O   UNL     1      -2.473  -0.297  -2.391  0.00  0.00    -0.126 OA
ATOM     25  O   UNL     1      -3.492  -1.323  -0.876  0.00  0.00    -0.126 OA
ENDBRANCH  19  23
BRANCH  22  26
ATOM     26  O   UNL     1       2.402  -1.856   1.279  0.00  0.00    -0.506 OA
ATOM     27  H   UNL     1       2.648  -1.169   1.912  0.00  0.00    +0.292 HD
ENDBRANCH  22  26
ENDBRANCH   1  21
BRANCH  13  28
ATOM     28  C   UNL     1       0.202  -6.287   0.999  0.00  0.00    +0.373 C 
ATOM     29  O   UNL     1      -0.145  -6.803  -0.050  0.00  0.00    -0.245 OA
ATOM     30  OXT UNL     1       1.066  -6.813   1.680  0.00  0.00    -0.245 OA
ENDBRANCH  13  28
TORSDOF 4
