REMARK  Name = ZINC01372897
REMARK  12 active torsions:
REMARK  status: ('A' for Active; 'I' for Inactive)
REMARK    1  A    between atoms: C_1  and  C_2
REMARK    2  A    between atoms: C_5  and  C_39
REMARK    3  A    between atoms: C_9  and  C_14
REMARK    4  A    between atoms: C_14  and  N_15
REMARK    5  A    between atoms: N_15  and  C_16
REMARK    6  A    between atoms: N_15  and  C_25
REMARK    7  A    between atoms: C_16  and  C_17
REMARK    8  A    between atoms: C_22  and  O_23
REMARK    9  A    between atoms: O_23  and  C_24
REMARK   10  A    between atoms: C_25  and  C_26
REMARK   11  A    between atoms: N_30  and  C_31
REMARK   12  A    between atoms: C_31  and  C_32
REMARK                            x       y       z     vdW  Elec       q    Type
REMARK                         _______ _______ _______ _____ _____    ______ ____
ROOT
ATOM      1  N   UNL     1      -1.340  -0.164   5.853  0.00  0.00    -0.286 NA
ENDROOT
BRANCH   1   2
ATOM      2  C   UNL     1       0.059  -0.538   5.607  0.00  0.00    +0.125 C 
BRANCH   2  11
ATOM      3  C   UNL     1       2.442  -1.333   1.045  0.00  0.00    +0.044 C 
ATOM      4  C   UNL     1       1.639  -2.570   1.352  0.00  0.00    -0.041 A 
ATOM      5  C   UNL     1       1.648  -3.627   0.486  0.00  0.00    +0.004 A 
ATOM      6  C   UNL     1       0.912  -4.771   0.760  0.00  0.00    +0.005 A 
ATOM      7  C   UNL     1       0.159  -4.865   1.911  0.00  0.00    -0.026 A 
ATOM      8  C   UNL     1       0.135  -3.802   2.808  0.00  0.00    +0.052 A 
ATOM      9  C   UNL     1       0.886  -2.645   2.529  0.00  0.00    +0.002 A 
ATOM     10  C   UNL     1       0.858  -1.534   3.482  0.00  0.00    +0.020 A 
ATOM     11  C   UNL     1       0.110  -1.663   4.605  0.00  0.00    +0.031 A 
ATOM     12  C   UNL     1      -0.621  -2.847   4.840  0.00  0.00    +0.254 A 
ATOM     13  O   UNL     1      -1.287  -2.942   5.857  0.00  0.00    -0.268 OA
ATOM     14  N   UNL     1      -0.610  -3.869   3.966  0.00  0.00    -0.322 N 
ATOM     15  H   UNL     1      -1.124  -4.668   4.159  0.00  0.00    +0.169 HD
ATOM     16  C   UNL     1      -0.635  -6.113   2.195  0.00  0.00    +0.046 C 
ENDBRANCH   2  11
ENDBRANCH   1   2
BRANCH   1  17
ATOM     17  C   UNL     1      -1.865   0.663   4.758  0.00  0.00    +0.124 C 
BRANCH  17  18
ATOM     18  C   UNL     1      -2.205  -0.216   3.583  0.00  0.00    +0.008 A 
ATOM     19  C   UNL     1      -1.545  -0.049   2.380  0.00  0.00    +0.008 A 
ATOM     20  C   UNL     1      -1.858  -0.855   1.301  0.00  0.00    +0.001 A 
ATOM     21  C   UNL     1      -2.831  -1.831   1.423  0.00  0.00    +0.004 A 
ATOM     22  C   UNL     1      -3.493  -2.002   2.623  0.00  0.00    +0.046 A 
ATOM     23  C   UNL     1      -3.177  -1.198   3.709  0.00  0.00    +0.124 A 
BRANCH  23  24
ATOM     24  O   UNL     1      -3.824  -1.367   4.892  0.00  0.00    -0.495 OA
ATOM     25  C   UNL     1      -4.737  -2.462   4.981  0.00  0.00    +0.277 C 
ENDBRANCH  23  24
ENDBRANCH  17  18
ENDBRANCH   1  17
BRANCH   1  26
ATOM     26  C   UNL     1      -1.483   0.520   7.145  0.00  0.00    +0.163 C 
BRANCH  26  27
ATOM     27  C   UNL     1      -2.934   0.529   7.551  0.00  0.00    +0.166 A 
ATOM     28  N   UNL     1      -3.842   1.403   7.191  0.00  0.00    -0.112 NA
ATOM     29  N   UNL     1      -4.957   1.069   7.744  0.00  0.00    -0.023 NA
ATOM     30  N   UNL     1      -4.783   0.005   8.447  0.00  0.00    -0.044 NA
ATOM     31  N   UNL     1      -3.550  -0.362   8.350  0.00  0.00    -0.224 N 
BRANCH  31  32
ATOM     32  C   UNL     1      -2.936  -1.528   8.990  0.00  0.00    +0.182 C 
BRANCH  32  33
ATOM     33  C   UNL     1      -2.403  -1.134  10.344  0.00  0.00    -0.026 A 
ATOM     34  C   UNL     1      -1.108  -0.666  10.467  0.00  0.00    +0.008 A 
ATOM     35  C   UNL     1      -0.619  -0.304  11.708  0.00  0.00    +0.038 A 
ATOM     36  C   UNL     1      -1.426  -0.411  12.828  0.00  0.00    +0.123 A 
ATOM     37  C   UNL     1      -2.723  -0.880  12.703  0.00  0.00    +0.038 A 
ATOM     38  C   UNL     1      -3.212  -1.236  11.461  0.00  0.00    +0.008 A 
ATOM     39  F   UNL     1      -0.949  -0.058  14.041  0.00  0.00    -0.205 F 
ENDBRANCH  32  33
ENDBRANCH  31  32
ENDBRANCH  26  27
ENDBRANCH   1  26
TORSDOF 9
