REMARK  Name = ZINC20153747
REMARK  10 active torsions:
REMARK  status: ('A' for Active; 'I' for Inactive)
REMARK    1  A    between atoms: C_1  and  C_2
REMARK    2  A    between atoms: C_5  and  C_23
REMARK    3  A    between atoms: C_7  and  N_8
REMARK    4  A    between atoms: N_8  and  C_9
REMARK    5  A    between atoms: C_9  and  N_11
REMARK    6  A    between atoms: C_12  and  C_14
REMARK    7  A    between atoms: C_14  and  S_15
REMARK    8  A    between atoms: S_15  and  C_16
REMARK    9  A    between atoms: C_26  and  C_28
REMARK   10  A    between atoms: C_28  and  O_29
REMARK                            x       y       z     vdW  Elec       q    Type
REMARK                         _______ _______ _______ _____ _____    ______ ____
ROOT
ATOM      1  N   UNL     1       0.025  -0.008   2.417  0.00  0.00    -0.296 N 
ATOM      2  H   UNL     1       0.490   0.840   2.490  0.00  0.00    +0.154 HD
ENDROOT
BRANCH   1   9
ATOM      3  C   UNL     1      -0.560   1.425   0.033  0.00  0.00    +0.045 C 
ATOM      4  C   UNL     1      -0.245  -0.049   0.017  0.00  0.00    -0.029 A 
ATOM      5  C   UNL     1      -0.231  -0.738  -1.181  0.00  0.00    +0.006 A 
ATOM      6  C   UNL     1       0.057  -2.087  -1.204  0.00  0.00    +0.012 A 
ATOM      7  C   UNL     1       0.335  -2.761  -0.013  0.00  0.00    +0.019 A 
ATOM      8  C   UNL     1       0.320  -2.067   1.196  0.00  0.00    +0.035 A 
ATOM      9  C   UNL     1       0.035  -0.710   1.207  0.00  0.00    +0.036 A 
BRANCH   7  10
ATOM     10  C   UNL     1       0.643  -4.207  -0.035  0.00  0.00    +0.135 A 
ATOM     11  C   UNL     1       0.694  -4.995  -1.141  0.00  0.00    +0.050 A 
ATOM     12  C   UNL     1       1.021  -6.293  -0.699  0.00  0.00    +0.047 A 
ATOM     13  C   UNL     1       1.151  -6.233   0.640  0.00  0.00    +0.131 A 
ATOM     14  O   UNL     1       0.927  -4.970   1.038  0.00  0.00    -0.457 OA
BRANCH  13  15
ATOM     15  C   UNL     1       1.495  -7.390   1.542  0.00  0.00    +0.230 C 
BRANCH  15  16
ATOM     16  O   UNL     1       2.914  -7.475   1.687  0.00  0.00    -0.387 OA
ATOM     17  H   UNL     1       3.209  -8.199   2.256  0.00  0.00    +0.210 HD
ENDBRANCH  15  16
ENDBRANCH  13  15
ENDBRANCH   7  10
ENDBRANCH   1   9
BRANCH   1  18
ATOM     18  C   UNL     1      -0.632  -0.509   3.482  0.00  0.00    +0.141 C 
ATOM     19  S   UNL     1      -1.361  -2.056   3.388  0.00  0.00    -0.018 S 
BRANCH  18  20
ATOM     20  N   UNL     1      -0.716   0.207   4.620  0.00  0.00    -0.267 N 
ATOM     21  C   UNL     1      -1.373  -0.294   5.685  0.00  0.00    +0.229 C 
ATOM     22  O   UNL     1      -1.889  -1.390   5.618  0.00  0.00    -0.275 OA
ATOM     23  H   UNL     1      -0.304   1.083   4.674  0.00  0.00    +0.157 HD
BRANCH  21  24
ATOM     24  C   UNL     1      -1.467   0.506   6.958  0.00  0.00    +0.170 C 
BRANCH  24  25
ATOM     25  S   UNL     1      -2.406  -0.432   8.195  0.00  0.00    -0.116 S 
BRANCH  25  26
ATOM     26  C   UNL     1      -2.426   0.624   9.605  0.00  0.00    +0.008 A 
ATOM     27  C   UNL     1      -1.801   1.864   9.556  0.00  0.00    +0.016 A 
ATOM     28  C   UNL     1      -1.819   2.689  10.663  0.00  0.00    +0.021 A 
ATOM     29  C   UNL     1      -2.459   2.282  11.821  0.00  0.00    +0.041 A 
ATOM     30  C   UNL     1      -3.082   1.047  11.873  0.00  0.00    +0.021 A 
ATOM     31  C   UNL     1      -3.072   0.220  10.768  0.00  0.00    +0.016 A 
ATOM     32 CL   UNL     1      -2.478   3.322  13.211  0.00  0.00    -0.084 Cl
ENDBRANCH  25  26
ENDBRANCH  24  25
ENDBRANCH  21  24
ENDBRANCH  18  20
ENDBRANCH   1  18
TORSDOF 9
