REMARK  Name = ZINC39914331
REMARK  14 active torsions:
REMARK  status: ('A' for Active; 'I' for Inactive)
REMARK    1  A    between atoms: C_1  and  C_2
REMARK    2  A    between atoms: C_2  and  C_3
REMARK    3  A    between atoms: C_3  and  C_4
REMARK    4  A    between atoms: C_4  and  N_5
REMARK    5  A    between atoms: C_6  and  C_25
REMARK    6  A    between atoms: C_9  and  C_16
REMARK    7  A    between atoms: C_19  and  C_23
REMARK    8  A    between atoms: C_21  and  O_22
REMARK    9  A    between atoms: C_27  and  O_35
REMARK   10  A    between atoms: C_28  and  O_33
REMARK   11  A    between atoms: C_29  and  O_31
REMARK   12  A    between atoms: O_31  and  C_32
REMARK   13  A    between atoms: O_33  and  C_34
REMARK   14  A    between atoms: O_35  and  C_36
REMARK                            x       y       z     vdW  Elec       q    Type
REMARK                         _______ _______ _______ _____ _____    ______ ____
ROOT
ATOM      1  N   UNL     1      -2.780  -3.285   0.056  0.00  0.00    -0.285 N 
ATOM      2  C   UNL     1      -3.699  -3.331   1.201  0.00  0.00    +0.141 C 
ATOM      3  C   UNL     1      -5.015  -3.818   0.660  0.00  0.00    +0.035 A 
ATOM      4  C   UNL     1      -6.347  -4.154   0.924  0.00  0.00    +0.102 A 
ATOM      5  N   UNL     1      -6.892  -4.533  -0.215  0.00  0.00    -0.173 NA
ATOM      6  N   UNL     1      -6.036  -4.468  -1.172  0.00  0.00    -0.272 N 
ATOM      7  H   UNL     1      -6.216  -4.699  -2.097  0.00  0.00    +0.189 HD
ATOM      8  C   UNL     1      -4.835  -4.027  -0.694  0.00  0.00    +0.126 A 
ATOM      9  C   UNL     1      -3.451  -3.685  -1.039  0.00  0.00    +0.265 C 
ATOM     10  O   UNL     1      -2.976  -3.756  -2.157  0.00  0.00    -0.268 OA
ENDROOT
BRANCH   4  11
ATOM     11  C   UNL     1      -7.022  -4.097   2.245  0.00  0.00    +0.045 A 
ATOM     12  C   UNL     1      -6.349  -3.587   3.352  0.00  0.00    +0.034 A 
ATOM     13  C   UNL     1      -6.982  -3.535   4.579  0.00  0.00    +0.045 A 
ATOM     14  C   UNL     1      -8.284  -3.989   4.711  0.00  0.00    -0.029 A 
ATOM     15  C   UNL     1      -8.959  -4.496   3.618  0.00  0.00    +0.050 A 
ATOM     16  C   UNL     1      -8.337  -4.548   2.380  0.00  0.00    +0.126 A 
ATOM     17  C   UNL     1      -8.967  -3.929   6.053  0.00  0.00    +0.045 C 
ATOM     18 CL   UNL     1      -6.143  -2.899   5.959  0.00  0.00    -0.083 Cl
BRANCH  16  19
ATOM     19  O   UNL     1      -9.003  -5.043   1.304  0.00  0.00    -0.506 OA
ATOM     20  H   UNL     1      -8.898  -5.996   1.179  0.00  0.00    +0.292 HD
ENDBRANCH  16  19
ENDBRANCH   4  11
BRANCH   2  21
ATOM     21  C   UNL     1      -3.857  -1.955   1.794  0.00  0.00    -0.015 A 
ATOM     22  C   UNL     1      -4.276  -0.905   0.998  0.00  0.00    +0.055 A 
ATOM     23  C   UNL     1      -4.423   0.363   1.540  0.00  0.00    +0.165 A 
ATOM     24  C   UNL     1      -4.149   0.577   2.886  0.00  0.00    +0.204 A 
ATOM     25  C   UNL     1      -3.729  -0.481   3.683  0.00  0.00    +0.165 A 
ATOM     26  C   UNL     1      -3.590  -1.747   3.135  0.00  0.00    +0.055 A 
BRANCH  25  27
ATOM     27  O   UNL     1      -3.460  -0.276   5.000  0.00  0.00    -0.491 OA
ATOM     28  C   UNL     1      -2.916  -1.377   5.730  0.00  0.00    +0.277 C 
ENDBRANCH  25  27
BRANCH  24  29
ATOM     29  O   UNL     1      -4.292   1.820   3.422  0.00  0.00    -0.488 OA
ATOM     30  C   UNL     1      -5.572   2.149   3.965  0.00  0.00    +0.277 C 
ENDBRANCH  24  29
BRANCH  23  31
ATOM     31  O   UNL     1      -4.834   1.395   0.756  0.00  0.00    -0.491 OA
ATOM     32  C   UNL     1      -5.097   1.102  -0.618  0.00  0.00    +0.277 C 
ENDBRANCH  23  31
ENDBRANCH   2  21
BRANCH   1  33
ATOM     33  C   UNL     1      -1.376  -2.868   0.098  0.00  0.00    +0.109 C 
BRANCH  33  34
ATOM     34  C   UNL     1      -1.284  -1.360  -0.143  0.00  0.00    +0.019 C 
BRANCH  34  36
ATOM     35  C   UNL     1       0.274   0.583  -0.340  0.00  0.00    +0.004 C 
ATOM     36  C   UNL     1       0.182  -0.925  -0.099  0.00  0.00    -0.002 C 
ENDBRANCH  34  36
ENDBRANCH  33  34
ENDBRANCH   1  33
TORSDOF 9
