REMARK  Name = ZINC13554610
REMARK  9 active torsions:
REMARK  status: ('A' for Active; 'I' for Inactive)
REMARK    1  A    between atoms: C_1  and  C_2
REMARK    2  A    between atoms: C_2  and  C_4
REMARK    3  A    between atoms: C_2  and  N_15
REMARK    4  A    between atoms: N_6  and  C_7
REMARK    5  A    between atoms: C_7  and  C_8
REMARK    6  A    between atoms: C_8  and  C_9
REMARK    7  A    between atoms: C_16  and  C_18
REMARK    8  A    between atoms: C_20  and  C_33
REMARK    9  A    between atoms: C_20  and  C_34
REMARK                            x       y       z     vdW  Elec       q    Type
REMARK                         _______ _______ _______ _____ _____    ______ ____
ROOT
ATOM      1  N   UNL     1      -7.050   2.803  -0.120  0.00  0.00    -0.303 N 
ATOM      2  C   UNL     1      -5.718   2.863  -0.318  0.00  0.00    +0.236 C 
ATOM      3  O   UNL     1      -5.280   3.081  -1.428  0.00  0.00    -0.274 OA
ATOM      4  H   UNL     1      -7.401   2.629   0.768  0.00  0.00    +0.149 HD
ENDROOT
BRANCH   2   5
ATOM      5  C   UNL     1      -4.774   2.660   0.839  0.00  0.00    +0.179 C 
ATOM      6  C   UNL     1      -4.793   3.933   1.718  0.00  0.00    +0.040 C 
ATOM      7  S   UNL     1      -3.080   4.577   1.473  0.00  0.00    -0.125 S 
ATOM      8  C   UNL     1      -2.676   3.569  -0.004  0.00  0.00    +0.167 C 
ATOM      9  N   UNL     1      -3.449   2.334   0.310  0.00  0.00    -0.269 N 
ATOM     10  C   UNL     1      -2.632   1.299   0.018  0.00  0.00    +0.249 C 
ATOM     11  O   UNL     1      -2.997   0.163  -0.211  0.00  0.00    -0.270 OA
ATOM     12  C   UNL     1      -1.229   1.757   0.017  0.00  0.00    +0.043 A 
ATOM     13  C   UNL     1      -1.232   3.157   0.017  0.00  0.00    -0.005 A 
ATOM     14  C   UNL     1      -0.044   3.851   0.017  0.00  0.00    +0.007 A 
ATOM     15  C   UNL     1       1.159   3.166   0.008  0.00  0.00    +0.000 A 
ATOM     16  C   UNL     1       1.173   1.783   0.000  0.00  0.00    +0.001 A 
ATOM     17  C   UNL     1      -0.013   1.076   0.008  0.00  0.00    +0.013 A 
ATOM     18  C   UNL     1      -5.833   4.934   1.211  0.00  0.00    +0.025 C 
ATOM     19  C   UNL     1      -5.043   3.582   3.186  0.00  0.00    +0.025 C 
ENDBRANCH   2   5
BRANCH   1  21
ATOM     20  C   UNL     1      -8.165   1.674  -1.980  0.00  0.00    +0.038 C 
ATOM     21  C   UNL     1      -7.968   3.000  -1.244  0.00  0.00    +0.156 C 
BRANCH  21  22
ATOM     22  C   UNL     1      -9.296   3.491  -0.729  0.00  0.00    +0.233 C 
ATOM     23  O   UNL     1      -9.460   3.660   0.461  0.00  0.00    -0.274 OA
ATOM     24  N   UNL     1     -10.302   3.743  -1.589  0.00  0.00    -0.313 N 
ATOM     25  H   UNL     1     -10.171   3.608  -2.541  0.00  0.00    +0.149 HD
BRANCH  24  26
ATOM     26  C   UNL     1     -11.593   4.220  -1.088  0.00  0.00    +0.108 C 
BRANCH  26  27
ATOM     27  C   UNL     1     -12.552   4.426  -2.263  0.00  0.00    +0.049 C 
BRANCH  27  28
ATOM     28  C   UNL     1     -13.880   4.917  -1.747  0.00  0.00    -0.072 C 
ATOM     29  C   UNL     1     -14.092   6.194  -1.735  0.00  0.00    -0.028 C 
ATOM     30  C   UNL     1     -15.358   6.832  -1.243  0.00  0.00    +0.027 C 
ATOM     31  C   UNL     1     -16.478   5.792  -1.170  0.00  0.00    +0.004 C 
ATOM     32  C   UNL     1     -15.950   4.562  -0.419  0.00  0.00    +0.005 C 
ATOM     33  C   UNL     1     -14.876   3.895  -1.284  0.00  0.00    +0.030 C 
ENDBRANCH  27  28
ENDBRANCH  26  27
ENDBRANCH  24  26
ENDBRANCH  21  22
ENDBRANCH   1  21
TORSDOF 6
