REMARK  Name = ZINC35041872
REMARK  14 active torsions:
REMARK  status: ('A' for Active; 'I' for Inactive)
REMARK    1  A    between atoms: C_1  and  C_2
REMARK    2  A    between atoms: C_2  and  C_3
REMARK    3  A    between atoms: C_3  and  N_4
REMARK    4  A    between atoms: N_4  and  C_5
REMARK    5  A    between atoms: C_5  and  C_7
REMARK    6  A    between atoms: C_5  and  C_9
REMARK    7  A    between atoms: C_7  and  C_8
REMARK    8  A    between atoms: N_19  and  C_20
REMARK    9  A    between atoms: C_23  and  O_26
REMARK   10  A    between atoms: O_26  and  C_27
REMARK   11  A    between atoms: C_27  and  C_28
REMARK   12  A    between atoms: N_31  and  C_32
REMARK   13  A    between atoms: C_35  and  S_38
REMARK   14  A    between atoms: S_38  and  C_39
REMARK                            x       y       z     vdW  Elec       q    Type
REMARK                         _______ _______ _______ _____ _____    ______ ____
ROOT
ATOM      1  C   UNL     1      -2.631  -2.147   2.006  0.00  0.00    +0.138 A 
ATOM      2  N   UNL     1      -2.683  -0.888   2.321  0.00  0.00    -0.231 NA
ATOM      3  C   UNL     1      -3.577  -0.417   3.225  0.00  0.00    +0.078 A 
ATOM      4  C   UNL     1      -3.633   0.937   3.563  0.00  0.00    +0.028 A 
ATOM      5  C   UNL     1      -4.558   1.371   4.486  0.00  0.00    +0.002 A 
ATOM      6  C   UNL     1      -5.437   0.480   5.086  0.00  0.00    +0.001 A 
ATOM      7  C   UNL     1      -5.402  -0.860   4.769  0.00  0.00    +0.015 A 
ATOM      8  C   UNL     1      -4.473  -1.321   3.837  0.00  0.00    +0.065 A 
ATOM      9  C   UNL     1      -4.390  -2.739   3.459  0.00  0.00    +0.266 A 
ATOM     10  O   UNL     1      -5.133  -3.569   3.950  0.00  0.00    -0.267 OA
ATOM     11  N   UNL     1      -3.458  -3.085   2.541  0.00  0.00    -0.263 N 
ENDROOT
BRANCH  11  12
ATOM     12  C   UNL     1      -3.339  -4.424   2.142  0.00  0.00    +0.051 A 
ATOM     13  C   UNL     1      -2.275  -5.192   2.595  0.00  0.00    +0.030 A 
ATOM     14  C   UNL     1      -2.159  -6.510   2.201  0.00  0.00    +0.047 A 
ATOM     15  C   UNL     1      -3.106  -7.067   1.353  0.00  0.00    +0.121 A 
ATOM     16  C   UNL     1      -4.169  -6.300   0.900  0.00  0.00    +0.047 A 
ATOM     17  C   UNL     1      -4.290  -4.983   1.298  0.00  0.00    +0.030 A 
BRANCH  15  18
ATOM     18  O   UNL     1      -2.991  -8.365   0.965  0.00  0.00    -0.492 OA
BRANCH  18  19
ATOM     19  C   UNL     1      -4.001  -8.873   0.091  0.00  0.00    +0.225 C 
ATOM     20  C   UNL     1      -3.705 -10.338  -0.233  0.00  0.00    +0.048 C 
ENDBRANCH  18  19
ENDBRANCH  15  18
ENDBRANCH  11  12
BRANCH   1  21
ATOM     21  C   UNL     1      -1.608  -2.589   0.992  0.00  0.00    +0.144 C 
BRANCH  21  22
ATOM     22  N   UNL     1      -1.928  -2.003  -0.312  0.00  0.00    -0.275 N 
ATOM     23  C   UNL     1      -2.179  -2.803  -1.367  0.00  0.00    +0.307 C 
ATOM     24  O   UNL     1      -2.139  -4.011  -1.237  0.00  0.00    -0.252 OA
ATOM     25  N   UNL     1      -2.473  -2.264  -2.567  0.00  0.00    -0.269 N 
ATOM     26  H   UNL     1      -2.559  -1.302  -2.658  0.00  0.00    +0.156 HD
BRANCH  25  27
ATOM     27  C   UNL     1      -2.654  -3.093  -3.683  0.00  0.00    +0.035 A 
ATOM     28  C   UNL     1      -3.257  -4.335  -3.534  0.00  0.00    +0.024 A 
ATOM     29  C   UNL     1      -3.436  -5.151  -4.633  0.00  0.00    +0.016 A 
ATOM     30  C   UNL     1      -3.012  -4.730  -5.887  0.00  0.00    +0.008 A 
ATOM     31  C   UNL     1      -2.408  -3.487  -6.035  0.00  0.00    +0.016 A 
ATOM     32  C   UNL     1      -2.235  -2.669  -4.937  0.00  0.00    +0.024 A 
BRANCH  30  33
ATOM     33  S   UNL     1      -3.239  -5.772  -7.290  0.00  0.00    -0.129 S 
ATOM     34  C   UNL     1      -2.545  -4.815  -8.665  0.00  0.00    +0.090 C 
ENDBRANCH  30  33
ENDBRANCH  25  27
BRANCH  22  35
ATOM     35  C   UNL     1      -1.975  -0.547  -0.469  0.00  0.00    +0.110 C 
BRANCH  35  37
ATOM     36  C   UNL     1      -0.639   1.489  -1.027  0.00  0.00    +0.005 C 
ATOM     37  C   UNL     1      -0.590  -0.031  -0.863  0.00  0.00    +0.016 C 
ENDBRANCH  35  37
ENDBRANCH  22  35
ENDBRANCH  21  22
BRANCH  21  38
ATOM     38  C   UNL     1      -0.219  -2.124   1.433  0.00  0.00    +0.027 C 
ATOM     39  C   UNL     1       0.832  -2.661   0.459  0.00  0.00    +0.006 C 
ENDBRANCH  21  38
ENDBRANCH   1  21
TORSDOF 10
