REMARK  Name = ZINC08830322
REMARK  6 active torsions:
REMARK  status: ('A' for Active; 'I' for Inactive)
REMARK    1  A    between atoms: C_6  and  C_7
REMARK    2  A    between atoms: C_7  and  N_8
REMARK    3  A    between atoms: N_10  and  C_11
REMARK    4  A    between atoms: C_11  and  C_12
REMARK    5  A    between atoms: C_15  and  S_18
REMARK    6  A    between atoms: S_18  and  N_21
REMARK                            x       y       z     vdW  Elec       q    Type
REMARK                         _______ _______ _______ _____ _____    ______ ____
ROOT
ATOM      1  N   UNL     1      -1.726  -1.017  -1.368  0.00  0.00    -0.321 N 
ATOM      2  C   UNL     1      -2.883  -1.703  -1.610  0.00  0.00    +0.139 C 
ATOM      3  N   UNL     1      -3.287  -1.929  -2.895  0.00  0.00    -0.363 N 
ATOM      4  S   UNL     1      -3.797  -2.262  -0.342  0.00  0.00    -0.016 SA
ATOM      5  H   UNL     1      -1.192  -0.691  -2.108  0.00  0.00    +0.148 HD
ATOM      6  H   UNL     1      -2.752  -1.603  -3.636  0.00  0.00    +0.162 HD
ENDROOT
BRANCH   1   7
ATOM      7  C   UNL     1      -1.293  -0.775   0.011  0.00  0.00    +0.138 C 
BRANCH   7  13
ATOM      8  C   UNL     1      -0.017   1.378   0.010  0.00  0.00    +0.006 A 
ATOM      9  C   UNL     1       1.171   2.086   0.002  0.00  0.00    +0.020 A 
ATOM     10  C   UNL     1       2.378   1.410  -0.013  0.00  0.00    +0.041 A 
ATOM     11  C   UNL     1       2.396   0.027  -0.021  0.00  0.00    +0.020 A 
ATOM     12  C   UNL     1       1.208  -0.679  -0.013  0.00  0.00    +0.006 A 
ATOM     13  C   UNL     1       0.002  -0.004   0.002  0.00  0.00    -0.030 A 
ATOM     14 CL   UNL     1       3.870   2.298  -0.023  0.00  0.00    -0.084 Cl
ENDBRANCH   7  13
ENDBRANCH   1   7
BRANCH   3  15
ATOM     15  C   UNL     1      -4.527  -2.665  -3.154  0.00  0.00    +0.150 C 
BRANCH  15  16
ATOM     16  C   UNL     1      -4.743  -2.776  -4.641  0.00  0.00    -0.028 A 
ATOM     17  C   UNL     1      -5.450  -1.796  -5.313  0.00  0.00    +0.007 A 
ATOM     18  C   UNL     1      -5.648  -1.899  -6.677  0.00  0.00    +0.029 A 
ATOM     19  C   UNL     1      -5.139  -2.981  -7.370  0.00  0.00    +0.105 A 
ATOM     20  C   UNL     1      -4.432  -3.961  -6.699  0.00  0.00    +0.029 A 
ATOM     21  C   UNL     1      -4.230  -3.856  -5.335  0.00  0.00    +0.007 A 
BRANCH  19  22
ATOM     22  S   UNL     1      -5.393  -3.113  -9.109  0.00  0.00    +0.056 S 
ATOM     23  O   UNL     1      -5.286  -4.492  -9.432  0.00  0.00    -0.153 OA
ATOM     24  O   UNL     1      -6.551  -2.347  -9.409  0.00  0.00    -0.153 OA
BRANCH  22  25
ATOM     25  N   UNL     1      -4.120  -2.354  -9.848  0.00  0.00    -0.204 NA
ATOM     26  H   UNL     1      -3.420  -1.947  -9.313  0.00  0.00    +0.144 HD
ATOM     27  H   UNL     1      -4.073  -2.317 -10.816  0.00  0.00    +0.144 HD
ENDBRANCH  22  25
ENDBRANCH  19  22
ENDBRANCH  15  16
ENDBRANCH   3  15
TORSDOF 6
