REMARK  Name = ZINC36246129
REMARK  13 active torsions:
REMARK  status: ('A' for Active; 'I' for Inactive)
REMARK    1  A    between atoms: C_2  and  C_3
REMARK    2  A    between atoms: C_3  and  O_4
REMARK    3  A    between atoms: O_4  and  C_5
REMARK    4  A    between atoms: C_5  and  C_6
REMARK    5  A    between atoms: C_6  and  C_8
REMARK    6  A    between atoms: C_6  and  O_39
REMARK    7  A    between atoms: C_8  and  N_9
REMARK    8  A    between atoms: N_9  and  C_10
REMARK    9  A    between atoms: N_9  and  C_32
REMARK   10  A    between atoms: C_10  and  C_11
REMARK   11  A    between atoms: C_12  and  C_26
REMARK   12  A    between atoms: C_15  and  N_16
REMARK   13  A    between atoms: C_32  and  C_33
REMARK                            x       y       z     vdW  Elec       q    Type
REMARK                         _______ _______ _______ _____ _____    ______ ____
ROOT
ATOM      1  C   UNL     1       6.544   7.030  -0.203  0.00  0.00    +0.025 A 
ATOM      2  C   UNL     1       7.399   7.083   0.918  0.00  0.00    +0.117 A 
ATOM      3  N   UNL     1       8.588   7.451   0.503  0.00  0.00    -0.076 NA
ATOM      4  O   UNL     1       8.523   7.643  -0.898  0.00  0.00    -0.339 OA
ATOM      5  C   UNL     1       7.268   7.374  -1.298  0.00  0.00    +0.223 A 
ENDROOT
BRANCH   5   6
ATOM      6  N   UNL     1       6.797   7.440  -2.596  0.00  0.00    -0.295 N 
ATOM      7  C   UNL     1       6.279   8.697  -3.160  0.00  0.00    +0.113 C 
ATOM      8  C   UNL     1       7.198   9.111  -4.308  0.00  0.00    +0.054 C 
ATOM      9  C   UNL     1       7.471   7.947  -5.223  0.00  0.00    -0.041 A 
ATOM     10  C   UNL     1       7.915   8.229  -6.510  0.00  0.00    +0.004 A 
ATOM     11  C   UNL     1       8.192   7.209  -7.396  0.00  0.00    +0.000 A 
ATOM     12  C   UNL     1       8.030   5.893  -7.002  0.00  0.00    +0.000 A 
ATOM     13  C   UNL     1       7.586   5.611  -5.727  0.00  0.00    +0.005 A 
ATOM     14  C   UNL     1       7.301   6.637  -4.837  0.00  0.00    -0.027 A 
ATOM     15  C   UNL     1       6.800   6.261  -3.469  0.00  0.00    +0.143 C 
ENDBRANCH   5   6
BRANCH   2  16
ATOM     16  C   UNL     1       7.019   6.776   2.320  0.00  0.00    +0.004 A 
ATOM     17  C   UNL     1       5.810   7.239   2.834  0.00  0.00    +0.010 A 
ATOM     18  C   UNL     1       5.462   6.951   4.138  0.00  0.00    +0.001 A 
ATOM     19  C   UNL     1       6.311   6.204   4.934  0.00  0.00    +0.000 A 
ATOM     20  C   UNL     1       7.513   5.742   4.429  0.00  0.00    +0.001 A 
ATOM     21  C   UNL     1       7.868   6.020   3.125  0.00  0.00    +0.010 A 
ENDBRANCH   2  16
BRANCH   1  22
ATOM     22  C   UNL     1       5.085   6.652  -0.189  0.00  0.00    -0.035 C 
BRANCH  22  23
ATOM     23  N   UNL     1       4.944   5.231  -0.533  0.00  0.00    +0.386 N 
ATOM     24  H   UNL     1       5.390   5.054  -1.421  0.00  0.00    -0.081 HD
BRANCH  23  25
ATOM     25  C   UNL     1       5.580   4.410   0.505  0.00  0.00    -0.044 C 
BRANCH  25  26
ATOM     26  C   UNL     1       5.587   2.945   0.064  0.00  0.00    +0.124 C 
BRANCH  26  27
ATOM     27  O   UNL     1       4.249   2.445   0.049  0.00  0.00    -0.391 OA
ATOM     28  H   UNL     1       3.806   2.482   0.908  0.00  0.00    +0.210 HD
ENDBRANCH  26  27
BRANCH  26  29
ATOM     29  C   UNL     1       6.429   2.122   1.042  0.00  0.00    +0.190 C 
BRANCH  29  30
ATOM     30  O   UNL     1       6.532   0.778   0.567  0.00  0.00    -0.365 OA
BRANCH  30  31
ATOM     31  C   UNL     1       7.302  -0.080   1.412  0.00  0.00    +0.248 C 
BRANCH  31  33
ATOM     32  C   UNL     1       7.376  -2.511   0.369  0.00  0.00    +0.006 C 
ATOM     33  C   UNL     1       7.343  -1.432   0.832  0.00  0.00    -0.077 C 
ENDBRANCH  31  33
ENDBRANCH  30  31
ENDBRANCH  29  30
ENDBRANCH  26  29
ENDBRANCH  25  26
ENDBRANCH  23  25
BRANCH  23  34
ATOM     34  C   UNL     1       3.519   4.888  -0.625  0.00  0.00    -0.046 C 
BRANCH  34  35
ATOM     35  C   UNL     1       2.869   5.704  -1.743  0.00  0.00    +0.102 C 
ATOM     36  C   UNL     1       1.361   5.381  -1.819  0.00  0.00    +0.032 C 
ATOM     37  C   UNL     1       1.104   5.363  -3.350  0.00  0.00    +0.030 C 
ATOM     38  C   UNL     1       2.449   4.792  -3.867  0.00  0.00    +0.160 C 
ATOM     39  O   UNL     1       3.452   5.353  -3.003  0.00  0.00    -0.378 OA
ENDBRANCH  34  35
ENDBRANCH  23  34
ENDBRANCH  22  23
ENDBRANCH   1  22
TORSDOF 13
