REMARK  Name = ZINC36005499
REMARK  15 active torsions:
REMARK  status: ('A' for Active; 'I' for Inactive)
REMARK    1  A    between atoms: C_1  and  C_2
REMARK    2  A    between atoms: C_2  and  N_3
REMARK    3  A    between atoms: C_4  and  C_24
REMARK    4  A    between atoms: C_5  and  C_19
REMARK    5  A    between atoms: C_6  and  C_11
REMARK    6  A    between atoms: C_14  and  O_17
REMARK    7  A    between atoms: O_17  and  C_18
REMARK    8  A    between atoms: C_19  and  O_21
REMARK    9  A    between atoms: O_21  and  C_22
REMARK   10  A    between atoms: C_22  and  C_23
REMARK   11  A    between atoms: C_24  and  N_25
REMARK   12  A    between atoms: N_34  and  C_35
REMARK   13  A    between atoms: C_35  and  C_36
REMARK   14  A    between atoms: C_35  and  C_37
REMARK   15  A    between atoms: C_35  and  C_38
REMARK                            x       y       z     vdW  Elec       q    Type
REMARK                         _______ _______ _______ _____ _____    ______ ____
ROOT
ATOM      1  N   UNL     1       1.494  -0.258  -2.071  0.00  0.00    -0.261 N 
ATOM      2  C   UNL     1       0.511  -0.678  -2.921  0.00  0.00    +0.010 C 
ATOM      3  C   UNL     1       0.805  -1.403  -4.021  0.00  0.00    +0.076 C 
ATOM      4  C   UNL     1       2.261  -1.734  -4.281  0.00  0.00    +0.143 C 
ATOM      5  N   UNL     1       3.243  -1.233  -3.305  0.00  0.00    -0.288 N 
ATOM      6  C   UNL     1       2.795  -0.517  -2.254  0.00  0.00    +0.307 C 
ATOM      7  O   UNL     1       3.598  -0.096  -1.445  0.00  0.00    -0.252 OA
ATOM      8  H   UNL     1       4.190  -1.412  -3.416  0.00  0.00    +0.151 HD
ENDROOT
BRANCH   4   9
ATOM      9  C   UNL     1       2.393  -3.233  -4.345  0.00  0.00    -0.022 A 
ATOM     10  C   UNL     1       2.443  -3.972  -3.177  0.00  0.00    +0.009 A 
ATOM     11  C   UNL     1       2.565  -5.347  -3.232  0.00  0.00    +0.046 A 
ATOM     12  C   UNL     1       2.635  -5.987  -4.461  0.00  0.00    +0.120 A 
ATOM     13  C   UNL     1       2.584  -5.244  -5.631  0.00  0.00    +0.046 A 
ATOM     14  C   UNL     1       2.457  -3.869  -5.571  0.00  0.00    +0.009 A 
BRANCH  12  15
ATOM     15  O   UNL     1       2.755  -7.339  -4.518  0.00  0.00    -0.495 OA
ATOM     16  C   UNL     1       2.822  -7.930  -5.817  0.00  0.00    +0.277 C 
ENDBRANCH  12  15
ENDBRANCH   4   9
BRANCH   1  18
ATOM     17  C   UNL     1       1.082   2.011  -1.258  0.00  0.00    +0.025 C 
ATOM     18  C   UNL     1       1.104   0.525  -0.896  0.00  0.00    +0.111 C 
ENDBRANCH   1  18
BRANCH   3  19
ATOM     19  C   UNL     1      -0.212  -1.840  -4.902  0.00  0.00    +0.339 C 
ATOM     20  O   UNL     1      -1.369  -1.522  -4.701  0.00  0.00    -0.245 OA
BRANCH  19  21
ATOM     21  O   UNL     1       0.100  -2.610  -5.965  0.00  0.00    -0.462 OA
BRANCH  21  22
ATOM     22  C   UNL     1      -0.977  -3.015  -6.812  0.00  0.00    +0.229 C 
ATOM     23  C   UNL     1      -0.432  -3.875  -7.955  0.00  0.00    +0.048 C 
ENDBRANCH  21  22
ENDBRANCH  19  21
ENDBRANCH   3  19
BRANCH   2  24
ATOM     24  C   UNL     1      -0.924  -0.328  -2.625  0.00  0.00    -0.026 C 
BRANCH  24  25
ATOM     25  N   UNL     1      -1.595  -1.483  -2.014  0.00  0.00    +0.384 N 
ATOM     26  C   UNL     1      -3.031  -1.219  -1.983  0.00  0.00    -0.077 C 
ATOM     27  C   UNL     1      -3.782  -2.530  -2.066  0.00  0.00    +0.000 C 
ATOM     28  C   UNL     1      -4.099  -3.029  -0.645  0.00  0.00    +0.107 C 
ATOM     29  N   UNL     1      -2.963  -2.790   0.268  0.00  0.00    -0.287 N 
ATOM     30  C   UNL     1      -1.589  -3.014  -0.129  0.00  0.00    +0.091 C 
ATOM     31  C   UNL     1      -1.006  -1.725  -0.753  0.00  0.00    -0.059 C 
ATOM     32  C   UNL     1      -3.215  -2.346   1.516  0.00  0.00    +0.303 C 
ATOM     33  O   UNL     1      -4.362  -2.235   1.902  0.00  0.00    -0.253 OA
ATOM     34  N   UNL     1      -2.194  -2.027   2.336  0.00  0.00    -0.294 N 
ATOM     35  H   UNL     1      -1.282  -2.046   2.006  0.00  0.00    +0.151 HD
ATOM     36  H   UNL     1      -1.434  -2.289  -2.600  0.00  0.00    -0.081 HD
BRANCH  34  37
ATOM     37  C   UNL     1      -2.462  -1.650   3.726  0.00  0.00    +0.028 C 
ATOM     38  C   UNL     1      -3.163  -2.806   4.442  0.00  0.00    +0.031 C 
ATOM     39  C   UNL     1      -1.142  -1.338   4.434  0.00  0.00    +0.031 C 
ATOM     40  C   UNL     1      -3.361  -0.412   3.755  0.00  0.00    +0.031 C 
ENDBRANCH  34  37
ENDBRANCH  24  25
ENDBRANCH   2  24
TORSDOF 9
