REMARK  Name = ZINC55282979
REMARK  8 active torsions:
REMARK  status: ('A' for Active; 'I' for Inactive)
REMARK    1  A    between atoms: C_7  and  C_15
REMARK    2  A    between atoms: N_9  and  C_10
REMARK    3  A    between atoms: C_10  and  C_11
REMARK    4  A    between atoms: C_11  and  C_12
REMARK    5  A    between atoms: C_15  and  N_16
REMARK    6  A    between atoms: N_16  and  C_17
REMARK    7  A    between atoms: C_17  and  C_18
REMARK    8  A    between atoms: C_18  and  C_19
REMARK                            x       y       z     vdW  Elec       q    Type
REMARK                         _______ _______ _______ _____ _____    ______ ____
ROOT
ATOM      1  C   UNL     1      -0.017   1.362   0.009  0.00  0.00    +0.001 A 
ATOM      2  C   UNL     1       1.170   2.083   0.002  0.00  0.00    +0.002 A 
ATOM      3  C   UNL     1       2.386   1.436  -0.013  0.00  0.00    +0.026 A 
ATOM      4  C   UNL     1       2.428   0.046  -0.021  0.00  0.00    +0.049 A 
ATOM      5  C   UNL     1       1.223  -0.681  -0.013  0.00  0.00    +0.001 A 
ATOM      6  C   UNL     1       0.002  -0.004   0.002  0.00  0.00    +0.010 A 
ATOM      7  C   UNL     1       1.604  -2.095  -0.025  0.00  0.00    -0.039 A 
ATOM      8  C   UNL     1       2.945  -2.141  -0.038  0.00  0.00    +0.088 A 
ATOM      9  N   UNL     1       3.455  -0.871  -0.036  0.00  0.00    -0.346 N 
ENDROOT
BRANCH   9  10
ATOM     10  C   UNL     1       4.881  -0.537  -0.048  0.00  0.00    +0.131 C 
BRANCH  10  11
ATOM     11  C   UNL     1       5.363  -0.307   1.386  0.00  0.00    +0.117 C 
BRANCH  11  12
ATOM     12  C   UNL     1       6.830   0.037   1.373  0.00  0.00    +0.212 C 
ATOM     13  O   UNL     1       7.432   0.092   0.321  0.00  0.00    -0.276 OA
ATOM     14  N   UNL     1       7.475   0.283   2.531  0.00  0.00    -0.329 N 
ATOM     15  H   UNL     1       6.994   0.239   3.373  0.00  0.00    +0.145 HD
ATOM     16  H   UNL     1       8.419   0.504   2.523  0.00  0.00    +0.145 HD
ENDBRANCH  11  12
ENDBRANCH  10  11
ENDBRANCH   9  10
BRANCH   7  17
ATOM     17  C   UNL     1       0.666  -3.275  -0.021  0.00  0.00    -0.045 C 
BRANCH  17  18
ATOM     18  N   UNL     1       0.160  -3.502  -1.381  0.00  0.00    +0.382 N 
ATOM     19  H   UNL     1      -0.335  -2.681  -1.697  0.00  0.00    -0.085 HD
ATOM     20  H   UNL     1       0.933  -3.689  -2.002  0.00  0.00    -0.085 HD
BRANCH  18  21
ATOM     21  C   UNL     1      -0.754  -4.653  -1.378  0.00  0.00    -0.074 C 
BRANCH  21  22
ATOM     22  C   UNL     1      -1.282  -4.889  -2.794  0.00  0.00    +0.055 C 
BRANCH  22  23
ATOM     23  C   UNL     1      -2.219  -6.069  -2.791  0.00  0.00    +0.106 A 
ATOM     24  N   UNL     1      -3.498  -6.050  -3.254  0.00  0.00    -0.342 N 
ATOM     25  H   UNL     1      -3.959  -5.287  -3.638  0.00  0.00    +0.167 HD
ATOM     26  C   UNL     1      -4.018  -7.316  -3.076  0.00  0.00    +0.066 A 
ATOM     27  C   UNL     1      -5.246  -7.904  -3.347  0.00  0.00    +0.028 A 
ATOM     28  C   UNL     1      -5.451  -9.232  -3.039  0.00  0.00    +0.002 A 
ATOM     29  C   UNL     1      -4.438  -9.984  -2.461  0.00  0.00    +0.002 A 
ATOM     30  C   UNL     1      -3.223  -9.422  -2.187  0.00  0.00    +0.030 A 
ATOM     31  C   UNL     1      -2.993  -8.078  -2.491  0.00  0.00    +0.089 A 
ATOM     32  N   UNL     1      -1.921  -7.256  -2.350  0.00  0.00    -0.233 NA
ENDBRANCH  22  23
ENDBRANCH  21  22
ENDBRANCH  18  21
ENDBRANCH  17  18
ENDBRANCH   7  17
TORSDOF 8
