REMARK  Name = ZINC44452608
REMARK  3 active torsions:
REMARK  status: ('A' for Active; 'I' for Inactive)
REMARK    1  A    between atoms: C_4  and  C_7
REMARK    2  A    between atoms: N_9  and  C_10
REMARK    3  A    between atoms: C_11  and  C_18
REMARK                            x       y       z     vdW  Elec       q    Type
REMARK                         _______ _______ _______ _____ _____    ______ ____
ROOT
ATOM      1  C   UNL     1       3.647  -2.223  -3.870  0.00  0.00    +0.084 A 
ATOM      2  C   UNL     1       3.875  -3.530  -4.261  0.00  0.00    +0.069 A 
ATOM      3  C   UNL     1       4.590  -3.736  -5.520  0.00  0.00    -0.023 A 
ATOM      4  C   UNL     1       4.941  -2.598  -6.145  0.00  0.00    -0.004 A 
ATOM      5  S   UNL     1       4.329  -1.304  -5.096  0.00  0.00    -0.077 S 
ATOM      6  C   UNL     1       5.676  -2.867  -7.430  0.00  0.00    +0.043 C 
ATOM      7  C   UNL     1       6.121  -4.342  -7.324  0.00  0.00    +0.010 C 
ATOM      8  C   UNL     1       5.067  -4.921  -6.358  0.00  0.00    +0.037 C 
ENDROOT
BRANCH   2   9
ATOM      9  C   UNL     1       3.420  -4.661  -3.449  0.00  0.00    +0.254 C 
ATOM     10  O   UNL     1       2.315  -5.135  -3.631  0.00  0.00    -0.270 OA
ATOM     11  N   UNL     1       4.226  -5.175  -2.499  0.00  0.00    -0.236 N 
ATOM     12  C   UNL     1       3.808  -6.215  -1.751  0.00  0.00    +0.304 C 
ATOM     13  O   UNL     1       2.703  -6.689  -1.933  0.00  0.00    -0.253 OA
ATOM     14  N   UNL     1       4.614  -6.730  -0.801  0.00  0.00    -0.313 N 
ATOM     15  H   UNL     1       5.108  -4.797  -2.354  0.00  0.00    +0.159 HD
ATOM     16  H   UNL     1       5.495  -6.352  -0.656  0.00  0.00    +0.146 HD
ATOM     17  H   UNL     1       4.313  -7.479  -0.263  0.00  0.00    +0.146 HD
ENDBRANCH   2   9
BRANCH   1  20
ATOM     18  C   UNL     1       2.859  -0.454  -2.507  0.00  0.00    +0.221 C 
ATOM     19  O   UNL     1       3.301   0.345  -3.306  0.00  0.00    -0.275 OA
ATOM     20  N   UNL     1       2.998  -1.776  -2.729  0.00  0.00    -0.279 N 
ATOM     21  H   UNL     1       2.644  -2.415  -2.091  0.00  0.00    +0.155 HD
BRANCH  18  25
ATOM     22  C   UNL     1      -0.019   1.526   0.010  0.00  0.00    +0.000 C 
ATOM     23  C   UNL     1       1.417   2.055  -0.000  0.00  0.00    +0.001 C 
ATOM     24  C   UNL     1       2.133   1.562  -1.259  0.00  0.00    +0.013 C 
ATOM     25  C   UNL     1       2.154   0.032  -1.268  0.00  0.00    +0.075 C 
ATOM     26  C   UNL     1       0.718  -0.497  -1.257  0.00  0.00    +0.013 C 
ATOM     27  C   UNL     1       0.002  -0.004   0.002  0.00  0.00    +0.001 C 
ENDBRANCH  18  25
ENDBRANCH   1  20
TORSDOF 3
