REMARK  Name = ZINC01222215
REMARK  7 active torsions:
REMARK  status: ('A' for Active; 'I' for Inactive)
REMARK    1  A    between atoms: C_4  and  C_7
REMARK    2  A    between atoms: C_7  and  C_8
REMARK    3  A    between atoms: C_8  and  N_9
REMARK    4  A    between atoms: N_9  and  C_10
REMARK    5  A    between atoms: N_9  and  S_27
REMARK    6  A    between atoms: C_10  and  C_11
REMARK    7  A    between atoms: S_27  and  C_30
REMARK                            x       y       z     vdW  Elec       q    Type
REMARK                         _______ _______ _______ _____ _____    ______ ____
ROOT
ATOM      1  N   UNL     1       4.113  -1.260  -1.533  0.00  0.00    -0.172 NA
ENDROOT
BRANCH   1   2
ATOM      2  S   UNL     1       3.871  -1.266   0.106  0.00  0.00    +0.061 S 
ATOM      3  O   UNL     1       4.981  -0.592   0.683  0.00  0.00    -0.153 OA
ATOM      4  O   UNL     1       3.520  -2.597   0.459  0.00  0.00    -0.153 OA
BRANCH   2   5
ATOM      5  C   UNL     1       2.454  -0.270   0.426  0.00  0.00    +0.109 A 
ATOM      6  C   UNL     1       1.189  -0.822   0.345  0.00  0.00    +0.032 A 
ATOM      7  C   UNL     1       0.075  -0.043   0.594  0.00  0.00    +0.051 A 
ATOM      8  C   UNL     1       0.223   1.296   0.926  0.00  0.00    +0.162 A 
ATOM      9  C   UNL     1       1.495   1.850   1.012  0.00  0.00    +0.164 A 
ATOM     10  C   UNL     1       2.609   1.063   0.759  0.00  0.00    +0.078 A 
ATOM     11  O   UNL     1       1.663   3.159   1.345  0.00  0.00    -0.485 OA
ATOM     12  C   UNL     1       0.516   4.006   1.224  0.00  0.00    +0.270 C 
ATOM     13  C   UNL     1      -0.682   3.287   1.858  0.00  0.00    +0.270 C 
ATOM     14  O   UNL     1      -0.883   2.053   1.160  0.00  0.00    -0.485 OA
ENDBRANCH   2   5
ENDBRANCH   1   2
BRANCH   1  15
ATOM     15  C   UNL     1       5.047  -0.304  -2.131  0.00  0.00    +0.114 C 
BRANCH  15  16
ATOM     16  C   UNL     1       6.437  -0.937  -2.221  0.00  0.00    +0.052 C 
BRANCH  16  20
ATOM     17  C   UNL     1       9.237   1.968  -3.626  0.00  0.00    +0.000 A 
ATOM     18  C   UNL     1       9.007   1.828  -2.270  0.00  0.00    +0.000 A 
ATOM     19  C   UNL     1       8.101   0.889  -1.815  0.00  0.00    +0.003 A 
ATOM     20  C   UNL     1       7.425   0.088  -2.717  0.00  0.00    -0.046 A 
ATOM     21  C   UNL     1       7.659   0.223  -4.072  0.00  0.00    +0.003 A 
ATOM     22  C   UNL     1       8.561   1.167  -4.528  0.00  0.00    +0.000 A 
ENDBRANCH  16  20
ENDBRANCH  15  16
ENDBRANCH   1  15
BRANCH   1  23
ATOM     23  C   UNL     1       3.393  -2.211  -2.383  0.00  0.00    +0.150 C 
BRANCH  23  24
ATOM     24  C   UNL     1       4.298  -3.368  -2.721  0.00  0.00    +0.033 A 
ATOM     25  C   UNL     1       4.277  -4.489  -1.954  0.00  0.00    +0.020 A 
ATOM     26  C   UNL     1       5.167  -5.594  -2.308  0.00  0.00    +0.003 A 
ATOM     27  C   UNL     1       5.189  -6.773  -1.554  0.00  0.00    +0.059 A 
ATOM     28  C   UNL     1       6.041  -7.798  -1.909  0.00  0.00    +0.163 A 
ATOM     29  C   UNL     1       6.879  -7.663  -3.020  0.00  0.00    +0.164 A 
ATOM     30  C   UNL     1       6.862  -6.501  -3.773  0.00  0.00    +0.075 A 
ATOM     31  C   UNL     1       6.012  -5.459  -3.427  0.00  0.00    +0.053 A 
ATOM     32  N   UNL     1       5.983  -4.293  -4.165  0.00  0.00    -0.322 N 
ATOM     33  H   UNL     1       6.586  -4.197  -4.957  0.00  0.00    +0.169 HD
ATOM     34  C   UNL     1       5.158  -3.285  -3.834  0.00  0.00    +0.254 A 
ATOM     35  O   UNL     1       5.157  -2.272  -4.512  0.00  0.00    -0.268 OA
ATOM     36  O   UNL     1       7.719  -8.670  -3.380  0.00  0.00    -0.485 OA
ATOM     37  C   UNL     1       7.986  -9.671  -2.392  0.00  0.00    +0.270 C 
ATOM     38  C   UNL     1       6.651 -10.092  -1.762  0.00  0.00    +0.270 C 
ATOM     39  O   UNL     1       6.055  -8.937  -1.162  0.00  0.00    -0.485 OA
ENDBRANCH  23  24
ENDBRANCH   1  23
TORSDOF 7
