REMARK  Name = ZINC06634146
REMARK  8 active torsions:
REMARK  status: ('A' for Active; 'I' for Inactive)
REMARK    1  A    between atoms: C_1  and  C_2
REMARK    2  A    between atoms: C_2  and  C_28
REMARK    3  A    between atoms: C_4  and  N_5
REMARK    4  A    between atoms: N_5  and  N_6
REMARK    5  A    between atoms: C_7  and  C_9
REMARK    6  A    between atoms: C_12  and  N_15
REMARK    7  A    between atoms: C_16  and  C_18
REMARK    8  A    between atoms: C_25  and  O_26
REMARK                            x       y       z     vdW  Elec       q    Type
REMARK                         _______ _______ _______ _____ _____    ______ ____
ROOT
ATOM      1  N   UNL     1      -4.009  -1.431  -0.073  0.00  0.00    -0.232 N 
ATOM      2  C   UNL     1      -5.273  -1.898  -0.064  0.00  0.00    +0.260 C 
ATOM      3  O   UNL     1      -5.509  -3.006   0.378  0.00  0.00    -0.269 OA
ATOM      4  H   UNL     1      -3.821  -0.547  -0.425  0.00  0.00    +0.173 HD
ENDROOT
BRANCH   2   5
ATOM      5  C   UNL     1      -6.372  -1.064  -0.591  0.00  0.00    +0.038 A 
ATOM      6  C   UNL     1      -6.101   0.207  -1.104  0.00  0.00    +0.015 A 
ATOM      7  C   UNL     1      -7.128   0.982  -1.595  0.00  0.00    +0.024 A 
ATOM      8  C   UNL     1      -8.433   0.500  -1.581  0.00  0.00    +0.033 A 
ATOM      9  C   UNL     1      -8.706  -0.765  -1.070  0.00  0.00    +0.024 A 
ATOM     10  C   UNL     1      -7.683  -1.547  -0.583  0.00  0.00    +0.015 A 
BRANCH   8  11
ATOM     11  N   UNL     1      -9.471   1.288  -2.078  0.00  0.00    -0.285 N 
ATOM     12  C   UNL     1      -9.439   2.626  -1.916  0.00  0.00    +0.220 C 
ATOM     13  O   UNL     1      -8.470   3.152  -1.412  0.00  0.00    -0.275 OA
ATOM     14  H   UNL     1     -10.215   0.873  -2.541  0.00  0.00    +0.155 HD
BRANCH  12  15
ATOM     15  C   UNL     1     -10.607   3.467  -2.362  0.00  0.00    +0.075 C 
ATOM     16  C   UNL     1     -10.825   3.282  -3.865  0.00  0.00    +0.013 C 
ATOM     17  C   UNL     1     -12.011   4.136  -4.317  0.00  0.00    +0.001 C 
ATOM     18  C   UNL     1     -11.722   5.609  -4.021  0.00  0.00    +0.000 C 
ATOM     19  C   UNL     1     -11.504   5.794  -2.518  0.00  0.00    +0.001 C 
ATOM     20  C   UNL     1     -10.318   4.940  -2.066  0.00  0.00    +0.013 C 
ENDBRANCH  12  15
ENDBRANCH   8  11
ENDBRANCH   2   5
BRANCH   1  21
ATOM     21  N   UNL     1      -2.967  -2.222   0.427  0.00  0.00    -0.264 N 
ATOM     22  H   UNL     1      -3.155  -3.106   0.780  0.00  0.00    +0.170 HD
BRANCH  21  26
ATOM     23  C   UNL     1      -0.001   1.529  -0.073  0.00  0.00    +0.016 C 
ATOM     24  C   UNL     1       0.020  -0.001  -0.079  0.00  0.00    -0.008 C 
ATOM     25  C   UNL     1      -1.393  -0.520  -0.068  0.00  0.00    +0.004 C 
ATOM     26  C   UNL     1      -1.657  -1.739   0.418  0.00  0.00    +0.044 C 
ATOM     27  C   UNL     1      -0.558  -2.568   0.942  0.00  0.00    +0.065 C 
ATOM     28  C   UNL     1       0.595  -1.992   1.292  0.00  0.00    +0.097 C 
ATOM     29  C   UNL     1       0.770  -0.503   1.154  0.00  0.00    +0.084 C 
ATOM     30  C   UNL     1       0.730  -0.494  -1.341  0.00  0.00    +0.016 C 
BRANCH  28  31
ATOM     31  O   UNL     1       1.610  -2.749   1.771  0.00  0.00    -0.511 OA
ATOM     32  H   UNL     1       1.406  -3.693   1.824  0.00  0.00    +0.292 HD
ENDBRANCH  28  31
ENDBRANCH  21  26
ENDBRANCH   1  21
TORSDOF 6
