REMARK  Name = ZINC15953602
REMARK  17 active torsions:
REMARK  status: ('A' for Active; 'I' for Inactive)
REMARK    1  A    between atoms: C_1  and  C_2
REMARK    2  A    between atoms: C_2  and  N_3
REMARK    3  A    between atoms: N_3  and  C_4
REMARK    4  A    between atoms: N_3  and  C_6
REMARK    5  A    between atoms: C_4  and  C_5
REMARK    6  A    between atoms: C_9  and  C_12
REMARK    7  A    between atoms: C_20  and  O_41
REMARK    8  A    between atoms: C_24  and  C_26
REMARK    9  A    between atoms: C_28  and  O_38
REMARK   10  A    between atoms: C_29  and  O_35
REMARK   11  A    between atoms: C_30  and  O_32
REMARK   12  A    between atoms: O_32  and  C_33
REMARK   13  A    between atoms: C_33  and  C_34
REMARK   14  A    between atoms: O_35  and  C_36
REMARK   15  A    between atoms: C_36  and  C_37
REMARK   16  A    between atoms: O_38  and  C_39
REMARK   17  A    between atoms: C_39  and  C_40
REMARK                            x       y       z     vdW  Elec       q    Type
REMARK                         _______ _______ _______ _____ _____    ______ ____
ROOT
ATOM      1  C   UNL     1      -5.321  -1.010  -3.354  0.00  0.00    +0.112 C 
ATOM      2  C   UNL     1      -5.549  -1.820  -4.634  0.00  0.00    +0.046 C 
ATOM      3  C   UNL     1      -4.959  -1.057  -5.822  0.00  0.00    +0.008 C 
ATOM      4  C   UNL     1      -5.193  -1.851  -7.109  0.00  0.00    +0.001 C 
ATOM      5  C   UNL     1      -6.696  -2.040  -7.323  0.00  0.00    +0.003 C 
ATOM      6  C   UNL     1      -7.286  -2.807  -6.138  0.00  0.00    +0.035 C 
ATOM      7  C   UNL     1      -7.052  -2.017  -4.848  0.00  0.00    +0.072 C 
ATOM      8  C   UNL     1      -7.639  -2.795  -3.667  0.00  0.00    +0.054 C 
ATOM      9  C   UNL     1      -7.435  -1.994  -2.378  0.00  0.00    +0.111 C 
ATOM     10  N   UNL     1      -6.006  -1.677  -2.239  0.00  0.00    -0.290 N 
ATOM     11  C   UNL     1      -5.339  -1.994  -1.112  0.00  0.00    +0.247 C 
ATOM     12  O   UNL     1      -4.189  -1.627  -0.963  0.00  0.00    -0.270 OA
ENDROOT
BRANCH   1  16
ATOM     13  C   UNL     1      -1.133  -0.786  -2.529  0.00  0.00    +0.030 A 
ATOM     14  C   UNL     1      -1.724  -2.014  -2.798  0.00  0.00    +0.023 A 
ATOM     15  C   UNL     1      -3.079  -2.083  -3.059  0.00  0.00    +0.007 A 
ATOM     16  C   UNL     1      -3.844  -0.931  -3.063  0.00  0.00    -0.027 A 
ATOM     17  C   UNL     1      -3.257   0.293  -2.800  0.00  0.00    +0.007 A 
ATOM     18  C   UNL     1      -1.904   0.369  -2.533  0.00  0.00    +0.023 A 
BRANCH  13  19
ATOM     19  N   UNL     1       0.236  -0.713  -2.260  0.00  0.00    -0.330 N 
BRANCH  19  21
ATOM     20  C   UNL     1       1.063  -2.530  -0.847  0.00  0.00    +0.024 C 
ATOM     21  C   UNL     1       1.048  -1.932  -2.255  0.00  0.00    +0.102 C 
ENDBRANCH  19  21
BRANCH  19  22
ATOM     22  C   UNL     1       0.859   0.584  -1.982  0.00  0.00    +0.102 C 
ATOM     23  C   UNL     1       1.344   1.208  -3.292  0.00  0.00    +0.024 C 
ENDBRANCH  19  22
ENDBRANCH  13  19
ENDBRANCH   1  16
BRANCH  11  24
ATOM     24  C   UNL     1      -6.003  -2.786  -0.058  0.00  0.00    +0.044 A 
ATOM     25  C   UNL     1      -6.831  -3.856  -0.405  0.00  0.00    +0.062 A 
ATOM     26  C   UNL     1      -7.448  -4.600   0.584  0.00  0.00    +0.166 A 
ATOM     27  C   UNL     1      -7.253  -4.277   1.924  0.00  0.00    +0.204 A 
ATOM     28  C   UNL     1      -6.432  -3.207   2.272  0.00  0.00    +0.166 A 
ATOM     29  C   UNL     1      -5.809  -2.463   1.287  0.00  0.00    +0.062 A 
BRANCH  28  30
ATOM     30  O   UNL     1      -6.244  -2.893   3.582  0.00  0.00    -0.488 OA
BRANCH  30  31
ATOM     31  C   UNL     1      -5.390  -1.783   3.866  0.00  0.00    +0.226 C 
ATOM     32  C   UNL     1      -5.301  -1.584   5.381  0.00  0.00    +0.048 C 
ENDBRANCH  30  31
ENDBRANCH  28  30
BRANCH  27  33
ATOM     33  O   UNL     1      -7.865  -5.006   2.893  0.00  0.00    -0.485 OA
BRANCH  33  34
ATOM     34  C   UNL     1      -9.160  -4.570   3.313  0.00  0.00    +0.226 C 
ATOM     35  C   UNL     1      -9.685  -5.508   4.402  0.00  0.00    +0.048 C 
ENDBRANCH  33  34
ENDBRANCH  27  33
BRANCH  26  36
ATOM     36  O   UNL     1      -8.250  -5.646   0.247  0.00  0.00    -0.488 OA
BRANCH  36  37
ATOM     37  C   UNL     1      -8.405  -5.921  -1.147  0.00  0.00    +0.226 C 
ATOM     38  C   UNL     1      -9.336  -7.122  -1.328  0.00  0.00    +0.048 C 
ENDBRANCH  36  37
ENDBRANCH  26  36
ENDBRANCH  11  24
BRANCH   7  39
ATOM     39  O   UNL     1      -7.690  -0.742  -4.947  0.00  0.00    -0.388 OA
ATOM     40  H   UNL     1      -8.646  -0.791  -5.083  0.00  0.00    +0.210 HD
ENDBRANCH   7  39
TORSDOF 12
