REMARK  Name = ZINC11266655
REMARK  13 active torsions:
REMARK  status: ('A' for Active; 'I' for Inactive)
REMARK    1  A    between atoms: C_1  and  C_2
REMARK    2  A    between atoms: C_2  and  N_3
REMARK    3  A    between atoms: N_3  and  C_4
REMARK    4  A    between atoms: N_3  and  S_6
REMARK    5  A    between atoms: C_4  and  C_5
REMARK    6  A    between atoms: S_6  and  C_9
REMARK    7  A    between atoms: C_12  and  O_29
REMARK    8  A    between atoms: C_13  and  N_15
REMARK    9  A    between atoms: N_15  and  C_16
REMARK   10  A    between atoms: C_16  and  C_17
REMARK   11  A    between atoms: C_19  and  C_22
REMARK   12  A    between atoms: C_25  and  C_28
REMARK   13  A    between atoms: O_29  and  C_30
REMARK                            x       y       z     vdW  Elec       q    Type
REMARK                         _______ _______ _______ _____ _____    ______ ____
ROOT
ATOM      1  C   UNL     1       2.400   0.034  -0.021  0.00  0.00    +0.107 A 
ATOM      2  C   UNL     1       2.380   1.416  -0.013  0.00  0.00    +0.032 A 
ATOM      3  C   UNL     1       1.175   2.094   0.002  0.00  0.00    +0.049 A 
ATOM      4  C   UNL     1      -0.017   1.389   0.010  0.00  0.00    +0.141 A 
ATOM      5  C   UNL     1       0.002  -0.004   0.002  0.00  0.00    +0.072 A 
ATOM      6  C   UNL     1       1.215  -0.677  -0.013  0.00  0.00    +0.055 A 
ENDROOT
BRANCH   1   7
ATOM      7  S   UNL     1       3.939  -0.823  -0.039  0.00  0.00    +0.061 S 
ATOM      8  O   UNL     1       4.905   0.065   0.507  0.00  0.00    -0.153 OA
ATOM      9  O   UNL     1       3.694  -2.111   0.507  0.00  0.00    -0.153 OA
BRANCH   7  10
ATOM     10  N   UNL     1       4.352  -1.053  -1.627  0.00  0.00    -0.177 NA
BRANCH  10  12
ATOM     11  C   UNL     1       6.630  -0.436  -2.267  0.00  0.00    +0.022 C 
ATOM     12  C   UNL     1       5.152  -0.046  -2.329  0.00  0.00    +0.106 C 
ENDBRANCH  10  12
BRANCH  10  13
ATOM     13  C   UNL     1       3.918  -2.264  -2.328  0.00  0.00    +0.106 C 
ATOM     14  C   UNL     1       2.621  -1.975  -3.087  0.00  0.00    +0.022 C 
ENDBRANCH  10  13
ENDBRANCH   7  10
ENDBRANCH   1   7
BRANCH   5  15
ATOM     15  N   UNL     1      -1.199  -0.722   0.010  0.00  0.00    -0.332 N 
ATOM     16  H   UNL     1      -2.046  -0.250   0.021  0.00  0.00    +0.147 HD
BRANCH  15  17
ATOM     17  C   UNL     1      -1.177  -2.187   0.002  0.00  0.00    +0.200 C 
BRANCH  17  18
ATOM     18  C   UNL     1      -2.590  -2.711   0.013  0.00  0.00    +0.245 A 
ATOM     19  N   UNL     1      -3.332  -2.971  -1.035  0.00  0.00    -0.190 NA
ATOM     20  C   UNL     1      -4.510  -3.417  -0.544  0.00  0.00    +0.202 A 
ATOM     21  N   UNL     1      -4.418  -3.394   0.760  0.00  0.00    -0.056 NA
ATOM     22  O   UNL     1      -3.324  -2.992   1.094  0.00  0.00    -0.336 OA
BRANCH  20  23
ATOM     23  C   UNL     1      -5.689  -3.847  -1.337  0.00  0.00    +0.022 A 
ATOM     24  C   UNL     1      -5.645  -3.813  -2.729  0.00  0.00    +0.012 A 
ATOM     25  C   UNL     1      -6.742  -4.218  -3.462  0.00  0.00    +0.004 A 
ATOM     26  C   UNL     1      -7.888  -4.647  -2.816  0.00  0.00    -0.050 A 
ATOM     27  C   UNL     1      -7.938  -4.679  -1.434  0.00  0.00    +0.004 A 
ATOM     28  C   UNL     1      -6.845  -4.281  -0.692  0.00  0.00    +0.012 A 
ATOM     29  C   UNL     1      -9.085  -5.082  -3.621  0.00  0.00    +0.044 C 
ENDBRANCH  20  23
ENDBRANCH  17  18
ENDBRANCH  15  17
ENDBRANCH   5  15
BRANCH   4  30
ATOM     30  O   UNL     1      -1.203   2.055   0.019  0.00  0.00    -0.493 OA
ATOM     31  C   UNL     1      -1.145   3.482   0.026  0.00  0.00    +0.277 C 
ENDBRANCH   4  30
TORSDOF 9
