REMARK  Name = ZINC62787987
REMARK  5 active torsions:
REMARK  status: ('A' for Active; 'I' for Inactive)
REMARK    1  A    between atoms: C_6  and  C_7
REMARK    2  A    between atoms: C_7  and  N_8
REMARK    3  A    between atoms: N_8  and  C_9
REMARK    4  A    between atoms: C_14  and  C_15
REMARK    5  A    between atoms: C_15  and  N_17
REMARK                            x       y       z     vdW  Elec       q    Type
REMARK                         _______ _______ _______ _____ _____    ______ ____
ROOT
ATOM      1  C   UNL     1      -2.900  -1.719  -1.615  0.00  0.00    +0.038 A 
ATOM      2  C   UNL     1      -3.616  -2.272  -0.562  0.00  0.00    +0.043 A 
ATOM      3  C   UNL     1      -4.788  -2.961  -0.809  0.00  0.00    +0.043 A 
ATOM      4  C   UNL     1      -5.257  -3.106  -2.107  0.00  0.00    +0.021 A 
ATOM      5  C   UNL     1      -4.559  -2.564  -3.163  0.00  0.00    +0.013 A 
ATOM      6  C   UNL     1      -3.375  -1.859  -2.929  0.00  0.00    +0.024 A 
ATOM      7 CL   UNL     1      -5.678  -3.650   0.512  0.00  0.00    -0.083 Cl
ENDROOT
BRANCH   1   8
ATOM      8  N   UNL     1      -1.721  -1.025  -1.369  0.00  0.00    -0.339 N 
ATOM      9  H   UNL     1      -1.182  -0.707  -2.110  0.00  0.00    +0.146 HD
BRANCH   8  10
ATOM     10  C   UNL     1      -1.293  -0.774   0.009  0.00  0.00    +0.137 C 
BRANCH  10  16
ATOM     11  C   UNL     1      -0.006   1.373  -0.002  0.00  0.00    +0.006 A 
ATOM     12  C   UNL     1       1.184   2.075  -0.010  0.00  0.00    +0.015 A 
ATOM     13  C   UNL     1       2.388   1.394  -0.015  0.00  0.00    +0.018 A 
ATOM     14  C   UNL     1       2.400   0.011  -0.013  0.00  0.00    +0.015 A 
ATOM     15  C   UNL     1       1.209  -0.690  -0.004  0.00  0.00    +0.006 A 
ATOM     16  C   UNL     1       0.006  -0.009   0.001  0.00  0.00    -0.030 A 
ATOM     17 BR   UNL     1       4.018   2.353  -0.027  0.00  0.00    -0.050 Br
ENDBRANCH  10  16
ENDBRANCH   8  10
ENDBRANCH   1   8
BRANCH   6  18
ATOM     18  C   UNL     1      -2.627  -1.272  -4.053  0.00  0.00    +0.079 C 
ATOM     19  S   UNL     1      -1.510  -2.228  -4.930  0.00  0.00    -0.035 S 
BRANCH  18  20
ATOM     20  N   UNL     1      -2.822   0.018  -4.393  0.00  0.00    -0.352 N 
ATOM     21  H   UNL     1      -3.455   0.559  -3.896  0.00  0.00    +0.143 HD
ATOM     22  H   UNL     1      -2.330   0.404  -5.133  0.00  0.00    +0.143 HD
ENDBRANCH  18  20
ENDBRANCH   6  18
TORSDOF 5
