REMARK  Name = ZINC53367244
REMARK  9 active torsions:
REMARK  status: ('A' for Active; 'I' for Inactive)
REMARK    1  A    between atoms: C_1  and  C_2
REMARK    2  A    between atoms: C_7  and  N_12
REMARK    3  A    between atoms: C_9  and  C_11
REMARK    4  A    between atoms: N_12  and  C_13
REMARK    5  A    between atoms: C_13  and  N_15
REMARK    6  A    between atoms: N_15  and  N_16
REMARK    7  A    between atoms: C_17  and  C_19
REMARK    8  A    between atoms: C_21  and  S_24
REMARK    9  A    between atoms: S_24  and  N_27
REMARK                            x       y       z     vdW  Elec       q    Type
REMARK                         _______ _______ _______ _____ _____    ______ ____
ROOT
ATOM      1  N   UNL     1       2.778  -3.389   4.647  0.00  0.00    -0.231 N 
ATOM      2  C   UNL     1       3.430  -3.835   5.739  0.00  0.00    +0.261 C 
ATOM      3  O   UNL     1       3.958  -4.931   5.727  0.00  0.00    -0.269 OA
ATOM      4  H   UNL     1       2.357  -2.515   4.657  0.00  0.00    +0.173 HD
ENDROOT
BRANCH   2   5
ATOM      5  C   UNL     1       3.502  -2.997   6.947  0.00  0.00    +0.047 A 
ATOM      6  C   UNL     1       4.196  -3.439   8.133  0.00  0.00    +0.049 A 
ATOM      7  C   UNL     1       4.190  -2.578   9.170  0.00  0.00    +0.143 A 
ATOM      8  S   UNL     1       3.259  -1.197   8.543  0.00  0.00    -0.076 S 
ATOM      9  C   UNL     1       2.917  -1.752   6.996  0.00  0.00    +0.060 A 
BRANCH   7  10
ATOM     10  S   UNL     1       4.923  -2.773  10.760  0.00  0.00    +0.062 S 
ATOM     11  O   UNL     1       4.208  -1.922  11.645  0.00  0.00    -0.153 OA
ATOM     12  O   UNL     1       5.047  -4.171  10.982  0.00  0.00    -0.153 OA
BRANCH  10  13
ATOM     13  N   UNL     1       6.463  -2.171  10.666  0.00  0.00    -0.203 NA
ATOM     14  H   UNL     1       6.790  -1.803   9.830  0.00  0.00    +0.144 HD
ATOM     15  H   UNL     1       7.039  -2.186  11.446  0.00  0.00    +0.144 HD
ENDBRANCH  10  13
ENDBRANCH   7  10
ENDBRANCH   2   5
BRANCH   1  16
ATOM     16  N   UNL     1       2.708  -4.187   3.498  0.00  0.00    -0.246 N 
ATOM     17  H   UNL     1       3.129  -5.060   3.488  0.00  0.00    +0.172 HD
BRANCH  16  18
ATOM     18  C   UNL     1       2.056  -3.740   2.406  0.00  0.00    +0.147 C 
ATOM     19  S   UNL     1       1.972  -4.715   1.002  0.00  0.00    -0.017 S 
BRANCH  18  20
ATOM     20  N   UNL     1       1.471  -2.526   2.420  0.00  0.00    -0.322 N 
ATOM     21  H   UNL     1       1.520  -1.974   3.216  0.00  0.00    +0.148 HD
BRANCH  20  27
ATOM     22  C   UNL     1      -0.019   1.526   0.010  0.00  0.00    +0.008 C 
ATOM     23  C   UNL     1       0.002  -0.004   0.002  0.00  0.00    -0.009 C 
ATOM     24  C   UNL     1      -1.433  -0.534   0.013  0.00  0.00    +0.003 C 
ATOM     25  C   UNL     1      -1.413  -2.063   0.004  0.00  0.00    +0.002 C 
ATOM     26  C   UNL     1      -0.673  -2.570   1.244  0.00  0.00    +0.022 C 
ATOM     27  C   UNL     1       0.763  -2.041   1.233  0.00  0.00    +0.075 C 
ATOM     28  C   UNL     1       0.742  -0.511   1.242  0.00  0.00    +0.009 C 
ATOM     29  C   UNL     1       0.026  -0.018   2.500  0.00  0.00    +0.009 C 
ENDBRANCH  20  27
ENDBRANCH  18  20
ENDBRANCH  16  18
ENDBRANCH   1  16
TORSDOF 7
