REMARK  Name = ZINC12877954
REMARK  4 active torsions:
REMARK  status: ('A' for Active; 'I' for Inactive)
REMARK    1  A    between atoms: C_12  and  C_14
REMARK    2  A    between atoms: C_14  and  C_15
REMARK    3  A    between atoms: C_15  and  C_16
REMARK    4  A    between atoms: N_21  and  C_24
REMARK                            x       y       z     vdW  Elec       q    Type
REMARK                         _______ _______ _______ _____ _____    ______ ____
ROOT
ATOM      1  C   UNL     1       2.849  -0.398   3.545  0.00  0.00    +0.000 A 
ATOM      2  C   UNL     1       3.565  -1.567   3.365  0.00  0.00    +0.002 A 
ATOM      3  C   UNL     1       3.632  -2.158   2.120  0.00  0.00    +0.023 A 
ATOM      4  C   UNL     1       2.978  -1.581   1.034  0.00  0.00    +0.036 A 
ATOM      5  C   UNL     1       2.259  -0.405   1.228  0.00  0.00    -0.028 A 
ATOM      6  C   UNL     1       2.195   0.181   2.472  0.00  0.00    +0.004 A 
ATOM      7  C   UNL     1       1.683  -0.050  -0.114  0.00  0.00    +0.050 C 
ATOM      8  C   UNL     1       0.152   0.016  -0.069  0.00  0.00    +0.088 C 
ATOM      9  C   UNL     1      -0.169   1.530   0.081  0.00  0.00    +0.073 C 
ATOM     10  C   UNL     1       1.209   2.225   0.121  0.00  0.00    -0.057 C 
ATOM     11  C   UNL     1      -0.864   1.871  -1.216  0.00  0.00    +0.228 C 
ATOM     12  O   UNL     1      -1.283   2.967  -1.520  0.00  0.00    -0.275 OA
ATOM     13  N   UNL     1      -0.947   0.773  -1.978  0.00  0.00    -0.210 N 
ATOM     14  C   UNL     1      -0.411  -0.324  -1.431  0.00  0.00    +0.229 C 
ATOM     15  O   UNL     1      -0.381  -1.421  -1.947  0.00  0.00    -0.275 OA
ATOM     16  C   UNL     1       2.159  -1.134  -1.043  0.00  0.00    +0.211 C 
ATOM     17  O   UNL     1       1.921  -1.227  -2.228  0.00  0.00    -0.277 OA
ATOM     18  N   UNL     1       2.899  -1.981  -0.302  0.00  0.00    -0.286 N 
ATOM     19  H   UNL     1       3.328  -2.776  -0.655  0.00  0.00    +0.155 HD
ATOM     20  N   UNL     1       2.105   1.273  -0.538  0.00  0.00    +0.394 N 
ATOM     21  H   UNL     1       2.028   1.360  -1.559  0.00  0.00    -0.083 HD
ATOM     22  H   UNL     1       3.077   1.444  -0.253  0.00  0.00    -0.083 HD
ENDROOT
BRANCH  13  23
ATOM     23  C   UNL     1      -1.547   0.773  -3.246  0.00  0.00    +0.048 A 
ATOM     24  C   UNL     1      -0.960   1.472  -4.292  0.00  0.00    +0.028 A 
ATOM     25  C   UNL     1      -1.549   1.474  -5.541  0.00  0.00    +0.051 A 
ATOM     26  C   UNL     1      -2.728   0.777  -5.755  0.00  0.00    +0.166 A 
ATOM     27  C   UNL     1      -3.319   0.074  -4.708  0.00  0.00    +0.168 A 
ATOM     28  C   UNL     1      -2.724   0.069  -3.457  0.00  0.00    +0.073 A 
ATOM     29  O   UNL     1      -4.457  -0.521  -5.169  0.00  0.00    -0.453 OA
ATOM     30  C   UNL     1      -4.340  -0.513  -6.604  0.00  0.00    +0.466 C 
ATOM     31  O   UNL     1      -3.496   0.622  -6.873  0.00  0.00    -0.453 OA
ENDBRANCH  13  23
BRANCH  10  32
ATOM     32  C   UNL     1       1.155   3.555  -0.634  0.00  0.00    -0.006 C 
BRANCH  32  33
ATOM     33  C   UNL     1       2.491   4.285  -0.477  0.00  0.00    +0.094 C 
BRANCH  33  34
ATOM     34  C   UNL     1       2.438   5.595  -1.220  0.00  0.00    +0.210 C 
ATOM     35  O   UNL     1       1.431   5.914  -1.816  0.00  0.00    -0.276 OA
ATOM     36  N   UNL     1       3.510   6.412  -1.222  0.00  0.00    -0.329 N 
ATOM     37  H   UNL     1       4.315   6.157  -0.745  0.00  0.00    +0.145 HD
ATOM     38  H   UNL     1       3.476   7.255  -1.700  0.00  0.00    +0.145 HD
ENDBRANCH  33  34
ENDBRANCH  32  33
ENDBRANCH  10  32
TORSDOF 4
