REMARK  Name = ZINC09390423
REMARK  8 active torsions:
REMARK  status: ('A' for Active; 'I' for Inactive)
REMARK    1  A    between atoms: C_4  and  C_7
REMARK    2  A    between atoms: C_7  and  C_8
REMARK    3  A    between atoms: C_8  and  N_9
REMARK    4  A    between atoms: C_10  and  C_27
REMARK    5  A    between atoms: C_13  and  S_14
REMARK    6  A    between atoms: S_14  and  C_15
REMARK    7  A    between atoms: C_15  and  C_16
REMARK    8  A    between atoms: N_21  and  C_22
REMARK                            x       y       z     vdW  Elec       q    Type
REMARK                         _______ _______ _______ _____ _____    ______ ____
ROOT
ATOM      1  N   UNL     1       2.555   5.302  -0.096  0.00  0.00    -0.302 N 
ATOM      2  C   UNL     1       2.422   3.950   0.127  0.00  0.00    +0.168 A 
ATOM      3  N   UNL     1       3.632   3.443   0.151  0.00  0.00    -0.128 NA
ATOM      4  N   UNL     1       4.501   4.371  -0.033  0.00  0.00    -0.122 NA
ATOM      5  C   UNL     1       3.899   5.529  -0.187  0.00  0.00    +0.192 A 
ENDROOT
BRANCH   2   6
ATOM      6  C   UNL     1       1.155   3.209   0.299  0.00  0.00    +0.054 A 
ATOM      7  C   UNL     1       0.102   3.401  -0.597  0.00  0.00    +0.014 A 
ATOM      8  C   UNL     1      -1.078   2.707  -0.430  0.00  0.00    +0.001 A 
ATOM      9  C   UNL     1      -1.223   1.825   0.627  0.00  0.00    +0.003 A 
ATOM     10  C   UNL     1      -0.183   1.625   1.516  0.00  0.00    +0.039 A 
ATOM     11  C   UNL     1       1.005   2.313   1.362  0.00  0.00    +0.134 A 
ATOM     12  F   UNL     1       2.018   2.121   2.234  0.00  0.00    -0.205 F 
ENDBRANCH   2   6
BRANCH   1  13
ATOM     13  C   UNL     1       1.480   6.290  -0.210  0.00  0.00    +0.130 C 
BRANCH  13  14
ATOM     14  C   UNL     1       1.137   6.833   1.179  0.00  0.00    +0.057 C 
BRANCH  14  18
ATOM     15  C   UNL     1      -1.997   9.716   0.848  0.00  0.00    +0.000 A 
ATOM     16  C   UNL     1      -2.303   8.381   1.040  0.00  0.00    +0.000 A 
ATOM     17  C   UNL     1      -1.288   7.448   1.147  0.00  0.00    +0.004 A 
ATOM     18  C   UNL     1       0.032   7.850   1.062  0.00  0.00    -0.046 A 
ATOM     19  C   UNL     1       0.337   9.185   0.876  0.00  0.00    +0.004 A 
ATOM     20  C   UNL     1      -0.677  10.117   0.764  0.00  0.00    +0.000 A 
ENDBRANCH  14  18
ENDBRANCH  13  14
ENDBRANCH   1  13
BRANCH   5  21
ATOM     21  S   UNL     1       4.679   7.084  -0.466  0.00  0.00    -0.077 S 
BRANCH  21  22
ATOM     22  C   UNL     1       6.415   6.570  -0.463  0.00  0.00    +0.173 C 
BRANCH  22  23
ATOM     23  C   UNL     1       7.295   7.772  -0.691  0.00  0.00    +0.231 C 
ATOM     24  O   UNL     1       6.798   8.868  -0.840  0.00  0.00    -0.274 OA
ATOM     25  N   UNL     1       8.634   7.629  -0.729  0.00  0.00    -0.239 N 
ATOM     26  C   UNL     1       9.422   8.704  -0.932  0.00  0.00    +0.306 C 
ATOM     27  O   UNL     1       8.924   9.802  -1.082  0.00  0.00    -0.252 OA
ATOM     28  N   UNL     1      10.761   8.561  -0.970  0.00  0.00    -0.296 N 
ATOM     29  H   UNL     1       9.032   6.752  -0.609  0.00  0.00    +0.159 HD
ATOM     30  H   UNL     1      11.159   7.684  -0.851  0.00  0.00    +0.151 HD
BRANCH  28  31
ATOM     31  C   UNL     1      11.617   9.729  -1.192  0.00  0.00    +0.074 C 
ATOM     32  C   UNL     1      11.817   9.959  -2.704  0.00  0.00    +0.022 C 
ATOM     33  C   UNL     1      13.286  10.433  -2.825  0.00  0.00    +0.002 C 
ATOM     34  C   UNL     1      14.014   9.566  -1.767  0.00  0.00    +0.002 C 
ATOM     35  C   UNL     1      13.014   9.480  -0.596  0.00  0.00    +0.022 C 
ENDBRANCH  28  31
ENDBRANCH  22  23
ENDBRANCH  21  22
ENDBRANCH   5  21
TORSDOF 8
