REMARK  Name = ZINC00739261
REMARK  14 active torsions:
REMARK  status: ('A' for Active; 'I' for Inactive)
REMARK    1  A    between atoms: C_1  and  C_2
REMARK    2  A    between atoms: C_2  and  C_3
REMARK    3  A    between atoms: C_7  and  N_9
REMARK    4  A    between atoms: N_12  and  C_13
REMARK    5  A    between atoms: N_12  and  C_15
REMARK    6  A    between atoms: C_13  and  C_14
REMARK    7  A    between atoms: C_15  and  C_16
REMARK    8  A    between atoms: N_18  and  C_19
REMARK    9  A    between atoms: C_21  and  C_31
REMARK   10  A    between atoms: N_23  and  C_24
REMARK   11  A    between atoms: C_28  and  C_30
REMARK   12  A    between atoms: C_31  and  C_32
REMARK   13  A    between atoms: C_31  and  C_33
REMARK   14  A    between atoms: C_31  and  C_34
REMARK                            x       y       z     vdW  Elec       q    Type
REMARK                         _______ _______ _______ _____ _____    ______ ____
ROOT
ATOM      1  C   UNL     1       2.922   0.744  -1.028  0.00  0.00    +0.236 C 
ATOM      2  O   UNL     1       2.296   1.019  -2.029  0.00  0.00    -0.274 OA
ATOM      3  N   UNL     1       4.082   0.063  -1.124  0.00  0.00    -0.269 N 
ATOM      4  H   UNL     1       4.650  -0.186  -0.215  0.00  0.00    +0.156 HD
ENDROOT
BRANCH   3   5
ATOM      5  C   UNL     1       4.560  -0.325  -2.374  0.00  0.00    +0.129 A 
ATOM      6  C   UNL     1       3.962  -0.091  -3.574  0.00  0.00    +0.069 A 
ATOM      7  C   UNL     1       4.770  -0.643  -4.572  0.00  0.00    +0.071 A 
ATOM      8  N   UNL     1       5.811  -1.196  -4.004  0.00  0.00    -0.169 NA
ATOM      9  N   UNL     1       5.709  -1.013  -2.619  0.00  0.00    -0.218 N 
BRANCH   9  10
ATOM     10  C   UNL     1       6.625  -1.459  -1.656  0.00  0.00    +0.068 A 
ATOM     11  C   UNL     1       6.870  -0.696  -0.522  0.00  0.00    +0.028 A 
ATOM     12  C   UNL     1       7.770  -1.141   0.426  0.00  0.00    +0.002 A 
ATOM     13  C   UNL     1       8.435  -2.339   0.242  0.00  0.00    +0.003 A 
ATOM     14  C   UNL     1       8.197  -3.099  -0.888  0.00  0.00    -0.048 A 
ATOM     15  C   UNL     1       7.294  -2.662  -1.838  0.00  0.00    +0.031 A 
ATOM     16  C   UNL     1       8.923  -4.405  -1.084  0.00  0.00    +0.044 C 
ENDBRANCH   9  10
BRANCH   7  17
ATOM     17  C   UNL     1       4.488  -0.612  -6.052  0.00  0.00    +0.006 C 
ATOM     18  C   UNL     1       4.773   0.789  -6.596  0.00  0.00    +0.017 C 
ATOM     19  C   UNL     1       5.384  -1.627  -6.764  0.00  0.00    +0.017 C 
ATOM     20  C   UNL     1       3.020  -0.966  -6.299  0.00  0.00    +0.017 C 
ENDBRANCH   7  17
ENDBRANCH   3   5
BRANCH   1  21
ATOM     21  C   UNL     1       2.405   1.164   0.324  0.00  0.00    +0.205 C 
BRANCH  21  25
ATOM     22  N   UNL     1      -1.191   1.870   0.018  0.00  0.00    -0.269 N 
ATOM     23  C   UNL     1      -0.027   1.208   0.174  0.00  0.00    +0.307 C 
ATOM     24  O   UNL     1      -0.028   0.002   0.323  0.00  0.00    -0.252 OA
ATOM     25  N   UNL     1       1.139   1.884   0.160  0.00  0.00    -0.277 N 
ATOM     26  H   UNL     1      -1.197   2.969  -0.028  0.00  0.00    +0.156 HD
BRANCH  22  31
ATOM     27  C   UNL     1      -4.749   0.992   0.320  0.00  0.00    -0.046 A 
ATOM     28  C   UNL     1      -4.765  -0.249  -0.291  0.00  0.00    +0.004 A 
ATOM     29  C   UNL     1      -3.598  -0.788  -0.799  0.00  0.00    +0.002 A 
ATOM     30  C   UNL     1      -2.412  -0.085  -0.704  0.00  0.00    +0.023 A 
ATOM     31  C   UNL     1      -2.391   1.158  -0.086  0.00  0.00    +0.035 A 
ATOM     32  C   UNL     1      -3.566   1.697   0.423  0.00  0.00    +0.027 A 
BRANCH  27  34
ATOM     33  C   UNL     1      -6.718   2.402  -0.213  0.00  0.00    +0.009 C 
ATOM     34  C   UNL     1      -6.024   1.576   0.872  0.00  0.00    +0.032 C 
ENDBRANCH  27  34
ENDBRANCH  22  31
BRANCH  25  35
ATOM     35  C   UNL     1       1.141   3.338  -0.019  0.00  0.00    +0.106 C 
ATOM     36  C   UNL     1       1.057   4.020   1.348  0.00  0.00    +0.024 C 
ENDBRANCH  25  35
ENDBRANCH  21  25
ENDBRANCH   1  21
TORSDOF 8
