REMARK  Name = ZINC32511012
REMARK  8 active torsions:
REMARK  status: ('A' for Active; 'I' for Inactive)
REMARK    1  A    between atoms: C_4  and  O_30
REMARK    2  A    between atoms: C_5  and  N_7
REMARK    3  A    between atoms: C_8  and  C_10
REMARK    4  A    between atoms: C_10  and  N_11
REMARK    5  A    between atoms: N_14  and  C_17
REMARK    6  A    between atoms: C_20  and  C_26
REMARK    7  A    between atoms: C_22  and  N_23
REMARK    8  A    between atoms: O_30  and  C_31
REMARK                            x       y       z     vdW  Elec       q    Type
REMARK                         _______ _______ _______ _____ _____    ______ ____
ROOT
ATOM      1  N   UNL     1       2.410   1.042  -0.034  0.00  0.00    +0.387 N 
ATOM      2  C   UNL     1       2.481   0.279   1.221  0.00  0.00    -0.059 C 
ATOM      3  C   UNL     1       3.618  -0.741   1.131  0.00  0.00    +0.086 C 
ATOM      4  N   UNL     1       4.883  -0.038   0.873  0.00  0.00    -0.332 N 
ATOM      5  C   UNL     1       4.812   0.724  -0.382  0.00  0.00    +0.086 C 
ATOM      6  C   UNL     1       3.674   1.744  -0.292  0.00  0.00    -0.059 C 
ATOM      7  H   UNL     1       2.243   0.330  -0.855  0.00  0.00    -0.081 HD
ENDROOT
BRANCH   4   8
ATOM      8  C   UNL     1       5.957  -0.931   0.856  0.00  0.00    +0.060 A 
ATOM      9  C   UNL     1       6.023  -1.922  -0.116  0.00  0.00    +0.026 A 
ATOM     10  C   UNL     1       7.086  -2.803  -0.130  0.00  0.00    +0.014 A 
ATOM     11  C   UNL     1       8.085  -2.700   0.822  0.00  0.00    +0.057 A 
ATOM     12  C   UNL     1       8.022  -1.715   1.790  0.00  0.00    +0.047 A 
ATOM     13  C   UNL     1       6.964  -0.827   1.806  0.00  0.00    +0.148 A 
BRANCH  11  14
ATOM     14  C   UNL     1       9.244  -3.663   0.803  0.00  0.00    +0.417 C 
ATOM     15  F   UNL     1       9.088  -4.560  -0.259  0.00  0.00    -0.166 F 
ATOM     16  F   UNL     1      10.438  -2.952   0.642  0.00  0.00    -0.166 F 
ATOM     17  F   UNL     1       9.281  -4.371   2.009  0.00  0.00    -0.166 F 
ENDBRANCH  11  14
BRANCH  13  18
ATOM     18  N   UNL     1       6.901   0.231   2.840  0.00  0.00    +0.058 N 
ATOM     19  O   UNL     1       7.785   0.322   3.673  0.00  0.00    -0.126 OA
ATOM     20  O   UNL     1       5.965   1.011   2.856  0.00  0.00    -0.126 OA
ENDBRANCH  13  18
ENDBRANCH   4   8
BRANCH   1  21
ATOM     21  C   UNL     1       1.280   1.981  -0.016  0.00  0.00    +0.019 C 
BRANCH  21  23
ATOM     22  N   UNL     1      -1.191   1.867   0.018  0.00  0.00    -0.284 N 
ATOM     23  C   UNL     1      -0.014   1.209   0.005  0.00  0.00    +0.201 C 
ATOM     24  O   UNL     1       0.003  -0.004   0.004  0.00  0.00    -0.278 OA
ATOM     25  H   UNL     1      -1.207   2.963   0.110  0.00  0.00    +0.155 HD
BRANCH  22  30
ATOM     26  C   UNL     1      -3.599  -0.793  -0.795  0.00  0.00    +0.002 A 
ATOM     27  C   UNL     1      -4.769  -0.254  -0.293  0.00  0.00    +0.004 A 
ATOM     28  C   UNL     1      -4.758   0.988   0.314  0.00  0.00    +0.048 A 
ATOM     29  C   UNL     1      -3.572   1.697   0.420  0.00  0.00    +0.148 A 
ATOM     30  C   UNL     1      -2.393   1.154  -0.086  0.00  0.00    +0.076 A 
ATOM     31  C   UNL     1      -2.413  -0.090  -0.698  0.00  0.00    +0.027 A 
BRANCH  29  32
ATOM     32  O   UNL     1      -3.559   2.919   1.015  0.00  0.00    -0.432 OA
BRANCH  32  33
ATOM     33  C   UNL     1      -4.806   3.412   1.511  0.00  0.00    +0.541 C 
ATOM     34  F   UNL     1      -5.718   3.518   0.455  0.00  0.00    -0.166 F 
ATOM     35  F   UNL     1      -5.307   2.529   2.474  0.00  0.00    -0.166 F 
ENDBRANCH  32  33
ENDBRANCH  29  32
ENDBRANCH  22  30
ENDBRANCH  21  23
ENDBRANCH   1  21
TORSDOF 8
