REMARK  Name = ZINC63557686
REMARK  12 active torsions:
REMARK  status: ('A' for Active; 'I' for Inactive)
REMARK    1  A    between atoms: C_1  and  C_2
REMARK    2  A    between atoms: C_2  and  C_3
REMARK    3  A    between atoms: C_2  and  C_4
REMARK    4  A    between atoms: C_2  and  C_5
REMARK    5  A    between atoms: C_5  and  C_6
REMARK    6  A    between atoms: C_10  and  N_13
REMARK    7  A    between atoms: C_14  and  C_16
REMARK    8  A    between atoms: N_21  and  C_23
REMARK    9  A    between atoms: C_23  and  C_24
REMARK   10  A    between atoms: C_24  and  C_25
REMARK   11  A    between atoms: C_28  and  O_34
REMARK   12  A    between atoms: O_34  and  C_35
REMARK                            x       y       z     vdW  Elec       q    Type
REMARK                         _______ _______ _______ _____ _____    ______ ____
ROOT
ATOM      1  C   UNL     1       6.633  -5.087  -1.123  0.00  0.00    +0.101 C 
ATOM      2  C   UNL     1       6.754  -5.541   0.350  0.00  0.00    +0.110 C 
ATOM      3  C   UNL     1       7.948  -6.470   0.355  0.00  0.00    +0.216 C 
ATOM      4  O   UNL     1       8.215  -7.254   1.241  0.00  0.00    -0.276 OA
ATOM      5  N   UNL     1       8.669  -6.302  -0.767  0.00  0.00    -0.300 N 
ATOM      6  C   UNL     1       8.080  -5.271  -1.630  0.00  0.00    +0.121 C 
ENDROOT
BRANCH   1   8
ATOM      7  N   UNL     1       4.999  -3.266  -0.753  0.00  0.00    -0.290 N 
ATOM      8  C   UNL     1       6.211  -3.642  -1.209  0.00  0.00    +0.220 C 
ATOM      9  O   UNL     1       6.961  -2.819  -1.688  0.00  0.00    -0.275 OA
ATOM     10  H   UNL     1       4.399  -3.925  -0.370  0.00  0.00    +0.151 HD
BRANCH   7  14
ATOM     11  C   UNL     1       2.168  -0.586  -1.217  0.00  0.00    +0.130 C 
ATOM     12  N   UNL     1       2.791  -1.219  -2.420  0.00  0.00    -0.241 NA
ATOM     13  N   UNL     1       4.197  -1.507  -2.222  0.00  0.00    -0.227 NA
ATOM     14  C   UNL     1       4.589  -1.862  -0.837  0.00  0.00    +0.216 C 
ATOM     15  S   UNL     1       3.021  -1.575   0.092  0.00  0.00    -0.102 S 
ATOM     16  H   UNL     1       2.650  -0.651  -3.241  0.00  0.00    +0.142 HD
ATOM     17  H   UNL     1       4.772  -0.760  -2.581  0.00  0.00    +0.143 HD
BRANCH  11  18
ATOM     18  C   UNL     1       0.654  -0.803  -1.188  0.00  0.00    +0.037 C 
BRANCH  18  20
ATOM     19  C   UNL     1       0.278   1.565  -0.486  0.00  0.00    +0.010 C 
ATOM     20  C   UNL     1       0.029   0.100  -0.123  0.00  0.00    -0.035 C 
ATOM     21  C   UNL     1       0.662  -0.203   1.237  0.00  0.00    +0.010 C 
ATOM     22  C   UNL     1      -1.477  -0.160  -0.053  0.00  0.00    +0.010 C 
ENDBRANCH  18  20
ENDBRANCH  11  18
ENDBRANCH   7  14
ENDBRANCH   1   8
BRANCH   5  23
ATOM     23  C   UNL     1       9.886  -7.051  -1.087  0.00  0.00    +0.112 C 
BRANCH  23  24
ATOM     24  C   UNL     1       9.516  -8.319  -1.861  0.00  0.00    +0.052 C 
BRANCH  24  25
ATOM     25  C   UNL     1      10.768  -9.089  -2.190  0.00  0.00    -0.040 C 
ATOM     26  C   UNL     1      11.300 -10.115  -1.487  0.00  0.00    +0.002 A 
ATOM     27  C   UNL     1      10.891 -10.793  -0.253  0.00  0.00    +0.055 A 
ATOM     28  C   UNL     1      11.641 -11.815   0.227  0.00  0.00    +0.121 A 
ATOM     29  C   UNL     1      12.810 -12.255  -0.418  0.00  0.00    +0.047 A 
ATOM     30  C   UNL     1      13.267 -11.694  -1.557  0.00  0.00    +0.029 A 
ATOM     31  C   UNL     1      12.532 -10.580  -2.166  0.00  0.00    +0.043 A 
ATOM     32  N   UNL     1      12.752  -9.871  -3.244  0.00  0.00    -0.380 N 
ATOM     33  C   UNL     1      11.681  -8.877  -3.378  0.00  0.00    +0.144 C 
ATOM     34  H   UNL     1      13.497  -9.986  -3.855  0.00  0.00    +0.160 HD
BRANCH  28  35
ATOM     35  O   UNL     1      11.250 -12.434   1.372  0.00  0.00    -0.495 OA
ATOM     36  C   UNL     1      12.070 -13.506   1.843  0.00  0.00    +0.277 C 
ENDBRANCH  28  35
ENDBRANCH  24  25
ENDBRANCH  23  24
ENDBRANCH   5  23
TORSDOF 8
