REMARK  Name = ZINC01387371
REMARK  3 active torsions:
REMARK  status: ('A' for Active; 'I' for Inactive)
REMARK    1  A    between atoms: C_6  and  C_7
REMARK    2  A    between atoms: C_15  and  O_20
REMARK    3  A    between atoms: C_17  and  O_19
REMARK                            x       y       z     vdW  Elec       q    Type
REMARK                         _______ _______ _______ _____ _____    ______ ____
ROOT
ATOM      1  C   UNL     1      -1.293  -0.775   0.011  0.00  0.00    +0.067 C 
ATOM      2  C   UNL     1      -1.375  -1.646  -1.246  0.00  0.00    +0.134 C 
ATOM      3  C   UNL     1      -2.461  -2.678  -1.018  0.00  0.00    +0.313 C 
ATOM      4  O   UNL     1      -3.412  -2.771  -1.757  0.00  0.00    -0.250 OA
ATOM      5  O   UNL     1      -2.315  -3.488   0.050  0.00  0.00    -0.425 OA
ATOM      6  C   UNL     1      -1.854  -2.932   1.203  0.00  0.00    +0.142 A 
ATOM      7  C   UNL     1      -1.349  -1.646   1.240  0.00  0.00    +0.044 A 
ATOM      8  C   UNL     1      -0.879  -1.126   2.442  0.00  0.00    +0.128 A 
ATOM      9  C   UNL     1      -0.918  -1.889   3.597  0.00  0.00    +0.091 A 
ATOM     10  C   UNL     1      -1.429  -3.177   3.558  0.00  0.00    +0.124 A 
ATOM     11  C   UNL     1      -1.897  -3.695   2.365  0.00  0.00    +0.092 A 
ENDROOT
BRANCH   1  17
ATOM     12  C   UNL     1      -0.017   1.378   0.010  0.00  0.00    +0.005 A 
ATOM     13  C   UNL     1       1.171   2.086   0.002  0.00  0.00    +0.020 A 
ATOM     14  C   UNL     1       2.378   1.410  -0.013  0.00  0.00    +0.041 A 
ATOM     15  C   UNL     1       2.396   0.027  -0.021  0.00  0.00    +0.020 A 
ATOM     16  C   UNL     1       1.208  -0.679  -0.013  0.00  0.00    +0.005 A 
ATOM     17  C   UNL     1       0.002  -0.004   0.002  0.00  0.00    -0.039 A 
ATOM     18 CL   UNL     1       3.870   2.298  -0.023  0.00  0.00    -0.084 Cl
ENDBRANCH   1  17
BRANCH  10  19
ATOM     19  O   UNL     1      -1.471  -3.928   4.690  0.00  0.00    -0.507 OA
ATOM     20  H   UNL     1      -2.290  -3.831   5.196  0.00  0.00    +0.292 HD
ENDBRANCH  10  19
BRANCH   8  21
ATOM     21  O   UNL     1      -0.378   0.137   2.482  0.00  0.00    -0.506 OA
ATOM     22  H   UNL     1      -1.039   0.816   2.673  0.00  0.00    +0.292 HD
ENDBRANCH   8  21
TORSDOF 3
