REMARK  Name = ZINC25879675
REMARK  4 active torsions:
REMARK  status: ('A' for Active; 'I' for Inactive)
REMARK    1  A    between atoms: C_4  and  C_7
REMARK    2  A    between atoms: C_11  and  C_12
REMARK    3  A    between atoms: N_14  and  C_15
REMARK    4  A    between atoms: C_18  and  N_21
REMARK                            x       y       z     vdW  Elec       q    Type
REMARK                         _______ _______ _______ _____ _____    ______ ____
ROOT
ATOM      1  C   UNL     1       3.111  -2.361   1.856  0.00  0.00    +0.255 C 
ATOM      2  O   UNL     1       1.946  -2.030   1.972  0.00  0.00    -0.269 OA
ATOM      3  N   UNL     1       3.646  -3.257   2.708  0.00  0.00    -0.281 N 
ATOM      4  H   UNL     1       4.552  -3.576   2.571  0.00  0.00    +0.155 HD
ENDROOT
BRANCH   3   5
ATOM      5  C   UNL     1       2.894  -3.727   3.792  0.00  0.00    +0.034 A 
ATOM      6  C   UNL     1       3.065  -5.030   4.242  0.00  0.00    +0.025 A 
ATOM      7  C   UNL     1       2.324  -5.494   5.310  0.00  0.00    +0.025 A 
ATOM      8  C   UNL     1       1.407  -4.658   5.934  0.00  0.00    +0.035 A 
ATOM      9  C   UNL     1       1.237  -3.356   5.484  0.00  0.00    +0.025 A 
ATOM     10  C   UNL     1       1.982  -2.889   4.420  0.00  0.00    +0.025 A 
BRANCH   8  11
ATOM     11  N   UNL     1       0.655  -5.129   7.019  0.00  0.00    -0.270 N 
ATOM     12  C   UNL     1      -0.619  -4.721   7.182  0.00  0.00    +0.301 C 
ATOM     13  O   UNL     1      -1.089  -3.881   6.439  0.00  0.00    -0.253 OA
ATOM     14  N   UNL     1      -1.372  -5.244   8.170  0.00  0.00    -0.313 N 
ATOM     15  H   UNL     1       1.051  -5.748   7.651  0.00  0.00    +0.156 HD
ATOM     16  H   UNL     1      -0.997  -5.914   8.763  0.00  0.00    +0.146 HD
ATOM     17  H   UNL     1      -2.289  -4.950   8.288  0.00  0.00    +0.146 HD
ENDBRANCH   8  11
ENDBRANCH   3   5
BRANCH   1  22
ATOM     18  C   UNL     1       3.578  -0.851  -0.189  0.00  0.00    +0.001 A 
ATOM     19  C   UNL     1       4.593  -0.497  -1.062  0.00  0.00    +0.017 A 
ATOM     20  C   UNL     1       5.812  -1.062  -0.916  0.00  0.00    +0.046 A 
ATOM     21  S   UNL     1       5.644  -2.093   0.399  0.00  0.00    -0.091 S 
ATOM     22  C   UNL     1       3.932  -1.785   0.790  0.00  0.00    +0.082 A 
BRANCH  18  26
ATOM     23  C   UNL     1      -0.332   0.795  -0.456  0.00  0.00    +0.000 A 
ATOM     24  C   UNL     1       0.770   1.632  -0.459  0.00  0.00    +0.001 A 
ATOM     25  C   UNL     1       2.041   1.104  -0.372  0.00  0.00    +0.008 A 
ATOM     26  C   UNL     1       2.215  -0.277  -0.281  0.00  0.00    -0.017 A 
ATOM     27  C   UNL     1       1.100  -1.116  -0.278  0.00  0.00    +0.008 A 
ATOM     28  C   UNL     1      -0.166  -0.575  -0.366  0.00  0.00    +0.001 A 
ENDBRANCH  18  26
ENDBRANCH   1  22
TORSDOF 4
