REMARK  Name = ZINC40370922
REMARK  8 active torsions:
REMARK  status: ('A' for Active; 'I' for Inactive)
REMARK    1  A    between atoms: C_1  and  C_2
REMARK    2  A    between atoms: C_2  and  C_3
REMARK    3  A    between atoms: C_3  and  C_4
REMARK    4  A    between atoms: C_3  and  C_6
REMARK    5  A    between atoms: C_3  and  N_10
REMARK    6  A    between atoms: C_4  and  C_5
REMARK    7  A    between atoms: N_7  and  O_8
REMARK    8  A    between atoms: C_11  and  C_13
REMARK                            x       y       z     vdW  Elec       q    Type
REMARK                         _______ _______ _______ _____ _____    ______ ____
ROOT
ATOM      1  C   UNL     1      -1.401  -0.635  -0.058  0.00  0.00    +0.093 C 
ENDROOT
BRANCH   1   2
ATOM      2  C   UNL     1      -2.205  -0.153   1.122  0.00  0.00    +0.155 C 
ATOM      3  N   UNL     1      -2.499  -0.968   2.080  0.00  0.00    -0.075 NA
ATOM      4  N   UNL     1      -2.628   1.157   1.177  0.00  0.00    -0.342 N 
ATOM      5  H   UNL     1      -2.342   1.788   0.499  0.00  0.00    +0.144 HD
ATOM      6  H   UNL     1      -3.212   1.448   1.895  0.00  0.00    +0.144 HD
BRANCH   3   7
ATOM      7  O   UNL     1      -3.255  -0.514   3.188  0.00  0.00    -0.408 OA
ATOM      8  H   UNL     1      -3.424  -1.195   3.854  0.00  0.00    +0.328 HD
ENDBRANCH   3   7
ENDBRANCH   1   2
BRANCH   1   9
ATOM      9  N   UNL     1      -2.123  -0.336  -1.297  0.00  0.00    -0.299 N 
ATOM     10  C   UNL     1      -1.590  -0.679  -2.486  0.00  0.00    +0.246 C 
ATOM     11  O   UNL     1      -0.511  -1.237  -2.531  0.00  0.00    -0.270 OA
ATOM     12  H   UNL     1      -2.984   0.109  -1.261  0.00  0.00    +0.150 HD
BRANCH  10  13
ATOM     13  C   UNL     1      -2.319  -0.377  -3.736  0.00  0.00    +0.051 A 
ATOM     14  C   UNL     1      -3.556   0.268  -3.689  0.00  0.00    +0.014 A 
ATOM     15  C   UNL     1      -4.230   0.548  -4.859  0.00  0.00    +0.001 A 
ATOM     16  C   UNL     1      -3.684   0.189  -6.079  0.00  0.00    +0.001 A 
ATOM     17  C   UNL     1      -2.459  -0.451  -6.135  0.00  0.00    +0.016 A 
ATOM     18  C   UNL     1      -1.770  -0.731  -4.971  0.00  0.00    +0.030 A 
ATOM     19 BR   UNL     1      -0.092  -1.599  -5.049  0.00  0.00    -0.050 Br
ENDBRANCH  10  13
ENDBRANCH   1   9
BRANCH   1  21
ATOM     20  C   UNL     1       0.654  -0.133   1.272  0.00  0.00    +0.006 C 
ATOM     21  C   UNL     1      -0.045   0.073  -0.074  0.00  0.00    +0.030 C 
ENDBRANCH   1  21
BRANCH   1  22
ATOM     22  C   UNL     1      -1.186  -2.146   0.055  0.00  0.00    +0.030 C 
ATOM     23  C   UNL     1      -2.534  -2.862  -0.054  0.00  0.00    +0.006 C 
ENDBRANCH   1  22
TORSDOF 6
