REMARK  Name = ZINC40561834
REMARK  12 active torsions:
REMARK  status: ('A' for Active; 'I' for Inactive)
REMARK    1  A    between atoms: C_1  and  C_2
REMARK    2  A    between atoms: C_2  and  C_3
REMARK    3  A    between atoms: N_16  and  C_34
REMARK    4  A    between atoms: C_17  and  C_19
REMARK    5  A    between atoms: C_23  and  O_25
REMARK    6  A    between atoms: O_25  and  C_26
REMARK    7  A    between atoms: C_26  and  C_27
REMARK    8  A    between atoms: C_34  and  C_35
REMARK    9  A    between atoms: C_35  and  C_36
REMARK   10  A    between atoms: C_36  and  N_37
REMARK   11  A    between atoms: N_37  and  C_38
REMARK   12  A    between atoms: N_37  and  C_39
REMARK                            x       y       z     vdW  Elec       q    Type
REMARK                         _______ _______ _______ _____ _____    ______ ____
ROOT
ATOM      1  C   UNL     1       0.707  -0.490  -1.238  0.00  0.00    -0.047 A 
ATOM      2  C   UNL     1      -0.016  -0.719  -2.400  0.00  0.00    +0.007 A 
ATOM      3  C   UNL     1       0.609  -1.166  -3.543  0.00  0.00    +0.047 A 
ATOM      4  C   UNL     1       1.985  -1.393  -3.544  0.00  0.00    +0.139 A 
ATOM      5  C   UNL     1       2.707  -1.153  -2.364  0.00  0.00    +0.065 A 
ATOM      6  C   UNL     1       2.058  -0.699  -1.216  0.00  0.00    +0.019 A 
ATOM      7  C   UNL     1       4.175  -1.377  -2.359  0.00  0.00    +0.199 A 
ATOM      8  O   UNL     1       4.850  -1.357  -1.345  0.00  0.00    -0.287 OA
ATOM      9  C   UNL     1       4.734  -1.627  -3.692  0.00  0.00    +0.072 A 
ATOM     10  C   UNL     1       3.921  -1.838  -4.769  0.00  0.00    +0.199 A 
ATOM     11  O   UNL     1       2.576  -1.839  -4.675  0.00  0.00    -0.450 OA
ATOM     12  C   UNL     1       4.769  -2.048  -5.955  0.00  0.00    +0.283 C 
ATOM     13  O   UNL     1       4.356  -2.259  -7.078  0.00  0.00    -0.267 OA
ATOM     14  N   UNL     1       6.072  -1.972  -5.613  0.00  0.00    -0.284 N 
ATOM     15  C   UNL     1       6.148  -1.704  -4.167  0.00  0.00    +0.145 C 
ENDROOT
BRANCH  15  16
ATOM     16  C   UNL     1       6.852  -0.395  -3.918  0.00  0.00    -0.019 A 
ATOM     17  C   UNL     1       6.637   0.678  -4.763  0.00  0.00    +0.006 A 
ATOM     18  C   UNL     1       7.282   1.879  -4.537  0.00  0.00    +0.004 A 
ATOM     19  C   UNL     1       8.143   2.011  -3.465  0.00  0.00    +0.045 A 
ATOM     20  C   UNL     1       8.361   0.937  -2.615  0.00  0.00    +0.121 A 
ATOM     21  C   UNL     1       7.708  -0.266  -2.841  0.00  0.00    +0.051 A 
BRANCH  20  22
ATOM     22  O   UNL     1       9.208   1.064  -1.560  0.00  0.00    -0.487 OA
BRANCH  22  23
ATOM     23  C   UNL     1       9.841   2.334  -1.386  0.00  0.00    +0.266 C 
BRANCH  23  24
ATOM     24  C   UNL     1      10.737   2.286  -0.175  0.00  0.00    +0.008 A 
ATOM     25  C   UNL     1      10.841   1.121   0.562  0.00  0.00    +0.008 A 
ATOM     26  C   UNL     1      11.663   1.078   1.673  0.00  0.00    +0.000 A 
ATOM     27  C   UNL     1      12.380   2.199   2.047  0.00  0.00    +0.001 A 
ATOM     28  C   UNL     1      12.277   3.364   1.311  0.00  0.00    +0.020 A 
ATOM     29  C   UNL     1      11.459   3.406   0.196  0.00  0.00    +0.047 A 
ATOM     30 CL   UNL     1      11.333   4.867  -0.733  0.00  0.00    -0.083 Cl
ENDBRANCH  23  24
ENDBRANCH  22  23
ENDBRANCH  20  22
ENDBRANCH  15  16
BRANCH   1  32
ATOM     31  C   UNL     1      -0.019   1.526   0.010  0.00  0.00    +0.009 C 
ATOM     32  C   UNL     1       0.002  -0.004   0.002  0.00  0.00    +0.032 C 
ENDBRANCH   1  32
BRANCH  14  33
ATOM     33  C   UNL     1       7.211  -2.129  -6.520  0.00  0.00    +0.107 C 
BRANCH  33  34
ATOM     34  C   UNL     1       7.594  -0.765  -7.099  0.00  0.00    +0.000 C 
BRANCH  34  35
ATOM     35  C   UNL     1       8.784  -0.929  -8.046  0.00  0.00    -0.078 C 
BRANCH  35  36
ATOM     36  N   UNL     1       9.152   0.381  -8.602  0.00  0.00    +0.376 N 
ATOM     37  C   UNL     1       9.632   1.253  -7.522  0.00  0.00    -0.097 C 
ATOM     38  C   UNL     1      10.214   0.208  -9.601  0.00  0.00    -0.097 C 
ATOM     39  H   UNL     1       8.344   0.800  -9.038  0.00  0.00    -0.083 HD
ENDBRANCH  35  36
ENDBRANCH  34  35
ENDBRANCH  33  34
ENDBRANCH  14  33
TORSDOF 9
