REMARK  Name = ZINC39357111
REMARK  10 active torsions:
REMARK  status: ('A' for Active; 'I' for Inactive)
REMARK    1  A    between atoms: C_1  and  N_2
REMARK    2  A    between atoms: N_2  and  C_3
REMARK    3  A    between atoms: N_2  and  C_31
REMARK    4  A    between atoms: C_3  and  C_4
REMARK    5  A    between atoms: C_8  and  O_10
REMARK    6  A    between atoms: O_10  and  C_11
REMARK    7  A    between atoms: C_11  and  C_12
REMARK    8  A    between atoms: C_12  and  C_13
REMARK    9  A    between atoms: C_20  and  C_22
REMARK   10  A    between atoms: C_31  and  C_32
REMARK                            x       y       z     vdW  Elec       q    Type
REMARK                         _______ _______ _______ _____ _____    ______ ____
ROOT
ATOM      1  C   UNL     1      -1.360   0.294   1.614  0.00  0.00    -0.060 A 
ATOM      2  C   UNL     1      -1.104  -0.405   2.780  0.00  0.00    +0.002 A 
ATOM      3  C   UNL     1      -1.739  -0.050   3.955  0.00  0.00    +0.004 A 
ATOM      4  C   UNL     1      -2.632   1.005   3.967  0.00  0.00    +0.045 A 
ATOM      5  C   UNL     1      -2.891   1.707   2.800  0.00  0.00    +0.121 A 
ATOM      6  C   UNL     1      -2.247   1.352   1.623  0.00  0.00    +0.047 A 
ENDROOT
BRANCH   1   7
ATOM      7  C   UNL     1      -0.666  -0.097   0.335  0.00  0.00    -0.043 C 
BRANCH   7   9
ATOM      8  C   UNL     1       0.314   2.079   0.084  0.00  0.00    -0.095 C 
ATOM      9  N   UNL     1       0.598   0.644   0.218  0.00  0.00    +0.383 N 
ATOM     10  H   UNL     1       1.157   0.487   1.043  0.00  0.00    -0.081 HD
BRANCH   9  11
ATOM     11  C   UNL     1       1.331   0.177  -0.967  0.00  0.00    -0.041 C 
BRANCH  11  12
ATOM     12  C   UNL     1       2.680   0.847  -1.019  0.00  0.00    -0.038 A 
ATOM     13  C   UNL     1       2.879   1.920  -1.833  0.00  0.00    +0.004 A 
ATOM     14  C   UNL     1       4.117   2.554  -1.897  0.00  0.00    +0.001 A 
ATOM     15  C   UNL     1       5.165   2.118  -1.144  0.00  0.00    +0.010 A 
ATOM     16  C   UNL     1       4.996   1.015  -0.293  0.00  0.00    +0.001 A 
ATOM     17  C   UNL     1       3.735   0.371  -0.222  0.00  0.00    +0.072 A 
ATOM     18  N   UNL     1       3.568  -0.677   0.590  0.00  0.00    -0.255 NA
ATOM     19  C   UNL     1       4.549  -1.125   1.335  0.00  0.00    +0.111 A 
ATOM     20  C   UNL     1       5.811  -0.535   1.318  0.00  0.00    +0.020 A 
ATOM     21  C   UNL     1       6.054   0.533   0.501  0.00  0.00    +0.011 A 
ENDBRANCH  11  12
ENDBRANCH   9  11
ENDBRANCH   7   9
ENDBRANCH   1   7
BRANCH   5  22
ATOM     22  O   UNL     1      -3.768   2.744   2.809  0.00  0.00    -0.492 OA
BRANCH  22  23
ATOM     23  C   UNL     1      -4.389   3.057   4.058  0.00  0.00    +0.231 C 
BRANCH  23  24
ATOM     24  C   UNL     1      -5.337   4.244   3.873  0.00  0.00    +0.063 C 
BRANCH  24  25
ATOM     25  C   UNL     1      -6.096   4.499   5.177  0.00  0.00    +0.079 C 
ATOM     26  C   UNL     1      -5.098   4.785   6.304  0.00  0.00    +0.022 C 
ATOM     27  C   UNL     1      -5.864   5.175   7.570  0.00  0.00    +0.003 C 
ATOM     28  C   UNL     1      -6.673   6.447   7.307  0.00  0.00    +0.019 C 
ATOM     29  C   UNL     1      -7.689   6.180   6.192  0.00  0.00    +0.108 C 
ATOM     30  N   UNL     1      -6.977   5.663   5.014  0.00  0.00    -0.296 N 
ATOM     31  C   UNL     1      -7.127   6.249   3.809  0.00  0.00    +0.246 C 
ATOM     32  O   UNL     1      -6.609   5.758   2.829  0.00  0.00    -0.273 OA
BRANCH  31  33
ATOM     33  C   UNL     1      -7.937   7.513   3.681  0.00  0.00    +0.241 C 
ATOM     34  C   UNL     1      -9.415   7.196   3.590  0.00  0.00    -0.012 C 
ATOM     35  C   UNL     1      -9.789   7.661   2.399  0.00  0.00    +0.065 C 
ATOM     36  C   UNL     1     -11.269   7.402   2.186  0.00  0.00    +0.057 C 
ATOM     37  C   UNL     1     -11.645   6.332   3.235  0.00  0.00    +0.011 C 
ATOM     38  C   UNL     1     -10.573   6.570   4.322  0.00  0.00    +0.035 C 
ATOM     39  N   UNL     1      -8.721   8.217   1.763  0.00  0.00    -0.158 NA
ATOM     40  N   UNL     1      -7.662   8.181   2.398  0.00  0.00    -0.170 NA
ENDBRANCH  31  33
ENDBRANCH  24  25
ENDBRANCH  23  24
ENDBRANCH  22  23
ENDBRANCH   5  22
TORSDOF 9
