REMARK  Name = ZINC58168748
REMARK  9 active torsions:
REMARK  status: ('A' for Active; 'I' for Inactive)
REMARK    1  A    between atoms: C_1  and  C_2
REMARK    2  A    between atoms: C_5  and  N_8
REMARK    3  A    between atoms: N_8  and  C_9
REMARK    4  A    between atoms: C_9  and  C_10
REMARK    5  A    between atoms: N_12  and  N_13
REMARK    6  A    between atoms: C_14  and  C_16
REMARK    7  A    between atoms: C_16  and  C_17
REMARK    8  A    between atoms: C_17  and  C_18
REMARK    9  A    between atoms: C_18  and  C_19
REMARK                            x       y       z     vdW  Elec       q    Type
REMARK                         _______ _______ _______ _____ _____    ______ ____
ROOT
ATOM      1  N   UNL     1       0.126  -8.644   1.716  0.00  0.00    -0.234 N 
ATOM      2  C   UNL     1       0.143  -9.525   2.736  0.00  0.00    +0.229 C 
ATOM      3  O   UNL     1       0.143  -9.127   3.881  0.00  0.00    -0.274 OA
ATOM      4  H   UNL     1       0.126  -8.962   0.800  0.00  0.00    +0.173 HD
ENDROOT
BRANCH   1   7
ATOM      5  C   UNL     1       0.092  -6.387   0.960  0.00  0.00    +0.246 C 
ATOM      6  O   UNL     1       0.092  -6.785  -0.185  0.00  0.00    -0.273 OA
ATOM      7  N   UNL     1       0.109  -7.268   1.980  0.00  0.00    -0.233 N 
ATOM      8  H   UNL     1       0.109  -6.950   2.896  0.00  0.00    +0.173 HD
BRANCH   5   9
ATOM      9  C   UNL     1       0.074  -4.907   1.244  0.00  0.00    +0.199 C 
BRANCH   9  10
ATOM     10  N   UNL     1       0.058  -4.167  -0.021  0.00  0.00    -0.335 N 
ATOM     11  H   UNL     1       0.060  -4.648  -0.864  0.00  0.00    +0.147 HD
BRANCH  10  16
ATOM     12  C   UNL     1      -0.018   1.503   0.010  0.00  0.00    +0.044 C 
ATOM     13  C   UNL     1       0.002  -0.004   0.002  0.00  0.00    -0.050 A 
ATOM     14  C   UNL     1       0.006  -0.687  -1.200  0.00  0.00    +0.005 A 
ATOM     15  C   UNL     1       0.024  -2.068  -1.212  0.00  0.00    +0.023 A 
ATOM     16  C   UNL     1       0.040  -2.771  -0.013  0.00  0.00    +0.028 A 
ATOM     17  C   UNL     1       0.036  -2.081   1.193  0.00  0.00    +0.023 A 
ATOM     18  C   UNL     1       0.023  -0.700   1.197  0.00  0.00    +0.005 A 
ENDBRANCH  10  16
ENDBRANCH   9  10
ENDBRANCH   5   9
ENDBRANCH   1   7
BRANCH   2  19
ATOM     19  C   UNL     1       0.161 -11.005   2.452  0.00  0.00    +0.097 C 
BRANCH  19  20
ATOM     20  C   UNL     1       0.178 -11.777   3.773  0.00  0.00    +0.014 C 
BRANCH  20  21
ATOM     21  C   UNL     1       0.196 -13.280   3.485  0.00  0.00    +0.038 C 
BRANCH  21  22
ATOM     22  C   UNL     1       0.213 -14.040   4.786  0.00  0.00    -0.022 A 
ATOM     23  C   UNL     1       1.297 -14.505   5.426  0.00  0.00    +0.087 A 
ATOM     24  N   UNL     1       0.923 -15.145   6.576  0.00  0.00    -0.360 N 
ATOM     25  H   UNL     1       1.532 -15.563   7.205  0.00  0.00    +0.165 HD
ATOM     26  C   UNL     1      -0.447 -15.106   6.708  0.00  0.00    +0.047 A 
ATOM     27  C   UNL     1      -0.952 -14.407   5.596  0.00  0.00    +0.003 A 
ATOM     28  C   UNL     1      -2.327 -14.206   5.465  0.00  0.00    +0.010 A 
ATOM     29  C   UNL     1      -3.177 -14.687   6.421  0.00  0.00    +0.001 A 
ATOM     30  C   UNL     1      -2.684 -15.374   7.522  0.00  0.00    +0.002 A 
ATOM     31  C   UNL     1      -1.331 -15.591   7.666  0.00  0.00    +0.026 A 
ENDBRANCH  21  22
ENDBRANCH  20  21
ENDBRANCH  19  20
ENDBRANCH   2  19
TORSDOF 8
