REMARK  Name = ZINC63775732
REMARK  10 active torsions:
REMARK  status: ('A' for Active; 'I' for Inactive)
REMARK    1  A    between atoms: C_1  and  C_2
REMARK    2  A    between atoms: C_7  and  C_10
REMARK    3  A    between atoms: C_11  and  C_13
REMARK    4  A    between atoms: C_13  and  O_14
REMARK    5  A    between atoms: O_14  and  C_15
REMARK    6  A    between atoms: C_15  and  C_17
REMARK    7  A    between atoms: C_17  and  C_19
REMARK    8  A    between atoms: C_17  and  N_29
REMARK    9  A    between atoms: C_19  and  C_20
REMARK   10  A    between atoms: C_30  and  C_32
REMARK                            x       y       z     vdW  Elec       q    Type
REMARK                         _______ _______ _______ _____ _____    ______ ____
ROOT
ATOM      1  C   UNL     1      -3.675  -7.058  -2.381  0.00  0.00    +0.186 C 
ENDROOT
BRANCH   1   2
ATOM      2  N   UNL     1      -3.567  -8.496  -2.122  0.00  0.00    -0.298 N 
ATOM      3  C   UNL     1      -3.765  -9.378  -3.122  0.00  0.00    +0.245 C 
ATOM      4  O   UNL     1      -4.033  -8.980  -4.239  0.00  0.00    -0.270 OA
ATOM      5  H   UNL     1      -3.353  -8.813  -1.230  0.00  0.00    +0.150 HD
BRANCH   3   6
ATOM      6  C   UNL     1      -3.656 -10.828  -2.860  0.00  0.00    +0.037 A 
ATOM      7  C   UNL     1      -3.354 -11.288  -1.577  0.00  0.00    +0.014 A 
ATOM      8  C   UNL     1      -3.254 -12.643  -1.339  0.00  0.00    +0.021 A 
ATOM      9  C   UNL     1      -3.452 -13.546  -2.370  0.00  0.00    +0.041 A 
ATOM     10  C   UNL     1      -3.752 -13.096  -3.645  0.00  0.00    +0.021 A 
ATOM     11  C   UNL     1      -3.860 -11.744  -3.894  0.00  0.00    +0.014 A 
ATOM     12 CL   UNL     1      -3.323 -15.250  -2.063  0.00  0.00    -0.084 Cl
ENDBRANCH   3   6
ENDBRANCH   1   2
BRANCH   1  13
ATOM     13  C   UNL     1      -2.854  -6.302  -1.369  0.00  0.00    +0.328 C 
ATOM     14  O   UNL     1      -2.242  -6.902  -0.518  0.00  0.00    -0.249 OA
BRANCH  13  15
ATOM     15  O   UNL     1      -2.804  -4.961  -1.412  0.00  0.00    -0.454 OA
BRANCH  15  16
ATOM     16  C   UNL     1      -2.006  -4.310  -0.421  0.00  0.00    +0.327 C 
BRANCH  16  25
ATOM     17  C   UNL     1      -0.019   1.526   0.010  0.00  0.00    +0.039 C 
ATOM     18  C   UNL     1       0.002  -0.004   0.002  0.00  0.00    +0.133 C 
ATOM     19  C   UNL     1      -1.436  -0.536   0.015  0.00  0.00    +0.139 C 
ATOM     20  N   UNL     1      -1.389  -1.995   0.196  0.00  0.00    -0.294 N 
ATOM     21  C   UNL     1      -0.578  -2.530   1.302  0.00  0.00    +0.139 C 
ATOM     22  C   UNL     1       0.818  -1.901   1.226  0.00  0.00    +0.133 C 
ATOM     23  O   UNL     1       0.691  -0.479   1.161  0.00  0.00    -0.371 OA
ATOM     24  C   UNL     1       1.539  -2.407  -0.025  0.00  0.00    +0.039 C 
ATOM     25  C   UNL     1      -2.069  -2.818  -0.627  0.00  0.00    +0.253 C 
ATOM     26  O   UNL     1      -2.732  -2.358  -1.532  0.00  0.00    -0.272 OA
ENDBRANCH  16  25
ENDBRANCH  15  16
ENDBRANCH  13  15
ENDBRANCH   1  13
BRANCH   1  27
ATOM     27  C   UNL     1      -5.140  -6.629  -2.273  0.00  0.00    +0.067 C 
BRANCH  27  28
ATOM     28  C   UNL     1      -5.940  -7.292  -3.365  0.00  0.00    -0.039 C 
ATOM     29  C   UNL     1      -6.650  -8.439  -3.270  0.00  0.00    -0.001 A 
ATOM     30  C   UNL     1      -6.881  -9.378  -2.165  0.00  0.00    +0.010 A 
ATOM     31  C   UNL     1      -7.657 -10.465  -2.379  0.00  0.00    +0.001 A 
ATOM     32  C   UNL     1      -8.243 -10.717  -3.626  0.00  0.00    +0.002 A 
ATOM     33  C   UNL     1      -8.077  -9.902  -4.689  0.00  0.00    +0.026 A 
ATOM     34  C   UNL     1      -7.282  -8.729  -4.577  0.00  0.00    +0.043 A 
ATOM     35  N   UNL     1      -6.973  -7.797  -5.446  0.00  0.00    -0.380 N 
ATOM     36  C   UNL     1      -6.116  -6.806  -4.786  0.00  0.00    +0.144 C 
ATOM     37  H   UNL     1      -7.267  -7.765  -6.370  0.00  0.00    +0.160 HD
ENDBRANCH  27  28
ENDBRANCH   1  27
TORSDOF 8
