REMARK  Name = ZINC46920459
REMARK  5 active torsions:
REMARK  status: ('A' for Active; 'I' for Inactive)
REMARK    1  A    between atoms: C_4  and  N_7
REMARK    2  A    between atoms: C_8  and  C_14
REMARK    3  A    between atoms: N_16  and  C_17
REMARK    4  A    between atoms: N_22  and  C_24
REMARK    5  A    between atoms: C_24  and  C_25
REMARK                            x       y       z     vdW  Elec       q    Type
REMARK                         _______ _______ _______ _____ _____    ______ ____
ROOT
ATOM      1  C   UNL     1       3.302  -3.638   1.132  0.00  0.00    +0.267 C 
ATOM      2  O   UNL     1       2.496  -3.682   2.043  0.00  0.00    -0.268 OA
ATOM      3  N   UNL     1       3.285  -4.584   0.172  0.00  0.00    -0.279 N 
ATOM      4  H   UNL     1       3.969  -4.589  -0.516  0.00  0.00    +0.155 HD
ENDROOT
BRANCH   1   6
ATOM      5  N   UNL     1       4.505  -1.579   2.056  0.00  0.00    -0.284 N 
ATOM      6  C   UNL     1       4.290  -2.557   1.078  0.00  0.00    +0.127 A 
ATOM      7  C   UNL     1       5.165  -2.319   0.075  0.00  0.00    +0.116 A 
ATOM      8  N   UNL     1       5.908  -1.220   0.417  0.00  0.00    -0.339 N 
ATOM      9  H   UNL     1       6.613  -0.825  -0.120  0.00  0.00    +0.167 HD
ATOM     10  C   UNL     1       5.495  -0.776   1.619  0.00  0.00    +0.163 A 
ATOM     11  S   UNL     1       6.124   0.579   2.454  0.00  0.00    -0.013 S 
BRANCH   5  15
ATOM     12  C   UNL     1       2.445  -1.208   5.659  0.00  0.00    +0.000 A 
ATOM     13  C   UNL     1       3.175  -2.353   5.396  0.00  0.00    +0.002 A 
ATOM     14  C   UNL     1       3.859  -2.479   4.203  0.00  0.00    +0.026 A 
ATOM     15  C   UNL     1       3.812  -1.455   3.266  0.00  0.00    +0.049 A 
ATOM     16  C   UNL     1       3.078  -0.306   3.533  0.00  0.00    +0.026 A 
ATOM     17  C   UNL     1       2.397  -0.186   4.728  0.00  0.00    +0.002 A 
ENDBRANCH   5  15
ENDBRANCH   1   6
BRANCH   3  18
ATOM     18  C   UNL     1       2.277  -5.561   0.167  0.00  0.00    +0.050 A 
ATOM     19  C   UNL     1       0.926  -5.179   0.089  0.00  0.00    +0.030 A 
ATOM     20  C   UNL     1      -0.039  -6.143   0.085  0.00  0.00    +0.072 A 
ATOM     21  C   UNL     1       0.336  -7.495   0.158  0.00  0.00    +0.252 A 
ATOM     22  O   UNL     1      -0.520  -8.366   0.155  0.00  0.00    -0.268 OA
ATOM     23  N   UNL     1       1.637  -7.833   0.232  0.00  0.00    -0.309 N 
ATOM     24  C   UNL     1       2.605  -6.878   0.231  0.00  0.00    +0.112 A 
BRANCH  23  25
ATOM     25  C   UNL     1       2.015  -9.246   0.308  0.00  0.00    +0.161 C 
BRANCH  25  26
ATOM     26  C   UNL     1       2.209  -9.790  -1.084  0.00  0.00    -0.009 A 
ATOM     27  C   UNL     1       1.206 -10.527  -1.685  0.00  0.00    +0.007 A 
ATOM     28  C   UNL     1       1.383 -11.025  -2.962  0.00  0.00    +0.000 A 
ATOM     29  C   UNL     1       2.565 -10.787  -3.639  0.00  0.00    +0.001 A 
ATOM     30  C   UNL     1       3.569 -10.051  -3.040  0.00  0.00    +0.020 A 
ATOM     31  C   UNL     1       3.389  -9.546  -1.764  0.00  0.00    +0.046 A 
ATOM     32 CL   UNL     1       4.648  -8.616  -1.012  0.00  0.00    -0.083 Cl
ENDBRANCH  25  26
ENDBRANCH  23  25
ENDBRANCH   3  18
TORSDOF 5
