REMARK  Name = ZINC34411984
REMARK  1 active torsions:
REMARK  status: ('A' for Active; 'I' for Inactive)
REMARK    1  A    between atoms: C_1  and  N_2
REMARK                            x       y       z     vdW  Elec       q    Type
REMARK                         _______ _______ _______ _____ _____    ______ ____
ROOT
ATOM      1  C   UNL     1      -0.018   1.461   0.010  0.00  0.00    +0.172 C 
ATOM      2  N   UNL     1       0.002  -0.004   0.002  0.00  0.00    -0.273 N 
ATOM      3  C   UNL     1       0.008  -0.792  -1.094  0.00  0.00    +0.109 A 
ATOM      4  C   UNL     1       0.028  -2.079  -0.677  0.00  0.00    +0.056 A 
ATOM      5  C   UNL     1       0.035  -2.078   0.723  0.00  0.00    +0.128 A 
ATOM      6  N   UNL     1       0.025  -0.834   1.130  0.00  0.00    -0.165 NA
ATOM      7 BR   UNL     1       0.062  -3.608   1.833  0.00  0.00    -0.027 Br
ENDROOT
TORSDOF 0
