REMARK  Name = ZINC40824627
REMARK  5 active torsions:
REMARK  status: ('A' for Active; 'I' for Inactive)
REMARK    1  A    between atoms: C_1  and  C_2
REMARK    2  A    between atoms: C_6  and  C_7
REMARK    3  A    between atoms: N_14  and  N_15
REMARK    4  A    between atoms: N_15  and  C_16
REMARK    5  A    between atoms: C_16  and  N_18
REMARK                            x       y       z     vdW  Elec       q    Type
REMARK                         _______ _______ _______ _____ _____    ______ ____
ROOT
ATOM      1  C   UNL     1      -0.018   1.503   0.010  0.00  0.00    +0.048 C 
ATOM      2  C   UNL     1       0.002  -0.004   0.002  0.00  0.00    +0.011 A 
ATOM      3  C   UNL     1       0.008  -0.837  -1.121  0.00  0.00    +0.042 A 
ATOM      4  C   UNL     1       0.027  -2.146  -0.665  0.00  0.00    +0.115 A 
ATOM      5  O   UNL     1       0.035  -2.115   0.664  0.00  0.00    -0.452 OA
ATOM      6  C   UNL     1       0.024  -0.832   1.093  0.00  0.00    +0.219 A 
ATOM      7  C   UNL     1       0.032  -3.334  -1.592  0.00  0.00    +0.075 C 
ATOM      8  C   UNL     1      -0.492  -2.908  -2.966  0.00  0.00    +0.014 C 
ATOM      9  C   UNL     1       0.281  -1.693  -3.489  0.00  0.00    +0.058 C 
ATOM     10  C   UNL     1       0.001  -0.516  -2.566  0.00  0.00    +0.070 C 
ATOM     11  N   UNL     1      -0.227   0.680  -3.013  0.00  0.00    -0.185 NA
ENDROOT
BRANCH   6  12
ATOM     12  C   UNL     1       0.031  -0.400   2.490  0.00  0.00    +0.421 C 
ATOM     13  O   UNL     1       0.017   0.794   2.762  0.00  0.00    -0.237 OA
ATOM     14  O   UNL     1       0.051  -1.233   3.388  0.00  0.00    -0.237 OA
ENDBRANCH   6  12
BRANCH  11  15
ATOM     15  N   UNL     1      -0.222   0.926  -4.392  0.00  0.00    -0.218 N 
ATOM     16  H   UNL     1      -0.047   0.202  -5.013  0.00  0.00    +0.176 HD
BRANCH  15  17
ATOM     17  C   UNL     1      -0.459   2.169  -4.856  0.00  0.00    +0.147 C 
ATOM     18  S   UNL     1      -0.452   2.469  -6.542  0.00  0.00    -0.017 S 
BRANCH  17  19
ATOM     19  N   UNL     1      -0.702   3.175  -3.993  0.00  0.00    -0.339 N 
ATOM     20  H   UNL     1      -0.705   3.006  -3.038  0.00  0.00    +0.144 HD
ATOM     21  H   UNL     1      -0.872   4.070  -4.327  0.00  0.00    +0.144 HD
ENDBRANCH  17  19
ENDBRANCH  15  17
ENDBRANCH  11  15
TORSDOF 4
