REMARK  Name = ZINC35760757
REMARK  15 active torsions:
REMARK  status: ('A' for Active; 'I' for Inactive)
REMARK    1  A    between atoms: C_1  and  N_2
REMARK    2  A    between atoms: N_2  and  C_3
REMARK    3  A    between atoms: N_2  and  C_32
REMARK    4  A    between atoms: C_4  and  C_14
REMARK    5  A    between atoms: C_5  and  C_8
REMARK    6  A    between atoms: C_14  and  N_15
REMARK    7  A    between atoms: N_15  and  C_16
REMARK    8  A    between atoms: N_15  and  C_23
REMARK    9  A    between atoms: C_16  and  C_17
REMARK   10  A    between atoms: C_23  and  C_24
REMARK   11  A    between atoms: C_24  and  C_26
REMARK   12  A    between atoms: C_24  and  O_31
REMARK   13  A    between atoms: C_26  and  O_27
REMARK   14  A    between atoms: O_27  and  C_28
REMARK   15  A    between atoms: C_28  and  C_29
REMARK                            x       y       z     vdW  Elec       q    Type
REMARK                         _______ _______ _______ _____ _____    ______ ____
ROOT
ATOM      1  C   UNL     1      -0.881  -1.011   1.168  0.00  0.00    +0.222 A 
ATOM      2  C   UNL     1      -0.631  -0.150   2.187  0.00  0.00    +0.025 A 
ATOM      3  C   UNL     1       0.015  -0.868   3.215  0.00  0.00    +0.117 A 
ATOM      4  N   UNL     1       0.144  -2.113   2.819  0.00  0.00    -0.076 NA
ATOM      5  O   UNL     1      -0.422  -2.222   1.526  0.00  0.00    -0.339 OA
ENDROOT
BRANCH   3   6
ATOM      6  C   UNL     1       0.470  -0.314   4.515  0.00  0.00    +0.004 A 
ATOM      7  C   UNL     1       1.128   0.913   4.560  0.00  0.00    +0.010 A 
ATOM      8  C   UNL     1       1.548   1.424   5.771  0.00  0.00    +0.001 A 
ATOM      9  C   UNL     1       1.316   0.720   6.939  0.00  0.00    +0.000 A 
ATOM     10  C   UNL     1       0.663  -0.498   6.900  0.00  0.00    +0.001 A 
ATOM     11  C   UNL     1       0.234  -1.016   5.695  0.00  0.00    +0.010 A 
ENDBRANCH   3   6
BRANCH   1  13
ATOM     12  C   UNL     1      -2.965  -0.720  -0.118  0.00  0.00    +0.132 C 
ATOM     13  N   UNL     1      -1.503  -0.697  -0.026  0.00  0.00    -0.299 N 
BRANCH  13  14
ATOM     14  C   UNL     1      -0.701  -0.343  -1.200  0.00  0.00    +0.076 C 
ATOM     15  C   UNL     1      -1.012  -1.312  -2.342  0.00  0.00    +0.022 C 
ATOM     16  C   UNL     1      -0.174  -0.942  -3.567  0.00  0.00    +0.002 C 
ATOM     17  C   UNL     1      -0.510   0.485  -4.003  0.00  0.00    +0.000 C 
ATOM     18  C   UNL     1      -0.199   1.454  -2.861  0.00  0.00    +0.002 C 
ATOM     19  C   UNL     1      -1.037   1.084  -1.635  0.00  0.00    +0.022 C 
ENDBRANCH  13  14
ENDBRANCH   1  13
BRANCH   2  20
ATOM     20  C   UNL     1      -0.982   1.315   2.216  0.00  0.00    -0.035 C 
BRANCH  20  21
ATOM     21  N   UNL     1      -2.381   1.476   2.637  0.00  0.00    +0.386 N 
ATOM     22  H   UNL     1      -2.980   0.951   2.018  0.00  0.00    -0.081 HD
BRANCH  21  23
ATOM     23  C   UNL     1      -2.748   2.897   2.586  0.00  0.00    -0.046 C 
BRANCH  23  24
ATOM     24  C   UNL     1      -2.631   3.402   1.146  0.00  0.00    +0.102 C 
ATOM     25  C   UNL     1      -3.097   4.872   1.068  0.00  0.00    +0.032 C 
ATOM     26  C   UNL     1      -3.867   4.902  -0.280  0.00  0.00    +0.030 C 
ATOM     27  C   UNL     1      -4.481   3.480  -0.300  0.00  0.00    +0.160 C 
ATOM     28  O   UNL     1      -3.481   2.631   0.290  0.00  0.00    -0.378 OA
ENDBRANCH  23  24
ENDBRANCH  21  23
BRANCH  21  29
ATOM     29  C   UNL     1      -2.539   0.978   4.010  0.00  0.00    -0.044 C 
BRANCH  29  30
ATOM     30  C   UNL     1      -4.023   0.971   4.382  0.00  0.00    +0.124 C 
BRANCH  30  31
ATOM     31  O   UNL     1      -4.495   2.315   4.483  0.00  0.00    -0.391 OA
ATOM     32  H   UNL     1      -4.036   2.844   5.150  0.00  0.00    +0.210 HD
ENDBRANCH  30  31
BRANCH  30  33
ATOM     33  C   UNL     1      -4.208   0.262   5.726  0.00  0.00    +0.190 C 
BRANCH  33  34
ATOM     34  O   UNL     1      -5.603   0.152   6.018  0.00  0.00    -0.365 OA
BRANCH  34  35
ATOM     35  C   UNL     1      -5.887  -0.498   7.258  0.00  0.00    +0.248 C 
BRANCH  35  36
ATOM     36  C   UNL     1      -7.344  -0.557   7.458  0.00  0.00    -0.077 C 
ATOM     37  C   UNL     1      -8.506  -0.604   7.617  0.00  0.00    +0.006 C 
ENDBRANCH  35  36
ENDBRANCH  34  35
ENDBRANCH  33  34
ENDBRANCH  30  33
ENDBRANCH  29  30
ENDBRANCH  21  29
ENDBRANCH  20  21
ENDBRANCH   2  20
TORSDOF 14
