REMARK  Name = ZINC09264047
REMARK  10 active torsions:
REMARK  status: ('A' for Active; 'I' for Inactive)
REMARK    1  A    between atoms: C_1  and  C_2
REMARK    2  A    between atoms: C_8  and  C_10
REMARK    3  A    between atoms: C_10  and  C_12
REMARK    4  A    between atoms: C_10  and  S_13
REMARK    5  A    between atoms: S_13  and  C_14
REMARK    6  A    between atoms: C_17  and  C_22
REMARK    7  A    between atoms: N_18  and  C_19
REMARK    8  A    between atoms: C_19  and  C_20
REMARK    9  A    between atoms: C_28  and  O_31
REMARK   10  A    between atoms: O_31  and  C_32
REMARK                            x       y       z     vdW  Elec       q    Type
REMARK                         _______ _______ _______ _____ _____    ______ ____
ROOT
ATOM      1  C   UNL     1      -2.050   2.052   2.437  0.00  0.00    +0.193 A 
ATOM      2  N   UNL     1      -2.880   1.401   3.223  0.00  0.00    -0.122 NA
ATOM      3  N   UNL     1      -3.428   0.432   2.583  0.00  0.00    -0.125 NA
ATOM      4  C   UNL     1      -2.987   0.407   1.344  0.00  0.00    +0.201 A 
ATOM      5  N   UNL     1      -2.085   1.441   1.216  0.00  0.00    -0.296 N 
ENDROOT
BRANCH   4   6
ATOM      6  C   UNL     1      -3.379  -0.547   0.295  0.00  0.00    +0.173 A 
ATOM      7  C   UNL     1      -4.031  -1.719   0.508  0.00  0.00    +0.061 A 
ATOM      8  C   UNL     1      -4.211  -2.329  -0.810  0.00  0.00    +0.025 A 
ATOM      9  C   UNL     1      -4.797  -3.514  -1.263  0.00  0.00    +0.012 A 
ATOM     10  C   UNL     1      -4.797  -3.806  -2.598  0.00  0.00    +0.004 A 
ATOM     11  C   UNL     1      -4.218  -2.934  -3.508  0.00  0.00    +0.049 A 
ATOM     12  C   UNL     1      -3.632  -1.756  -3.082  0.00  0.00    +0.163 A 
ATOM     13  C   UNL     1      -3.622  -1.440  -1.725  0.00  0.00    +0.177 A 
ATOM     14  O   UNL     1      -3.140  -0.393  -1.023  0.00  0.00    -0.448 OA
BRANCH  12  15
ATOM     15  O   UNL     1      -3.068  -0.908  -3.984  0.00  0.00    -0.491 OA
ATOM     16  C   UNL     1      -3.116  -1.298  -5.358  0.00  0.00    +0.277 C 
ENDBRANCH  12  15
ENDBRANCH   4   6
BRANCH   1  17
ATOM     17  S   UNL     1      -1.075   3.451   2.877  0.00  0.00    -0.073 S 
BRANCH  17  18
ATOM     18  C   UNL     1      -1.569   3.649   4.607  0.00  0.00    +0.137 C 
ATOM     19  C   UNL     1      -1.109   2.431   5.411  0.00  0.00    +0.029 C 
BRANCH  18  27
ATOM     20  C   UNL     1      -0.957   9.190   9.431  0.00  0.00    +0.066 C 
ATOM     21  C   UNL     1      -0.546   8.396   8.218  0.00  0.00    +0.047 A 
ATOM     22  C   UNL     1       0.523   8.771   7.473  0.00  0.00    +0.071 A 
ATOM     23  S   UNL     1       0.519   7.496   6.221  0.00  0.00    -0.060 S 
ATOM     24  C   UNL     1      -0.864   6.618   6.798  0.00  0.00    +0.165 A 
ATOM     25  N   UNL     1      -1.220   7.323   7.854  0.00  0.00    -0.230 NA
ATOM     26  N   UNL     1      -1.450   5.470   6.276  0.00  0.00    -0.264 N 
ATOM     27  C   UNL     1      -0.935   4.893   5.172  0.00  0.00    +0.232 C 
ATOM     28  O   UNL     1       0.039   5.376   4.633  0.00  0.00    -0.274 OA
ATOM     29  H   UNL     1      -2.228   5.084   6.707  0.00  0.00    +0.157 HD
ENDBRANCH  18  27
ENDBRANCH  17  18
ENDBRANCH   1  17
BRANCH   5  30
ATOM     30  C   UNL     1      -1.328   1.812   0.018  0.00  0.00    +0.152 C 
BRANCH  30  31
ATOM     31  C   UNL     1      -0.013   1.076   0.008  0.00  0.00    -0.013 C 
ATOM     32  C   UNL     1       1.113   1.746   0.001  0.00  0.00    +0.005 C 
ENDBRANCH  30  31
ENDBRANCH   5  30
TORSDOF 7
