REMARK  Name = ZINC38620994
REMARK  10 active torsions:
REMARK  status: ('A' for Active; 'I' for Inactive)
REMARK    1  A    between atoms: C_1  and  C_2
REMARK    2  A    between atoms: C_2  and  O_3
REMARK    3  A    between atoms: O_3  and  C_4
REMARK    4  A    between atoms: C_7  and  S_10
REMARK    5  A    between atoms: S_10  and  N_13
REMARK    6  A    between atoms: N_13  and  C_14
REMARK    7  A    between atoms: C_14  and  C_15
REMARK    8  A    between atoms: C_15  and  C_17
REMARK    9  A    between atoms: C_15  and  N_26
REMARK   10  A    between atoms: N_29  and  C_32
REMARK                            x       y       z     vdW  Elec       q    Type
REMARK                         _______ _______ _______ _____ _____    ______ ____
ROOT
ATOM      1  C   UNL     1      -3.206  -7.282   3.694  0.00  0.00    +0.102 C 
ENDROOT
BRANCH   1   2
ATOM      2  C   UNL     1      -4.461  -6.853   4.409  0.00  0.00    -0.025 A 
ATOM      3  C   UNL     1      -4.586  -7.062   5.769  0.00  0.00    +0.009 A 
ATOM      4  C   UNL     1      -5.736  -6.670   6.429  0.00  0.00    +0.050 A 
ATOM      5  C   UNL     1      -6.766  -6.066   5.728  0.00  0.00    +0.166 A 
ATOM      6  C   UNL     1      -6.641  -5.855   4.357  0.00  0.00    +0.167 A 
ATOM      7  C   UNL     1      -5.483  -6.245   3.703  0.00  0.00    +0.054 A 
ATOM      8  O   UNL     1      -7.777  -5.251   3.903  0.00  0.00    -0.453 OA
ATOM      9  C   UNL     1      -8.763  -5.465   4.930  0.00  0.00    +0.466 C 
ATOM     10  O   UNL     1      -7.982  -5.595   6.132  0.00  0.00    -0.453 OA
ENDBRANCH   1   2
BRANCH   1  11
ATOM     11  N   UNL     1      -3.509  -8.412   2.807  0.00  0.00    -0.291 NA
ATOM     12  C   UNL     1      -4.546  -8.052   1.830  0.00  0.00    +0.104 C 
ATOM     13  C   UNL     1      -4.704  -9.188   0.814  0.00  0.00    +0.120 C 
ATOM     14  N   UNL     1      -4.949 -10.439   1.548  0.00  0.00    -0.325 N 
ATOM     15  C   UNL     1      -4.028 -10.800   2.637  0.00  0.00    +0.120 C 
ATOM     16  C   UNL     1      -3.897  -9.599   3.580  0.00  0.00    +0.104 C 
BRANCH  14  17
ATOM     17  C   UNL     1      -6.029 -11.264   1.219  0.00  0.00    +0.065 A 
ATOM     18  C   UNL     1      -5.872 -12.273   0.278  0.00  0.00    +0.026 A 
ATOM     19  C   UNL     1      -6.941 -13.087  -0.045  0.00  0.00    +0.002 A 
ATOM     20  C   UNL     1      -8.166 -12.899   0.567  0.00  0.00    +0.003 A 
ATOM     21  C   UNL     1      -8.327 -11.895   1.505  0.00  0.00    +0.040 A 
ATOM     22  C   UNL     1      -7.261 -11.081   1.838  0.00  0.00    +0.144 A 
ATOM     23  F   UNL     1      -7.416 -10.104   2.758  0.00  0.00    -0.204 F 
ENDBRANCH  14  17
ENDBRANCH   1  11
BRANCH   1  24
ATOM     24  C   UNL     1      -2.666  -6.114   2.865  0.00  0.00    +0.129 C 
BRANCH  24  25
ATOM     25  N   UNL     1      -1.516  -6.564   2.078  0.00  0.00    -0.188 NA
ATOM     26  H   UNL     1      -1.080  -7.404   2.293  0.00  0.00    +0.148 HD
BRANCH  25  27
ATOM     27  S   UNL     1      -0.959  -5.639   0.822  0.00  0.00    +0.058 S 
ATOM     28  O   UNL     1      -2.092  -5.297   0.036  0.00  0.00    -0.153 OA
ATOM     29  O   UNL     1       0.165  -6.321   0.283  0.00  0.00    -0.153 OA
BRANCH  27  33
ATOM     30  C   UNL     1       0.601  -1.774   2.593  0.00  0.00    +0.121 A 
ATOM     31  C   UNL     1       1.450  -2.861   2.440  0.00  0.00    +0.047 A 
ATOM     32  C   UNL     1       0.971  -4.039   1.900  0.00  0.00    +0.032 A 
ATOM     33  C   UNL     1      -0.352  -4.136   1.512  0.00  0.00    +0.105 A 
ATOM     34  C   UNL     1      -1.200  -3.054   1.663  0.00  0.00    +0.032 A 
ATOM     35  C   UNL     1      -0.728  -1.875   2.208  0.00  0.00    +0.047 A 
BRANCH  30  36
ATOM     36  O   UNL     1       1.069  -0.615   3.125  0.00  0.00    -0.492 OA
BRANCH  36  38
ATOM     37  C   UNL     1       2.789   0.794   4.073  0.00  0.00    +0.048 C 
ATOM     38  C   UNL     1       2.448  -0.583   3.499  0.00  0.00    +0.225 C 
ENDBRANCH  36  38
ENDBRANCH  30  36
ENDBRANCH  27  33
ENDBRANCH  25  27
ENDBRANCH  24  25
ENDBRANCH   1  24
TORSDOF 9
