REMARK  Name = ZINC67239173
REMARK  6 active torsions:
REMARK  status: ('A' for Active; 'I' for Inactive)
REMARK    1  A    between atoms: C_6  and  C_11
REMARK    2  A    between atoms: C_11  and  C_12
REMARK    3  A    between atoms: C_12  and  C_13
REMARK    4  A    between atoms: N_15  and  C_16
REMARK    5  A    between atoms: C_19  and  C_22
REMARK    6  A    between atoms: C_22  and  N_23
REMARK                            x       y       z     vdW  Elec       q    Type
REMARK                         _______ _______ _______ _____ _____    ______ ____
ROOT
ATOM      1  C   UNL     1       6.790  -3.679   1.360  0.00  0.00    +0.218 C 
ATOM      2  O   UNL     1       7.307  -3.972   0.303  0.00  0.00    -0.275 OA
ATOM      3  N   UNL     1       7.393  -4.007   2.519  0.00  0.00    -0.285 N 
ATOM      4  H   UNL     1       7.015  -3.714   3.363  0.00  0.00    +0.155 HD
ENDROOT
BRANCH   3   5
ATOM      5  C   UNL     1       8.566  -4.770   2.506  0.00  0.00    +0.033 A 
ATOM      6  C   UNL     1       8.803  -5.699   3.511  0.00  0.00    +0.023 A 
ATOM      7  C   UNL     1       9.962  -6.451   3.495  0.00  0.00    +0.007 A 
ATOM      8  C   UNL     1      10.885  -6.279   2.480  0.00  0.00    -0.030 A 
ATOM      9  C   UNL     1      10.652  -5.355   1.478  0.00  0.00    +0.007 A 
ATOM     10  C   UNL     1       9.493  -4.604   1.485  0.00  0.00    +0.023 A 
BRANCH   8  11
ATOM     11  C   UNL     1      12.148  -7.101   2.466  0.00  0.00    +0.141 C 
BRANCH  11  12
ATOM     12  N   UNL     1      11.917  -8.338   1.715  0.00  0.00    -0.295 N 
ATOM     13  C   UNL     1      12.914  -9.234   1.569  0.00  0.00    +0.297 C 
ATOM     14  O   UNL     1      14.004  -9.015   2.061  0.00  0.00    -0.253 OA
ATOM     15  N   UNL     1      12.702 -10.371   0.878  0.00  0.00    -0.313 N 
ATOM     16  H   UNL     1      11.048  -8.512   1.322  0.00  0.00    +0.151 HD
ATOM     17  H   UNL     1      11.832 -10.545   0.486  0.00  0.00    +0.146 HD
ATOM     18  H   UNL     1      13.419 -11.016   0.774  0.00  0.00    +0.146 HD
ENDBRANCH  11  12
ENDBRANCH   8  11
ENDBRANCH   3   5
BRANCH   1  19
ATOM     19  C   UNL     1       5.473  -2.947   1.377  0.00  0.00    +0.101 C 
BRANCH  19  20
ATOM     20  C   UNL     1       5.009  -2.698  -0.060  0.00  0.00    +0.044 C 
BRANCH  20  26
ATOM     21  C   UNL     1       0.008   1.388   0.005  0.00  0.00    +0.001 A 
ATOM     22  C   UNL     1       1.197   2.115  -0.009  0.00  0.00    +0.001 A 
ATOM     23  C   UNL     1       2.403   1.485  -0.024  0.00  0.00    +0.008 A 
ATOM     24  C   UNL     1       2.454   0.081  -0.026  0.00  0.00    -0.018 A 
ATOM     25  C   UNL     1       3.681  -0.605  -0.042  0.00  0.00    +0.012 A 
ATOM     26  C   UNL     1       3.692  -1.966  -0.043  0.00  0.00    -0.046 A 
ATOM     27  C   UNL     1       2.503  -2.693  -0.029  0.00  0.00    +0.004 A 
ATOM     28  C   UNL     1       1.296  -2.063  -0.014  0.00  0.00    +0.009 A 
ATOM     29  C   UNL     1       1.245  -0.659  -0.012  0.00  0.00    -0.018 A 
ATOM     30  C   UNL     1       0.019   0.027   0.003  0.00  0.00    +0.008 A 
ENDBRANCH  20  26
ENDBRANCH  19  20
ENDBRANCH   1  19
TORSDOF 6
