REMARK  Name = ZINC01807372
REMARK  11 active torsions:
REMARK  status: ('A' for Active; 'I' for Inactive)
REMARK    1  A    between atoms: C_1  and  C_2
REMARK    2  A    between atoms: C_5  and  C_8
REMARK    3  A    between atoms: C_11  and  S_21
REMARK    4  A    between atoms: N_12  and  C_13
REMARK    5  A    between atoms: C_16  and  O_19
REMARK    6  A    between atoms: O_19  and  C_20
REMARK    7  A    between atoms: S_21  and  C_22
REMARK    8  A    between atoms: C_22  and  C_23
REMARK    9  A    between atoms: N_25  and  N_26
REMARK   10  A    between atoms: C_27  and  C_28
REMARK   11  A    between atoms: C_31  and  C_34
REMARK                            x       y       z     vdW  Elec       q    Type
REMARK                         _______ _______ _______ _____ _____    ______ ____
ROOT
ATOM      1  C   UNL     1       0.059  -4.251  -0.021  0.00  0.00    +0.169 A 
ATOM      2  N   UNL     1      -0.203  -5.029  -1.046  0.00  0.00    -0.128 NA
ATOM      3  N   UNL     1      -0.093  -6.262  -0.701  0.00  0.00    -0.122 NA
ATOM      4  C   UNL     1       0.247  -6.349   0.566  0.00  0.00    +0.197 A 
ATOM      5  N   UNL     1       0.362  -5.072   1.043  0.00  0.00    -0.270 N 
ENDROOT
BRANCH   1  10
ATOM      6  C   UNL     1      -0.018   1.503   0.010  0.00  0.00    +0.044 C 
ATOM      7  C   UNL     1       0.002  -0.004   0.002  0.00  0.00    -0.050 A 
ATOM      8  C   UNL     1       0.006  -0.686  -1.202  0.00  0.00    +0.004 A 
ATOM      9  C   UNL     1       0.024  -2.066  -1.216  0.00  0.00    +0.012 A 
ATOM     10  C   UNL     1       0.040  -2.773  -0.013  0.00  0.00    +0.020 A 
ATOM     11  C   UNL     1       0.036  -2.079   1.198  0.00  0.00    +0.012 A 
ATOM     12  C   UNL     1       0.023  -0.699   1.198  0.00  0.00    +0.004 A 
ENDBRANCH   1  10
BRANCH   5  13
ATOM     13  C   UNL     1       0.712  -4.680   2.344  0.00  0.00    +0.051 A 
ATOM     14  C   UNL     1       1.889  -3.978   2.565  0.00  0.00    +0.030 A 
ATOM     15  C   UNL     1       2.233  -3.592   3.845  0.00  0.00    +0.047 A 
ATOM     16  C   UNL     1       1.402  -3.907   4.911  0.00  0.00    +0.120 A 
ATOM     17  C   UNL     1       0.226  -4.609   4.691  0.00  0.00    +0.047 A 
ATOM     18  C   UNL     1      -0.122  -4.989   3.410  0.00  0.00    +0.030 A 
BRANCH  16  19
ATOM     19  O   UNL     1       1.741  -3.528   6.172  0.00  0.00    -0.495 OA
ATOM     20  C   UNL     1       0.840  -3.885   7.221  0.00  0.00    +0.277 C 
ENDBRANCH  16  19
ENDBRANCH   5  13
BRANCH   4  21
ATOM     21  S   UNL     1       0.513  -7.833   1.478  0.00  0.00    -0.076 S 
BRANCH  21  22
ATOM     22  C   UNL     1       0.210  -9.151   0.270  0.00  0.00    +0.174 C 
BRANCH  22  23
ATOM     23  C   UNL     1       0.406 -10.492   0.929  0.00  0.00    +0.242 C 
ATOM     24  O   UNL     1       0.719 -10.552   2.100  0.00  0.00    -0.273 OA
ATOM     25  N   UNL     1       0.233 -11.624   0.219  0.00  0.00    -0.206 N 
ATOM     26  H   UNL     1      -0.017 -11.576  -0.717  0.00  0.00    +0.177 HD
BRANCH  25  27
ATOM     27  N   UNL     1       0.415 -12.870   0.832  0.00  0.00    -0.188 NA
ATOM     28  C   UNL     1       0.249 -13.960   0.148  0.00  0.00    +0.138 C 
BRANCH  28  29
ATOM     29  C   UNL     1       0.441 -15.273   0.793  0.00  0.00    -0.005 A 
ATOM     30  C   UNL     1       0.796 -15.346   2.142  0.00  0.00    +0.010 A 
ATOM     31  C   UNL     1       0.974 -16.577   2.739  0.00  0.00    +0.013 A 
ATOM     32  C   UNL     1       0.801 -17.737   2.005  0.00  0.00    +0.055 A 
ATOM     33  C   UNL     1       0.449 -17.672   0.668  0.00  0.00    +0.013 A 
ATOM     34  C   UNL     1       0.263 -16.448   0.060  0.00  0.00    +0.010 A 
BRANCH  32  35
ATOM     35  C   UNL     1       0.998 -19.078   2.664  0.00  0.00    +0.417 C 
ATOM     36  F   UNL     1      -0.217 -19.515   3.204  0.00  0.00    -0.166 F 
ATOM     37  F   UNL     1       1.446 -20.003   1.715  0.00  0.00    -0.166 F 
ATOM     38  F   UNL     1       1.946 -18.960   3.686  0.00  0.00    -0.166 F 
ENDBRANCH  32  35
ENDBRANCH  28  29
ENDBRANCH  25  27
ENDBRANCH  22  23
ENDBRANCH  21  22
ENDBRANCH   4  21
TORSDOF 9
