REMARK  Name = ZINC12888498
REMARK  10 active torsions:
REMARK  status: ('A' for Active; 'I' for Inactive)
REMARK    1  A    between atoms: C_1  and  C_2
REMARK    2  A    between atoms: C_2  and  C_3
REMARK    3  A    between atoms: C_3  and  C_5
REMARK    4  A    between atoms: C_3  and  N_60
REMARK    5  A    between atoms: C_8  and  S_10
REMARK    6  A    between atoms: S_10  and  C_11
REMARK    7  A    between atoms: C_18  and  C_20
REMARK    8  A    between atoms: C_21  and  C_22
REMARK    9  A    between atoms: C_32  and  N_60
REMARK   10  A    between atoms: C_33  and  N_60
REMARK                            x       y       z     vdW  Elec       q    Type
REMARK                         _______ _______ _______ _____ _____    ______ ____
ROOT
ATOM      1  C   UNL     1      -0.043   5.989   1.143  0.00  0.00    +0.118 A 
ATOM      2  C   UNL     1       0.228   5.030   0.122  0.00  0.00    +0.043 A 
ATOM      3  C   UNL     1       0.686   3.664   0.305  0.00  0.00    -0.025 A 
ATOM      4  C   UNL     1       0.877   2.931  -0.818  0.00  0.00    -0.004 A 
ATOM      5  S   UNL     1       0.460   4.015  -2.160  0.00  0.00    -0.073 S 
ATOM      6  C   UNL     1       0.030   5.445  -1.222  0.00  0.00    +0.114 A 
ATOM      7  N   UNL     1      -0.383   6.649  -1.555  0.00  0.00    -0.221 NA
ATOM      8  C   UNL     1      -0.620   7.504  -0.552  0.00  0.00    +0.155 A 
ATOM      9  N   UNL     1      -0.456   7.182   0.727  0.00  0.00    -0.221 NA
ATOM     10  C   UNL     1       1.343   1.510  -0.904  0.00  0.00    +0.043 C 
ATOM     11  C   UNL     1       1.929   1.106   0.456  0.00  0.00    +0.005 C 
ATOM     12  C   UNL     1       0.957   1.533   1.559  0.00  0.00    +0.005 C 
ATOM     13  C   UNL     1       0.946   3.056   1.681  0.00  0.00    +0.037 C 
ENDROOT
BRANCH   8  14
ATOM     14  C   UNL     1      -1.083   8.861  -0.881  0.00  0.00    +0.049 C 
ATOM     15  C   UNL     1      -1.330   9.744   0.103  0.00  0.00    +0.011 C 
BRANCH  15  16
ATOM     16  C   UNL     1      -1.794  11.103  -0.227  0.00  0.00    -0.025 A 
ATOM     17  C   UNL     1      -1.972  11.480  -1.560  0.00  0.00    +0.008 A 
ATOM     18  C   UNL     1      -2.412  12.753  -1.861  0.00  0.00    +0.001 A 
ATOM     19  C   UNL     1      -2.665  13.658  -0.846  0.00  0.00    +0.000 A 
ATOM     20  C   UNL     1      -2.485  13.294   0.477  0.00  0.00    +0.001 A 
ATOM     21  C   UNL     1      -2.052  12.023   0.793  0.00  0.00    +0.008 A 
ENDBRANCH  15  16
ENDBRANCH   8  14
BRANCH   1  22
ATOM     22  S   UNL     1       0.157   5.614   2.853  0.00  0.00    -0.009 S 
BRANCH  22  26
ATOM     23  C   UNL     1      -0.775   8.729   4.962  0.00  0.00    +0.205 A 
ATOM     24  N   UNL     1      -0.973   9.161   3.750  0.00  0.00    -0.113 NA
ATOM     25  N   UNL     1      -0.702   8.225   2.910  0.00  0.00    -0.101 NA
ATOM     26  C   UNL     1      -0.319   7.155   3.562  0.00  0.00    +0.283 A 
ATOM     27  O   UNL     1      -0.363   7.450   4.875  0.00  0.00    -0.417 OA
BRANCH  23  28
ATOM     28  C   UNL     1      -0.977   9.516   6.231  0.00  0.00    +0.020 C 
BRANCH  28  31
ATOM     29  C   UNL     1       1.045  10.774   5.794  0.00  0.00    -0.096 C 
ATOM     30  C   UNL     1      -1.093  11.615   5.030  0.00  0.00    -0.096 C 
ATOM     31  N   UNL     1      -0.398  10.869   6.100  0.00  0.00    +0.384 N 
ATOM     32  H   UNL     1      -0.518  11.371   6.988  0.00  0.00    -0.082 HD
ENDBRANCH  28  31
BRANCH  28  34
ATOM     33  C   UNL     1      -2.677  10.362   7.855  0.00  0.00    +0.003 C 
ATOM     34  C   UNL     1      -2.475   9.642   6.520  0.00  0.00    -0.009 C 
ENDBRANCH  28  34
ENDBRANCH  23  28
ENDBRANCH  22  26
ENDBRANCH   1  22
TORSDOF 7
