REMARK  Name = ZINC35095670
REMARK  16 active torsions:
REMARK  status: ('A' for Active; 'I' for Inactive)
REMARK    1  A    between atoms: C_1  and  C_2
REMARK    2  A    between atoms: C_2  and  C_3
REMARK    3  A    between atoms: C_2  and  C_4
REMARK    4  A    between atoms: N_6  and  C_7
REMARK    5  A    between atoms: N_6  and  C_28
REMARK    6  A    between atoms: C_7  and  C_8
REMARK    7  A    between atoms: C_8  and  N_9
REMARK    8  A    between atoms: N_12  and  S_15
REMARK    9  A    between atoms: S_15  and  C_18
REMARK   10  A    between atoms: C_21  and  C_24
REMARK   11  A    between atoms: C_24  and  C_25
REMARK   12  A    between atoms: C_24  and  C_26
REMARK   13  A    between atoms: C_24  and  C_27
REMARK   14  A    between atoms: C_28  and  C_29
REMARK   15  A    between atoms: C_37  and  C_38
REMARK   16  A    between atoms: C_37  and  C_39
REMARK                            x       y       z     vdW  Elec       q    Type
REMARK                         _______ _______ _______ _____ _____    ______ ____
ROOT
ATOM      1  N   UNL     1      -5.749   0.744  -0.266  0.00  0.00    -0.298 NA
ATOM      2  C   UNL     1      -6.174  -0.467   0.448  0.00  0.00    +0.101 C 
ATOM      3  C   UNL     1      -7.681  -0.668   0.253  0.00  0.00    +0.125 C 
ATOM      4  N   UNL     1      -8.373   0.566   0.655  0.00  0.00    -0.174 NA
ATOM      5  C   UNL     1      -7.910   1.840   0.085  0.00  0.00    +0.125 C 
ATOM      6  C   UNL     1      -6.395   1.942   0.286  0.00  0.00    +0.101 C 
ENDROOT
BRANCH   4   7
ATOM      7  S   UNL     1      -9.639   0.521   1.721  0.00  0.00    +0.061 S 
ATOM      8  O   UNL     1     -10.414   1.687   1.480  0.00  0.00    -0.153 OA
ATOM      9  O   UNL     1     -10.188  -0.787   1.646  0.00  0.00    -0.153 OA
BRANCH   7  10
ATOM     10  C   UNL     1      -8.963   0.691   3.340  0.00  0.00    +0.105 A 
ATOM     11  C   UNL     1      -8.584  -0.431   4.052  0.00  0.00    +0.029 A 
ATOM     12  C   UNL     1      -8.054  -0.298   5.322  0.00  0.00    +0.006 A 
ATOM     13  C   UNL     1      -7.902   0.958   5.879  0.00  0.00    -0.042 A 
ATOM     14  C   UNL     1      -8.281   2.080   5.166  0.00  0.00    +0.006 A 
ATOM     15  C   UNL     1      -8.807   1.947   3.895  0.00  0.00    +0.029 A 
BRANCH  13  16
ATOM     16  C   UNL     1      -7.325   1.103   7.263  0.00  0.00    -0.013 C 
ATOM     17  C   UNL     1      -5.914   0.513   7.292  0.00  0.00    +0.015 C 
ATOM     18  C   UNL     1      -7.267   2.585   7.638  0.00  0.00    +0.015 C 
ATOM     19  C   UNL     1      -8.210   0.358   8.265  0.00  0.00    +0.015 C 
ENDBRANCH  13  16
ENDBRANCH   7  10
ENDBRANCH   4   7
BRANCH   1  20
ATOM     20  C   UNL     1      -4.286   0.879  -0.248  0.00  0.00    +0.103 C 
BRANCH  20  21
ATOM     21  C   UNL     1      -3.659  -0.263  -1.049  0.00  0.00    +0.123 C 
BRANCH  21  24
ATOM     22  C   UNL     1      -1.472  -0.798  -0.116  0.00  0.00    +0.218 C 
ATOM     23  O   UNL     1      -0.272  -0.633  -0.056  0.00  0.00    -0.275 OA
ATOM     24  N   UNL     1      -2.200  -0.129  -1.032  0.00  0.00    -0.296 N 
BRANCH  22  26
ATOM     25  C   UNL     1      -2.555  -3.020   0.082  0.00  0.00    +0.017 C 
ATOM     26  C   UNL     1      -2.150  -1.751   0.835  0.00  0.00    +0.069 C 
ATOM     27  C   UNL     1      -1.186  -2.114   1.966  0.00  0.00    +0.017 C 
ENDBRANCH  22  26
BRANCH  24  28
ATOM     28  C   UNL     1      -1.532   0.734  -2.010  0.00  0.00    +0.138 C 
BRANCH  28  29
ATOM     29  C   UNL     1      -1.271  -0.047  -3.272  0.00  0.00    -0.053 C 
ATOM     30  C   UNL     1      -2.108  -0.009  -4.283  0.00  0.00    -0.025 C 
ATOM     31  C   UNL     1      -1.806  -0.800  -5.533  0.00  0.00    +0.031 C 
ATOM     32  C   UNL     1      -0.518  -1.611  -5.333  0.00  0.00    -0.000 C 
ATOM     33  C   UNL     1      -0.466  -2.321  -3.970  0.00  0.00    +0.012 C 
ATOM     34  C   UNL     1      -0.026  -0.903  -3.427  0.00  0.00    +0.022 C 
ATOM     35  C   UNL     1       0.620  -0.712  -4.807  0.00  0.00    -0.025 C 
ATOM     36  C   UNL     1       0.559   0.728  -5.321  0.00  0.00    +0.012 C 
ATOM     37  C   UNL     1       2.011  -1.337  -4.932  0.00  0.00    +0.012 C 
ENDBRANCH  28  29
ENDBRANCH  24  28
ENDBRANCH  21  24
ENDBRANCH  20  21
ENDBRANCH   1  20
TORSDOF 9
