REMARK  Name = ZINC39035204
REMARK  12 active torsions:
REMARK  status: ('A' for Active; 'I' for Inactive)
REMARK    1  A    between atoms: C_1  and  C_2
REMARK    2  A    between atoms: C_2  and  O_3
REMARK    3  A    between atoms: O_3  and  C_4
REMARK    4  A    between atoms: C_4  and  C_6
REMARK    5  A    between atoms: C_8  and  N_20
REMARK    6  A    between atoms: C_11  and  O_18
REMARK    7  A    between atoms: C_12  and  O_16
REMARK    8  A    between atoms: O_16  and  C_17
REMARK    9  A    between atoms: O_18  and  C_19
REMARK   10  A    between atoms: C_21  and  C_23
REMARK   11  A    between atoms: C_23  and  C_26
REMARK   12  A    between atoms: C_29  and  C_32
REMARK                            x       y       z     vdW  Elec       q    Type
REMARK                         _______ _______ _______ _____ _____    ______ ____
ROOT
ATOM      1  C   UNL     1       1.391  -2.367  -2.487  0.00  0.00    +0.234 C 
ATOM      2  C   UNL     1       0.481  -2.469  -3.691  0.00  0.00    +0.053 C 
ATOM      3  C   UNL     1       0.484  -3.801  -4.054  0.00  0.00    +0.021 A 
ATOM      4  C   UNL     1      -0.171  -4.508  -5.095  0.00  0.00    +0.061 A 
ATOM      5  C   UNL     1       0.016  -5.846  -5.221  0.00  0.00    +0.162 A 
ATOM      6  C   UNL     1       0.851  -6.557  -4.338  0.00  0.00    +0.163 A 
ATOM      7  C   UNL     1       1.507  -5.939  -3.320  0.00  0.00    +0.075 A 
ATOM      8  C   UNL     1       1.359  -4.544  -3.129  0.00  0.00    +0.049 A 
ATOM      9  N   UNL     1       1.879  -3.726  -2.232  0.00  0.00    -0.367 N 
ATOM     10  H   UNL     1       2.486  -3.982  -1.519  0.00  0.00    +0.161 HD
ENDROOT
BRANCH   2  11
ATOM     11  N   UNL     1      -0.203  -1.453  -4.294  0.00  0.00    -0.285 N 
ATOM     12  C   UNL     1       0.029  -0.176  -3.931  0.00  0.00    +0.228 C 
ATOM     13  O   UNL     1       0.915   0.079  -3.144  0.00  0.00    -0.275 OA
ATOM     14  H   UNL     1      -0.857  -1.651  -4.983  0.00  0.00    +0.155 HD
BRANCH  12  15
ATOM     15  C   UNL     1      -0.812   0.935  -4.505  0.00  0.00    +0.072 C 
ATOM     16  C   UNL     1      -1.546   1.847  -3.520  0.00  0.00    +0.022 C 
ATOM     17  C   UNL     1      -2.330   0.826  -4.348  0.00  0.00    +0.022 C 
BRANCH  15  18
ATOM     18  C   UNL     1      -0.287   1.559  -5.773  0.00  0.00    -0.032 A 
ATOM     19  C   UNL     1      -1.166   2.103  -6.691  0.00  0.00    +0.005 A 
ATOM     20  C   UNL     1      -0.685   2.675  -7.853  0.00  0.00    +0.003 A 
ATOM     21  C   UNL     1       0.676   2.704  -8.098  0.00  0.00    -0.050 A 
ATOM     22  C   UNL     1       1.555   2.161  -7.180  0.00  0.00    +0.003 A 
ATOM     23  C   UNL     1       1.074   1.592  -6.015  0.00  0.00    +0.005 A 
ATOM     24  C   UNL     1       1.200   3.327  -9.366  0.00  0.00    +0.044 C 
ENDBRANCH  15  18
ENDBRANCH  12  15
ENDBRANCH   2  11
BRANCH   1  25
ATOM     25  C   UNL     1       0.620  -1.860  -1.295  0.00  0.00    +0.336 C 
ATOM     26  O   UNL     1       0.106  -2.643  -0.531  0.00  0.00    -0.248 OA
BRANCH  25  27
ATOM     27  O   UNL     1       0.505  -0.540  -1.082  0.00  0.00    -0.463 OA
BRANCH  27  29
ATOM     28  C   UNL     1      -0.261   1.397   0.142  0.00  0.00    +0.048 C 
ATOM     29  C   UNL     1      -0.239  -0.131   0.067  0.00  0.00    +0.229 C 
ENDBRANCH  27  29
ENDBRANCH  25  27
ENDBRANCH   1  25
BRANCH   6  30
ATOM     30  O   UNL     1       1.004  -7.895  -4.508  0.00  0.00    -0.491 OA
ATOM     31  C   UNL     1       1.861  -8.571  -3.586  0.00  0.00    +0.277 C 
ENDBRANCH   6  30
BRANCH   5  32
ATOM     32  O   UNL     1      -0.617  -6.514  -6.223  0.00  0.00    -0.491 OA
ATOM     33  C   UNL     1      -1.452  -5.745  -7.090  0.00  0.00    +0.277 C 
ENDBRANCH   5  32
TORSDOF 8
