REMARK  Name = ZINC32881556
REMARK  11 active torsions:
REMARK  status: ('A' for Active; 'I' for Inactive)
REMARK    1  A    between atoms: C_1  and  C_2
REMARK    2  A    between atoms: C_2  and  O_3
REMARK    3  A    between atoms: O_3  and  C_4
REMARK    4  A    between atoms: C_11  and  C_18
REMARK    5  A    between atoms: C_13  and  O_14
REMARK    6  A    between atoms: C_18  and  S_19
REMARK    7  A    between atoms: S_19  and  C_20
REMARK    8  A    between atoms: N_28  and  C_29
REMARK    9  A    between atoms: C_29  and  C_30
REMARK   10  A    between atoms: C_30  and  O_31
REMARK   11  A    between atoms: O_31  and  C_32
REMARK                            x       y       z     vdW  Elec       q    Type
REMARK                         _______ _______ _______ _____ _____    ______ ____
ROOT
ATOM      1  C   UNL     1       8.154  10.936  -4.840  0.00  0.00    +0.405 C 
ATOM      2  O   UNL     1       8.866  10.950  -3.856  0.00  0.00    -0.226 OA
ATOM      3  N   UNL     1       6.972  10.290  -4.808  0.00  0.00    -0.251 N 
ATOM      4  C   UNL     1       6.514   9.732  -3.614  0.00  0.00    +0.040 A 
ATOM      5  C   UNL     1       5.768   8.554  -3.642  0.00  0.00    +0.024 A 
ATOM      6  C   UNL     1       5.313   7.997  -2.483  0.00  0.00    +0.013 A 
ATOM      7  C   UNL     1       5.602   8.608  -1.257  0.00  0.00    +0.022 A 
ATOM      8  C   UNL     1       5.121   8.035   0.002  0.00  0.00    -0.020 A 
ATOM      9  C   UNL     1       5.429   8.678   1.159  0.00  0.00    +0.092 A 
ATOM     10  C   UNL     1       6.188   9.865   1.120  0.00  0.00    +0.285 A 
ATOM     11  O   UNL     1       6.621  10.388  -0.037  0.00  0.00    -0.425 OA
ATOM     12  C   UNL     1       6.349   9.799  -1.222  0.00  0.00    +0.141 A 
ATOM     13  C   UNL     1       6.804  10.353  -2.409  0.00  0.00    +0.070 A 
ATOM     14  H   UNL     1       6.368  10.203  -5.723  0.00  0.00    +0.158 HD
ENDROOT
BRANCH  10  15
ATOM     15  O   UNL     1       6.457  10.432   2.165  0.00  0.00    -0.480 OA
ATOM     16  H   UNL     1       7.048  11.359   2.151  0.00  0.00    +0.295 HD
ENDBRANCH  10  15
BRANCH   1  17
ATOM     17  O   UNL     1       8.547  11.566  -5.963  0.00  0.00    -0.450 OA
BRANCH  17  19
ATOM     18  C   UNL     1      10.105  12.895  -7.282  0.00  0.00    +0.048 C 
ATOM     19  C   UNL     1       9.832  12.242  -5.926  0.00  0.00    +0.230 C 
ENDBRANCH  17  19
ENDBRANCH   1  17
BRANCH   8  20
ATOM     20  C   UNL     1       4.311   6.764   0.015  0.00  0.00    +0.113 C 
BRANCH  20  21
ATOM     21  S   UNL     1       2.551   7.168  -0.105  0.00  0.00    -0.083 S 
BRANCH  21  22
ATOM     22  C   UNL     1       1.862   5.547  -0.069  0.00  0.00    +0.170 A 
ATOM     23  N   UNL     1       2.552   4.437   0.022  0.00  0.00    -0.222 NA
ATOM     24  C   UNL     1       1.707   3.373   0.023  0.00  0.00    +0.092 A 
ATOM     25  C   UNL     1       1.904   1.992   0.099  0.00  0.00    +0.050 A 
ATOM     26  C   UNL     1       0.819   1.143   0.076  0.00  0.00    +0.043 A 
ATOM     27  C   UNL     1      -0.469   1.651  -0.026  0.00  0.00    +0.022 A 
ATOM     28  C   UNL     1      -0.680   3.013  -0.096  0.00  0.00    +0.029 A 
ATOM     29  C   UNL     1       0.402   3.881  -0.075  0.00  0.00    +0.070 A 
ATOM     30  N   UNL     1       0.527   5.260  -0.132  0.00  0.00    -0.316 N 
ATOM     31 CL   UNL     1       1.063  -0.573   0.169  0.00  0.00    -0.083 Cl
BRANCH  30  32
ATOM     32  C   UNL     1      -0.566   6.229  -0.239  0.00  0.00    +0.152 C 
BRANCH  32  33
ATOM     33  C   UNL     1      -0.864   6.499  -1.716  0.00  0.00    +0.181 C 
BRANCH  33  34
ATOM     34  O   UNL     1      -1.931   7.444  -1.821  0.00  0.00    -0.381 OA
ATOM     35  C   UNL     1      -2.290   7.768  -3.166  0.00  0.00    +0.194 C 
ENDBRANCH  33  34
ENDBRANCH  32  33
ENDBRANCH  30  32
ENDBRANCH  21  22
ENDBRANCH  20  21
ENDBRANCH   8  20
TORSDOF 9
