REMARK  Name = ZINC41000748
REMARK  12 active torsions:
REMARK  status: ('A' for Active; 'I' for Inactive)
REMARK    1  A    between atoms: C_1  and  C_2
REMARK    2  A    between atoms: C_5  and  C_31
REMARK    3  A    between atoms: C_6  and  O_8
REMARK    4  A    between atoms: O_8  and  C_9
REMARK    5  A    between atoms: C_9  and  C_10
REMARK    6  A    between atoms: N_12  and  C_13
REMARK    7  A    between atoms: C_14  and  C_20
REMARK    8  A    between atoms: C_15  and  C_19
REMARK    9  A    between atoms: C_16  and  C_18
REMARK   10  A    between atoms: C_22  and  C_25
REMARK   11  A    between atoms: C_31  and  C_32
REMARK   12  A    between atoms: C_31  and  C_33
REMARK                            x       y       z     vdW  Elec       q    Type
REMARK                         _______ _______ _______ _____ _____    ______ ____
ROOT
ATOM      1  C   UNL     1       0.078  -3.279   7.096  0.00  0.00    +0.085 A 
ATOM      2  C   UNL     1       0.074  -2.961   8.449  0.00  0.00    +0.071 A 
ATOM      3  C   UNL     1       0.094  -4.061   9.378  0.00  0.00    -0.026 A 
ATOM      4  C   UNL     1       0.115  -5.314   8.888  0.00  0.00    -0.008 A 
ATOM      5  S   UNL     1       0.101  -5.062   7.124  0.00  0.00    -0.078 S 
ATOM      6  C   UNL     1       0.138  -6.616   9.647  0.00  0.00    +0.052 C 
ATOM      7  C   UNL     1       0.092  -3.815  10.865  0.00  0.00    +0.045 C 
ENDROOT
BRANCH   2   8
ATOM      8  C   UNL     1       0.052  -1.565   8.910  0.00  0.00    +0.261 A 
ATOM      9  N   UNL     1       0.028  -0.497   8.140  0.00  0.00    -0.187 NA
ATOM     10  C   UNL     1       0.012   0.611   8.897  0.00  0.00    +0.202 A 
ATOM     11  N   UNL     1       0.026   0.262  10.161  0.00  0.00    -0.056 NA
ATOM     12  O   UNL     1       0.047  -1.157  10.193  0.00  0.00    -0.332 OA
BRANCH  10  13
ATOM     13  C   UNL     1      -0.016   2.004   8.386  0.00  0.00    +0.022 A 
ATOM     14  C   UNL     1      -0.035   2.246   7.014  0.00  0.00    +0.012 A 
ATOM     15  C   UNL     1      -0.061   3.544   6.545  0.00  0.00    +0.001 A 
ATOM     16  C   UNL     1      -0.069   4.603   7.434  0.00  0.00    +0.000 A 
ATOM     17  C   UNL     1      -0.050   4.369   8.797  0.00  0.00    +0.001 A 
ATOM     18  C   UNL     1      -0.030   3.075   9.277  0.00  0.00    +0.012 A 
ENDBRANCH  10  13
ENDBRANCH   2   8
BRANCH   1  21
ATOM     19  C   UNL     1       0.063  -2.932   4.751  0.00  0.00    +0.255 C 
ATOM     20  O   UNL     1       0.078  -4.133   4.584  0.00  0.00    -0.272 OA
ATOM     21  N   UNL     1       0.062  -2.425   6.000  0.00  0.00    -0.277 N 
ATOM     22  H   UNL     1       0.050  -1.465   6.134  0.00  0.00    +0.155 HD
BRANCH  19  23
ATOM     23  C   UNL     1       0.045  -2.006   3.562  0.00  0.00    +0.324 C 
BRANCH  23  24
ATOM     24  O   UNL     1       0.050  -2.776   2.358  0.00  0.00    -0.482 OA
BRANCH  24  30
ATOM     25  C   UNL     1      -0.018   1.503   0.010  0.00  0.00    +0.044 C 
ATOM     26  C   UNL     1       0.002  -0.004   0.002  0.00  0.00    -0.047 A 
ATOM     27  C   UNL     1       0.006  -0.688  -1.200  0.00  0.00    +0.004 A 
ATOM     28  C   UNL     1       0.024  -2.071  -1.211  0.00  0.00    +0.008 A 
ATOM     29  C   UNL     1       0.039  -2.772  -0.020  0.00  0.00    -0.003 A 
ATOM     30  C   UNL     1       0.035  -2.088   1.186  0.00  0.00    +0.125 A 
ATOM     31  C   UNL     1       0.023  -0.700   1.195  0.00  0.00    +0.049 A 
BRANCH  29  32
ATOM     32  C   UNL     1       0.059  -4.279  -0.033  0.00  0.00    +0.016 C 
ATOM     33  C   UNL     1      -1.188  -4.799  -0.753  0.00  0.00    +0.012 C 
ATOM     34  C   UNL     1       1.311  -4.766  -0.764  0.00  0.00    +0.012 C 
ENDBRANCH  29  32
ENDBRANCH  24  30
ENDBRANCH  23  24
ENDBRANCH  19  23
ENDBRANCH   1  21
TORSDOF 7
