REMARK  Name = ZINC35908188
REMARK  14 active torsions:
REMARK  status: ('A' for Active; 'I' for Inactive)
REMARK    1  A    between atoms: C_1  and  C_2
REMARK    2  A    between atoms: C_2  and  C_3
REMARK    3  A    between atoms: C_12  and  C_13
REMARK    4  A    between atoms: C_13  and  C_15
REMARK    5  A    between atoms: C_13  and  C_31
REMARK    6  A    between atoms: C_15  and  C_16
REMARK    7  A    between atoms: N_18  and  C_19
REMARK    8  A    between atoms: N_18  and  C_24
REMARK    9  A    between atoms: C_19  and  C_20
REMARK   10  A    between atoms: C_20  and  N_21
REMARK   11  A    between atoms: N_21  and  C_22
REMARK   12  A    between atoms: N_21  and  C_23
REMARK   13  A    between atoms: C_24  and  C_25
REMARK   14  A    between atoms: C_35  and  N_37
REMARK                            x       y       z     vdW  Elec       q    Type
REMARK                         _______ _______ _______ _____ _____    ______ ____
ROOT
ATOM      1  C   UNL     1       5.278  -1.492  -3.042  0.00  0.00    +0.060 C 
ENDROOT
BRANCH   1  11
ATOM      2  C   UNL     1       0.707  -0.490  -1.238  0.00  0.00    -0.024 A 
ATOM      3  C   UNL     1      -0.018  -0.817  -2.363  0.00  0.00    +0.005 A 
ATOM      4  C   UNL     1       0.620  -1.265  -3.511  0.00  0.00    +0.001 A 
ATOM      5  C   UNL     1       1.980  -1.391  -3.545  0.00  0.00    +0.010 A 
ATOM      6  C   UNL     1       2.735  -1.065  -2.417  0.00  0.00    +0.004 A 
ATOM      7  C   UNL     1       2.094  -0.605  -1.252  0.00  0.00    +0.050 A 
ATOM      8  N   UNL     1       3.075  -0.360  -0.318  0.00  0.00    -0.360 N 
ATOM      9  H   UNL     1       2.919  -0.035   0.582  0.00  0.00    +0.165 HD
ATOM     10  C   UNL     1       4.304  -0.641  -0.850  0.00  0.00    +0.088 A 
ATOM     11  C   UNL     1       4.167  -1.079  -2.112  0.00  0.00    -0.015 A 
BRANCH   2  13
ATOM     12  C   UNL     1      -0.019   1.526   0.010  0.00  0.00    +0.009 C 
ATOM     13  C   UNL     1       0.002  -0.004   0.002  0.00  0.00    +0.034 C 
ENDBRANCH   2  13
ENDBRANCH   1  11
BRANCH   1  14
ATOM     14  C   UNL     1       6.222  -0.335  -3.243  0.00  0.00    -0.037 A 
ATOM     15  C   UNL     1       6.886   0.212  -2.161  0.00  0.00    +0.004 A 
ATOM     16  C   UNL     1       7.751   1.274  -2.345  0.00  0.00    +0.003 A 
ATOM     17  C   UNL     1       7.954   1.789  -3.612  0.00  0.00    +0.033 A 
ATOM     18  C   UNL     1       7.291   1.242  -4.694  0.00  0.00    +0.126 A 
ATOM     19  C   UNL     1       6.429   0.177  -4.511  0.00  0.00    +0.037 A 
BRANCH  18  20
ATOM     20  N   UNL     1       7.508   1.793  -6.051  0.00  0.00    +0.056 N 
ATOM     21  O   UNL     1       8.264   2.723  -6.212  0.00  0.00    -0.126 OA
ATOM     22  O   UNL     1       6.928   1.315  -6.997  0.00  0.00    -0.126 OA
ENDBRANCH  18  20
ENDBRANCH   1  14
BRANCH   1  23
ATOM     23  C   UNL     1       6.040  -2.672  -2.435  0.00  0.00    +0.109 C 
BRANCH  23  24
ATOM     24  C   UNL     1       7.071  -3.164  -3.418  0.00  0.00    +0.217 C 
ATOM     25  O   UNL     1       7.185  -2.624  -4.498  0.00  0.00    -0.276 OA
ATOM     26  N   UNL     1       7.866  -4.203  -3.097  0.00  0.00    -0.299 N 
BRANCH  26  27
ATOM     27  C   UNL     1       7.729  -4.855  -1.792  0.00  0.00    +0.089 C 
BRANCH  27  28
ATOM     28  C   UNL     1       6.713  -5.995  -1.896  0.00  0.00    -0.060 C 
BRANCH  28  29
ATOM     29  N   UNL     1       6.575  -6.649  -0.588  0.00  0.00    +0.377 N 
ATOM     30  C   UNL     1       5.514  -7.663  -0.657  0.00  0.00    -0.097 C 
ATOM     31  C   UNL     1       7.845  -7.292  -0.226  0.00  0.00    -0.097 C 
ATOM     32  H   UNL     1       6.336  -5.959   0.109  0.00  0.00    -0.083 HD
ENDBRANCH  28  29
ENDBRANCH  27  28
ENDBRANCH  26  27
BRANCH  26  33
ATOM     33  C   UNL     1       8.868  -4.682  -4.053  0.00  0.00    +0.142 C 
BRANCH  33  34
ATOM     34  C   UNL     1      10.165  -3.947  -3.830  0.00  0.00    -0.030 A 
ATOM     35  C   UNL     1      10.415  -2.766  -4.504  0.00  0.00    +0.005 A 
ATOM     36  C   UNL     1      11.604  -2.092  -4.301  0.00  0.00    +0.000 A 
ATOM     37  C   UNL     1      12.544  -2.599  -3.422  0.00  0.00    +0.000 A 
ATOM     38  C   UNL     1      12.294  -3.779  -2.748  0.00  0.00    +0.000 A 
ATOM     39  C   UNL     1      11.103  -4.451  -2.948  0.00  0.00    +0.005 A 
ENDBRANCH  33  34
ENDBRANCH  26  33
ENDBRANCH  23  24
ENDBRANCH   1  23
TORSDOF 11
