REMARK  Name = ZINC08790747
REMARK  6 active torsions:
REMARK  status: ('A' for Active; 'I' for Inactive)
REMARK    1  A    between atoms: C_1  and  C_2
REMARK    2  A    between atoms: C_13  and  C_15
REMARK    3  A    between atoms: C_15  and  C_16
REMARK    4  A    between atoms: C_16  and  C_17
REMARK    5  A    between atoms: N_22  and  C_25
REMARK    6  A    between atoms: C_25  and  C_26
REMARK                            x       y       z     vdW  Elec       q    Type
REMARK                         _______ _______ _______ _____ _____    ______ ____
ROOT
ATOM      1  C   UNL     1      -4.994   3.556   0.894  0.00  0.00    +0.044 C 
ATOM      2  C   UNL     1      -4.236   2.713  -0.099  0.00  0.00    -0.050 A 
ATOM      3  C   UNL     1      -4.921   1.958  -1.034  0.00  0.00    +0.005 A 
ATOM      4  C   UNL     1      -4.233   1.185  -1.945  0.00  0.00    +0.024 A 
ATOM      5  C   UNL     1      -2.840   1.158  -1.931  0.00  0.00    +0.036 A 
ATOM      6  C   UNL     1      -2.161   1.920  -0.984  0.00  0.00    -0.027 A 
ATOM      7  C   UNL     1      -2.853   2.692  -0.077  0.00  0.00    +0.008 A 
ATOM      8  C   UNL     1      -0.700   1.674  -1.231  0.00  0.00    +0.050 C 
ATOM      9  C   UNL     1      -0.013   1.086   0.008  0.00  0.00    +0.088 C 
ATOM     10  C   UNL     1       1.411   1.709  -0.002  0.00  0.00    +0.073 C 
ATOM     11  C   UNL     1       1.438   2.617  -1.250  0.00  0.00    -0.057 C 
ATOM     12  C   UNL     1       1.425   2.568   1.242  0.00  0.00    +0.224 C 
ATOM     13  O   UNL     1       2.358   3.247   1.614  0.00  0.00    -0.275 OA
ATOM     14  N   UNL     1       0.248   2.462   1.869  0.00  0.00    -0.237 N 
ATOM     15  C   UNL     1      -0.632   1.654   1.266  0.00  0.00    +0.225 C 
ATOM     16  O   UNL     1      -1.751   1.414   1.665  0.00  0.00    -0.275 OA
ATOM     17  C   UNL     1      -0.654   0.717  -2.390  0.00  0.00    +0.211 C 
ATOM     18  O   UNL     1       0.340   0.259  -2.913  0.00  0.00    -0.277 OA
ATOM     19  N   UNL     1      -1.932   0.468  -2.737  0.00  0.00    -0.286 N 
ATOM     20  H   UNL     1      -2.192  -0.122  -3.462  0.00  0.00    +0.155 HD
ATOM     21  N   UNL     1       0.026   2.907  -1.505  0.00  0.00    +0.394 N 
ATOM     22  H   UNL     1      -0.301   3.658  -0.886  0.00  0.00    -0.083 HD
ATOM     23  H   UNL     1      -0.108   3.188  -2.484  0.00  0.00    -0.083 HD
ENDROOT
BRANCH  11  24
ATOM     24  C   UNL     1       2.228   3.895  -0.962  0.00  0.00    -0.006 C 
BRANCH  24  25
ATOM     25  C   UNL     1       2.348   4.721  -2.244  0.00  0.00    +0.094 C 
BRANCH  25  26
ATOM     26  C   UNL     1       3.127   5.979  -1.960  0.00  0.00    +0.210 C 
ATOM     27  O   UNL     1       3.545   6.195  -0.842  0.00  0.00    -0.276 OA
ATOM     28  N   UNL     1       3.358   6.866  -2.948  0.00  0.00    -0.329 N 
ATOM     29  H   UNL     1       3.024   6.694  -3.842  0.00  0.00    +0.145 HD
ATOM     30  H   UNL     1       3.860   7.676  -2.765  0.00  0.00    +0.145 HD
ENDBRANCH  25  26
ENDBRANCH  24  25
ENDBRANCH  11  24
BRANCH  14  31
ATOM     31  C   UNL     1      -0.054   3.173   3.114  0.00  0.00    +0.151 C 
BRANCH  31  32
ATOM     32  C   UNL     1      -0.654   4.517   2.792  0.00  0.00    -0.026 A 
ATOM     33  C   UNL     1       0.165   5.619   2.638  0.00  0.00    +0.009 A 
ATOM     34  C   UNL     1      -0.380   6.853   2.337  0.00  0.00    +0.050 A 
ATOM     35  C   UNL     1      -1.752   6.990   2.200  0.00  0.00    +0.166 A 
ATOM     36  C   UNL     1      -2.579   5.880   2.361  0.00  0.00    +0.167 A 
ATOM     37  C   UNL     1      -2.024   4.646   2.657  0.00  0.00    +0.054 A 
ATOM     38  O   UNL     1      -3.874   6.271   2.179  0.00  0.00    -0.453 OA
ATOM     39  C   UNL     1      -3.865   7.705   2.310  0.00  0.00    +0.466 C 
ATOM     40  O   UNL     1      -2.530   8.075   1.917  0.00  0.00    -0.453 OA
ENDBRANCH  31  32
ENDBRANCH  14  31
TORSDOF 5
