REMARK  Name = ZINC09928167
REMARK  7 active torsions:
REMARK  status: ('A' for Active; 'I' for Inactive)
REMARK    1  A    between atoms: C_4  and  N_7
REMARK    2  A    between atoms: C_8  and  C_27
REMARK    3  A    between atoms: C_11  and  S_12
REMARK    4  A    between atoms: S_12  and  C_13
REMARK    5  A    between atoms: C_13  and  C_14
REMARK    6  A    between atoms: N_16  and  C_17
REMARK    7  A    between atoms: C_21  and  N_23
REMARK                            x       y       z     vdW  Elec       q    Type
REMARK                         _______ _______ _______ _____ _____    ______ ____
ROOT
ATOM      1  N   UNL     1       1.286   1.732  -0.015  0.00  0.00    -0.270 N 
ATOM      2  C   UNL     1       2.047   0.584  -0.039  0.00  0.00    +0.169 A 
ATOM      3  N   UNL     1       1.214  -0.431  -0.041  0.00  0.00    -0.128 NA
ATOM      4  N   UNL     1       0.002  -0.004  -0.020  0.00  0.00    -0.122 NA
ATOM      5  C   UNL     1      -0.016   1.310  -0.004  0.00  0.00    +0.197 A 
ENDROOT
BRANCH   2   6
ATOM      6  C   UNL     1       3.523   0.509  -0.058  0.00  0.00    +0.020 A 
ATOM      7  C   UNL     1       4.286   1.635   0.253  0.00  0.00    +0.014 A 
ATOM      8  C   UNL     1       5.663   1.558   0.239  0.00  0.00    +0.039 A 
ATOM      9  C   UNL     1       6.289   0.368  -0.095  0.00  0.00    +0.123 A 
ATOM     10  C   UNL     1       5.537  -0.752  -0.410  0.00  0.00    +0.039 A 
ATOM     11  C   UNL     1       4.159  -0.688  -0.394  0.00  0.00    +0.014 A 
ATOM     12  F   UNL     1       7.638   0.299  -0.112  0.00  0.00    -0.205 F 
ENDBRANCH   2   6
BRANCH   1  16
ATOM     13  C   UNL     1       2.659   5.668   0.015  0.00  0.00    +0.000 A 
ATOM     14  C   UNL     1       1.968   5.170   1.104  0.00  0.00    +0.002 A 
ATOM     15  C   UNL     1       1.511   3.866   1.097  0.00  0.00    +0.026 A 
ATOM     16  C   UNL     1       1.748   3.055  -0.005  0.00  0.00    +0.051 A 
ATOM     17  C   UNL     1       2.447   3.557  -1.095  0.00  0.00    +0.026 A 
ATOM     18  C   UNL     1       2.896   4.863  -1.084  0.00  0.00    +0.002 A 
ENDBRANCH   1  16
BRANCH   5  19
ATOM     19  S   UNL     1      -1.448   2.336   0.020  0.00  0.00    -0.076 S 
BRANCH  19  20
ATOM     20  C   UNL     1      -2.742   1.070   0.015  0.00  0.00    +0.173 C 
BRANCH  20  21
ATOM     21  C   UNL     1      -4.094   1.734   0.034  0.00  0.00    +0.227 C 
ATOM     22  O   UNL     1      -4.176   2.944   0.050  0.00  0.00    -0.275 OA
ATOM     23  N   UNL     1      -5.214   0.984   0.035  0.00  0.00    -0.285 N 
ATOM     24  H   UNL     1      -5.151   0.019  -0.045  0.00  0.00    +0.155 HD
BRANCH  23  25
ATOM     25  C   UNL     1      -6.468   1.596   0.150  0.00  0.00    +0.036 A 
ATOM     26  C   UNL     1      -7.490   0.962   0.844  0.00  0.00    +0.026 A 
ATOM     27  C   UNL     1      -8.724   1.571   0.962  0.00  0.00    +0.042 A 
ATOM     28  C   UNL     1      -8.946   2.807   0.378  0.00  0.00    +0.154 A 
ATOM     29  C   UNL     1      -7.929   3.438  -0.319  0.00  0.00    +0.163 A 
ATOM     30  C   UNL     1      -6.692   2.836  -0.434  0.00  0.00    +0.059 A 
ATOM     31  F   UNL     1     -10.155   3.399   0.489  0.00  0.00    -0.203 F 
BRANCH  29  32
ATOM     32  N   UNL     1      -8.169   4.760  -0.941  0.00  0.00    +0.059 N 
ATOM     33  O   UNL     1      -7.275   5.316  -1.554  0.00  0.00    -0.126 OA
ATOM     34  O   UNL     1      -9.260   5.292  -0.840  0.00  0.00    -0.126 OA
ENDBRANCH  29  32
ENDBRANCH  23  25
ENDBRANCH  20  21
ENDBRANCH  19  20
ENDBRANCH   5  19
TORSDOF 7
