REMARK  Name = ZINC12833251
REMARK  11 active torsions:
REMARK  status: ('A' for Active; 'I' for Inactive)
REMARK    1  A    between atoms: C_1  and  C_2
REMARK    2  A    between atoms: C_4  and  C_36
REMARK    3  A    between atoms: C_7  and  C_14
REMARK    4  A    between atoms: C_14  and  N_70
REMARK    5  A    between atoms: C_15  and  C_16
REMARK    6  A    between atoms: C_15  and  N_70
REMARK    7  A    between atoms: C_19  and  O_22
REMARK    8  A    between atoms: O_22  and  C_23
REMARK    9  A    between atoms: C_24  and  C_25
REMARK   10  A    between atoms: C_24  and  N_70
REMARK   11  A    between atoms: N_29  and  C_30
REMARK                            x       y       z     vdW  Elec       q    Type
REMARK                         _______ _______ _______ _____ _____    ______ ____
ROOT
ATOM      1  N   UNL     1      -1.853   4.817   0.221  0.00  0.00    +0.390 N 
ATOM      2  H   UNL     1      -2.062   5.579  -0.434  0.00  0.00    -0.080 HD
ENDROOT
BRANCH   1   3
ATOM      3  C   UNL     1      -0.410   4.841   0.541  0.00  0.00    -0.036 C 
BRANCH   3  10
ATOM      4  C   UNL     1       3.627   7.315  -5.877  0.00  0.00    +0.044 C 
ATOM      5  C   UNL     1       2.858   7.073  -4.604  0.00  0.00    -0.048 A 
ATOM      6  C   UNL     1       2.524   8.146  -3.789  0.00  0.00    +0.007 A 
ATOM      7  C   UNL     1       1.827   7.949  -2.631  0.00  0.00    -0.041 A 
ATOM      8  C   UNL     1       1.447   6.654  -2.262  0.00  0.00    +0.002 A 
ATOM      9  C   UNL     1       0.696   6.407  -1.030  0.00  0.00    +0.017 A 
ATOM     10  C   UNL     1       0.359   5.131  -0.722  0.00  0.00    +0.001 A 
ATOM     11  C   UNL     1       0.723   4.072  -1.582  0.00  0.00    +0.251 A 
ATOM     12  O   UNL     1       0.406   2.932  -1.287  0.00  0.00    -0.268 OA
ATOM     13  N   UNL     1       1.408   4.290  -2.717  0.00  0.00    -0.322 N 
ATOM     14  H   UNL     1       1.642   3.539  -3.286  0.00  0.00    +0.169 HD
ATOM     15  C   UNL     1       1.784   5.564  -3.086  0.00  0.00    +0.050 A 
ATOM     16  C   UNL     1       2.494   5.789  -4.261  0.00  0.00    +0.029 A 
ATOM     17  C   UNL     1       1.468   9.121  -1.755  0.00  0.00    +0.044 C 
ENDBRANCH   3  10
ENDBRANCH   1   3
BRANCH   1  18
ATOM     18  C   UNL     1      -2.647   5.010   1.453  0.00  0.00    -0.042 C 
BRANCH  18  19
ATOM     19  C   UNL     1      -4.014   5.516   1.070  0.00  0.00    -0.064 A 
ATOM     20  C   UNL     1      -4.161   6.794   0.564  0.00  0.00    +0.005 A 
ATOM     21  C   UNL     1      -5.412   7.257   0.207  0.00  0.00    +0.046 A 
ATOM     22  C   UNL     1      -6.524   6.443   0.367  0.00  0.00    +0.120 A 
ATOM     23  C   UNL     1      -6.375   5.163   0.881  0.00  0.00    +0.046 A 
ATOM     24  C   UNL     1      -5.121   4.702   1.231  0.00  0.00    +0.005 A 
BRANCH  22  25
ATOM     25  O   UNL     1      -7.757   6.899   0.022  0.00  0.00    -0.495 OA
ATOM     26  C   UNL     1      -7.835   8.226  -0.501  0.00  0.00    +0.277 C 
ENDBRANCH  22  25
ENDBRANCH  18  19
ENDBRANCH   1  18
BRANCH   1  27
ATOM     27  C   UNL     1      -2.208   3.529  -0.411  0.00  0.00    +0.001 C 
BRANCH  27  28
ATOM     28  C   UNL     1      -3.523   3.689  -1.129  0.00  0.00    +0.135 A 
ATOM     29  N   UNL     1      -4.704   3.326  -0.690  0.00  0.00    -0.115 NA
ATOM     30  N   UNL     1      -5.574   3.632  -1.589  0.00  0.00    -0.023 NA
ATOM     31  N   UNL     1      -4.981   4.187  -2.587  0.00  0.00    -0.044 NA
ATOM     32  N   UNL     1      -3.715   4.235  -2.344  0.00  0.00    -0.228 N 
BRANCH  32  33
ATOM     33  C   UNL     1      -2.680   4.786  -3.223  0.00  0.00    +0.111 C 
ATOM     34  C   UNL     1      -3.059   6.212  -3.626  0.00  0.00    +0.027 C 
ATOM     35  C   UNL     1      -1.979   6.787  -4.544  0.00  0.00    +0.002 C 
ATOM     36  C   UNL     1      -1.860   5.919  -5.797  0.00  0.00    +0.000 C 
ATOM     37  C   UNL     1      -1.480   4.492  -5.395  0.00  0.00    +0.002 C 
ATOM     38  C   UNL     1      -2.561   3.917  -4.477  0.00  0.00    +0.027 C 
ENDBRANCH  32  33
ENDBRANCH  27  28
ENDBRANCH   1  27
TORSDOF 8
