REMARK  Name = ZINC33276486
REMARK  8 active torsions:
REMARK  status: ('A' for Active; 'I' for Inactive)
REMARK    1  A    between atoms: C_1  and  C_2
REMARK    2  A    between atoms: N_4  and  C_5
REMARK    3  A    between atoms: C_8  and  C_11
REMARK    4  A    between atoms: C_11  and  C_12
REMARK    5  A    between atoms: C_14  and  C_17
REMARK    6  A    between atoms: C_20  and  N_23
REMARK    7  A    between atoms: N_23  and  S_24
REMARK    8  A    between atoms: S_24  and  C_27
REMARK                            x       y       z     vdW  Elec       q    Type
REMARK                         _______ _______ _______ _____ _____    ______ ____
ROOT
ATOM      1  C   UNL     1       4.031  -1.359  -3.927  0.00  0.00    +0.023 A 
ATOM      2  C   UNL     1       3.299  -2.542  -3.832  0.00  0.00    +0.013 A 
ATOM      3  C   UNL     1       2.313  -2.666  -2.877  0.00  0.00    +0.025 A 
ATOM      4  C   UNL     1       2.048  -1.613  -2.009  0.00  0.00    +0.048 A 
ATOM      5  C   UNL     1       2.773  -0.430  -2.106  0.00  0.00    +0.025 A 
ATOM      6  C   UNL     1       3.764  -0.304  -3.056  0.00  0.00    +0.013 A 
ENDROOT
BRANCH   1   9
ATOM      7  C   UNL     1       6.664  -0.461  -6.156  0.00  0.00    +0.232 A 
ATOM      8  N   UNL     1       5.877  -0.141  -5.160  0.00  0.00    -0.191 NA
ATOM      9  C   UNL     1       5.093  -1.224  -4.954  0.00  0.00    +0.202 A 
ATOM     10  N   UNL     1       5.451  -2.131  -5.826  0.00  0.00    -0.056 NA
ATOM     11  O   UNL     1       6.346  -1.706  -6.525  0.00  0.00    -0.337 OA
BRANCH   7  12
ATOM     12  C   UNL     1       7.728   0.410  -6.772  0.00  0.00    +0.134 C 
BRANCH  12  16
ATOM     13  C   UNL     1      11.439  -0.228  -4.750  0.00  0.00    +0.033 A 
ATOM     14  C   UNL     1      11.106  -1.002  -5.853  0.00  0.00    +0.023 A 
ATOM     15  C   UNL     1       9.906  -0.794  -6.505  0.00  0.00    +0.006 A 
ATOM     16  C   UNL     1       9.037   0.185  -6.059  0.00  0.00    -0.038 A 
ATOM     17  C   UNL     1       9.368   0.962  -4.964  0.00  0.00    +0.006 A 
ATOM     18  C   UNL     1      10.564   0.755  -4.305  0.00  0.00    +0.023 A 
BRANCH  13  22
ATOM     19  C   UNL     1      15.018  -1.163  -4.055  0.00  0.00    +0.109 C 
ATOM     20  C   UNL     1      13.742  -0.825  -4.782  0.00  0.00    +0.214 C 
ATOM     21  O   UNL     1      13.694  -0.903  -5.991  0.00  0.00    -0.276 OA
ATOM     22  N   UNL     1      12.654  -0.437  -4.088  0.00  0.00    -0.286 N 
ATOM     23  H   UNL     1      12.720  -0.285  -3.000  0.00  0.00    +0.155 HD
ENDBRANCH  13  22
ENDBRANCH  12  16
ENDBRANCH   7  12
ENDBRANCH   1   9
BRANCH   4  24
ATOM     24  N   UNL     1       1.050  -1.740  -1.044  0.00  0.00    -0.216 N 
ATOM     25  H   UNL     1       0.091  -1.216  -1.171  0.00  0.00    +0.174 HD
BRANCH  24  26
ATOM     26  S   UNL     1       1.308  -2.680   0.295  0.00  0.00    +0.072 S 
ATOM     27  O   UNL     1       1.760  -3.942  -0.177  0.00  0.00    -0.150 OA
ATOM     28  O   UNL     1       0.157  -2.542   1.116  0.00  0.00    -0.150 OA
BRANCH  26  29
ATOM     29  C   UNL     1       2.650  -1.964   1.183  0.00  0.00    +0.109 A 
ATOM     30  C   UNL     1       2.417  -0.931   2.072  0.00  0.00    +0.030 A 
ATOM     31  C   UNL     1       3.470  -0.369   2.770  0.00  0.00    +0.022 A 
ATOM     32  C   UNL     1       4.756  -0.841   2.579  0.00  0.00    +0.041 A 
ATOM     33  C   UNL     1       4.989  -1.874   1.688  0.00  0.00    +0.022 A 
ATOM     34  C   UNL     1       3.935  -2.435   0.992  0.00  0.00    +0.030 A 
ATOM     35 CL   UNL     1       6.079  -0.135   3.454  0.00  0.00    -0.084 Cl
ENDBRANCH  26  29
ENDBRANCH  24  26
ENDBRANCH   4  24
TORSDOF 7
