REMARK  Name = ZINC15870259
REMARK  7 active torsions:
REMARK  status: ('A' for Active; 'I' for Inactive)
REMARK    1  A    between atoms: C_1  and  C_2
REMARK    2  A    between atoms: C_2  and  C_3
REMARK    3  A    between atoms: N_5  and  C_6
REMARK    4  A    between atoms: C_9  and  S_12
REMARK    5  A    between atoms: S_12  and  N_15
REMARK    6  A    between atoms: N_15  and  C_16
REMARK    7  A    between atoms: C_26  and  C_28
REMARK                            x       y       z     vdW  Elec       q    Type
REMARK                         _______ _______ _______ _____ _____    ______ ____
ROOT
ATOM      1  C   UNL     1      -4.833   5.366   2.433  0.00  0.00    +0.050 A 
ATOM      2  C   UNL     1      -3.444   5.274   2.376  0.00  0.00    +0.026 A 
ATOM      3  C   UNL     1      -2.678   6.192   3.070  0.00  0.00    +0.019 A 
ATOM      4  C   UNL     1      -3.293   7.170   3.810  0.00  0.00    +0.041 A 
ATOM      5  C   UNL     1      -4.698   7.294   3.898  0.00  0.00    +0.082 A 
ATOM      6  C   UNL     1      -5.457   6.344   3.174  0.00  0.00    +0.053 A 
ATOM      7  N   UNL     1      -5.150   8.309   4.666  0.00  0.00    -0.225 NA
ATOM      8  C   UNL     1      -4.343   9.132   5.294  0.00  0.00    +0.165 A 
ATOM      9  S   UNL     1      -2.732   8.512   4.831  0.00  0.00    -0.052 S 
ATOM     10  N   UNL     1      -4.659  10.207   6.109  0.00  0.00    -0.264 N 
ATOM     11  C   UNL     1      -3.676  10.939   6.670  0.00  0.00    +0.222 C 
ATOM     12  O   UNL     1      -2.515  10.658   6.461  0.00  0.00    -0.275 OA
ATOM     13  H   UNL     1      -5.712  10.462   6.298  0.00  0.00    +0.157 HD
ENDROOT
BRANCH  11  14
ATOM     14  C   UNL     1      -4.021  12.109   7.556  0.00  0.00    +0.075 C 
ATOM     15  C   UNL     1      -4.835  13.130   6.759  0.00  0.00    +0.013 C 
ATOM     16  C   UNL     1      -5.184  14.317   7.659  0.00  0.00    +0.001 C 
ATOM     17  C   UNL     1      -3.896  14.972   8.162  0.00  0.00    +0.000 C 
ATOM     18  C   UNL     1      -3.082  13.951   8.958  0.00  0.00    +0.001 C 
ATOM     19  C   UNL     1      -2.733  12.764   8.059  0.00  0.00    +0.013 C 
ENDBRANCH  11  14
BRANCH   1  20
ATOM     20  N   UNL     1      -5.611   4.441   1.728  0.00  0.00    -0.216 N 
ATOM     21  H   UNL     1      -5.708   3.409   2.097  0.00  0.00    +0.174 HD
BRANCH  20  22
ATOM     22  S   UNL     1      -6.385   4.899   0.338  0.00  0.00    +0.072 S 
ATOM     23  O   UNL     1      -7.065   6.111   0.632  0.00  0.00    -0.150 OA
ATOM     24  O   UNL     1      -7.058   3.746  -0.151  0.00  0.00    -0.150 OA
BRANCH  22  28
ATOM     25  C   UNL     1      -3.186   5.915  -2.703  0.00  0.00    +0.033 A 
ATOM     26  C   UNL     1      -3.611   6.874  -1.793  0.00  0.00    +0.025 A 
ATOM     27  C   UNL     1      -4.591   6.563  -0.871  0.00  0.00    +0.030 A 
ATOM     28  C   UNL     1      -5.140   5.294  -0.845  0.00  0.00    +0.109 A 
ATOM     29  C   UNL     1      -4.715   4.335  -1.746  0.00  0.00    +0.030 A 
ATOM     30  C   UNL     1      -3.740   4.642  -2.675  0.00  0.00    +0.025 A 
BRANCH  25  33
ATOM     31  C   UNL     1      -2.124   7.475  -4.152  0.00  0.00    +0.217 C 
ATOM     32  O   UNL     1      -2.969   8.298  -3.867  0.00  0.00    -0.275 OA
ATOM     33  N   UNL     1      -2.198   6.229  -3.643  0.00  0.00    -0.286 N 
ATOM     34  H   UNL     1      -1.482   5.459  -3.966  0.00  0.00    +0.155 HD
BRANCH  31  36
ATOM     35  C   UNL     1      -1.142   9.306  -5.505  0.00  0.00    +0.013 C 
ATOM     36  C   UNL     1      -0.991   7.846  -5.074  0.00  0.00    +0.093 C 
ENDBRANCH  31  36
ENDBRANCH  25  33
ENDBRANCH  22  28
ENDBRANCH  20  22
ENDBRANCH   1  20
TORSDOF 6
