REMARK  Name = ZINC36660308
REMARK  12 active torsions:
REMARK  status: ('A' for Active; 'I' for Inactive)
REMARK    1  A    between atoms: C_1  and  C_2
REMARK    2  A    between atoms: C_5  and  S_8
REMARK    3  A    between atoms: S_8  and  N_11
REMARK    4  A    between atoms: C_15  and  C_17
REMARK    5  A    between atoms: N_19  and  C_20
REMARK    6  A    between atoms: C_20  and  C_21
REMARK    7  A    between atoms: C_21  and  C_22
REMARK    8  A    between atoms: C_22  and  N_23
REMARK    9  A    between atoms: N_23  and  C_24
REMARK   10  A    between atoms: N_23  and  C_25
REMARK   11  A    between atoms: C_29  and  C_36
REMARK   12  A    between atoms: C_31  and  C_35
REMARK                            x       y       z     vdW  Elec       q    Type
REMARK                         _______ _______ _______ _____ _____    ______ ____
ROOT
ATOM      1  C   UNL     1       1.884  -6.370   1.970  0.00  0.00    +0.240 C 
ATOM      2  O   UNL     1       0.824  -6.861   1.645  0.00  0.00    -0.273 OA
ATOM      3  N   UNL     1       2.547  -6.846   3.042  0.00  0.00    -0.249 N 
ATOM      4  C   UNL     1       2.070  -7.961   3.712  0.00  0.00    +0.168 A 
ATOM      5  N   UNL     1       1.007  -8.685   3.452  0.00  0.00    -0.224 NA
ATOM      6  C   UNL     1       0.659  -9.757   4.197  0.00  0.00    +0.083 A 
ATOM      7  C   UNL     1      -0.452 -10.615   4.026  0.00  0.00    -0.024 A 
ATOM      8  C   UNL     1      -0.661 -11.667   4.879  0.00  0.00    +0.009 A 
ATOM      9  C   UNL     1       0.202 -11.929   5.933  0.00  0.00    -0.049 A 
ATOM     10  C   UNL     1       1.299 -11.111   6.129  0.00  0.00    +0.020 A 
ATOM     11  C   UNL     1       1.517 -10.055   5.280  0.00  0.00    +0.041 A 
ATOM     12  S   UNL     1       2.752  -8.785   5.144  0.00  0.00    -0.052 S 
ATOM     13  C   UNL     1      -0.054 -13.093   6.856  0.00  0.00    +0.044 C 
ATOM     14  C   UNL     1      -1.417 -10.370   2.895  0.00  0.00    +0.046 C 
ENDROOT
BRANCH   1  19
ATOM     15  N   UNL     1       1.390  -4.544   0.433  0.00  0.00    -0.165 NA
ATOM     16  C   UNL     1       1.672  -4.650  -1.010  0.00  0.00    +0.110 C 
ATOM     17  C   UNL     1       3.204  -4.865  -1.100  0.00  0.00    +0.019 C 
ATOM     18  C   UNL     1       3.464  -5.768   0.135  0.00  0.00    +0.031 C 
ATOM     19  C   UNL     1       2.460  -5.227   1.174  0.00  0.00    +0.166 C 
BRANCH  15  20
ATOM     20  S   UNL     1       0.086  -3.776   1.107  0.00  0.00    +0.062 S 
ATOM     21  O   UNL     1      -0.107  -4.356   2.390  0.00  0.00    -0.153 OA
ATOM     22  O   UNL     1      -0.933  -3.760   0.117  0.00  0.00    -0.153 OA
BRANCH  20  27
ATOM     23  C   UNL     1       1.679   1.969   2.033  0.00  0.00    +0.044 C 
ATOM     24  C   UNL     1       1.281   0.534   1.802  0.00  0.00    -0.050 A 
ATOM     25  C   UNL     1       0.703   0.162   0.603  0.00  0.00    +0.005 A 
ATOM     26  C   UNL     1       0.338  -1.155   0.391  0.00  0.00    +0.029 A 
ATOM     27  C   UNL     1       0.552  -2.099   1.377  0.00  0.00    +0.106 A 
ATOM     28  C   UNL     1       1.131  -1.727   2.576  0.00  0.00    +0.029 A 
ATOM     29  C   UNL     1       1.500  -0.411   2.787  0.00  0.00    +0.005 A 
ENDBRANCH  20  27
ENDBRANCH  15  20
ENDBRANCH   1  19
BRANCH   3  30
ATOM     30  C   UNL     1       3.771  -6.184   3.500  0.00  0.00    +0.114 C 
BRANCH  30  31
ATOM     31  C   UNL     1       3.425  -5.174   4.597  0.00  0.00    +0.001 C 
BRANCH  31  32
ATOM     32  C   UNL     1       4.703  -4.483   5.075  0.00  0.00    -0.078 C 
BRANCH  32  33
ATOM     33  N   UNL     1       4.371  -3.514   6.128  0.00  0.00    +0.376 N 
ATOM     34  C   UNL     1       5.609  -2.937   6.671  0.00  0.00    -0.097 C 
ATOM     35  C   UNL     1       3.538  -2.444   5.564  0.00  0.00    -0.097 C 
ATOM     36  H   UNL     1       3.866  -3.980   6.867  0.00  0.00    -0.083 HD
ENDBRANCH  32  33
ENDBRANCH  31  32
ENDBRANCH  30  31
ENDBRANCH   3  30
TORSDOF 7
