REMARK  Name = ZINC02231394
REMARK  9 active torsions:
REMARK  status: ('A' for Active; 'I' for Inactive)
REMARK    1  A    between atoms: C_1  and  C_2
REMARK    2  A    between atoms: C_2  and  C_3
REMARK    3  A    between atoms: C_2  and  C_4
REMARK    4  A    between atoms: C_7  and  C_10
REMARK    5  A    between atoms: N_11  and  N_12
REMARK    6  A    between atoms: C_13  and  C_15
REMARK    7  A    between atoms: C_15  and  S_16
REMARK    8  A    between atoms: S_16  and  C_17
REMARK    9  A    between atoms: N_30  and  C_31
REMARK                            x       y       z     vdW  Elec       q    Type
REMARK                         _______ _______ _______ _____ _____    ______ ____
ROOT
ATOM      1  C   UNL     1      -2.718  -3.358  -0.675  0.00  0.00    +0.178 A 
ATOM      2  N   UNL     1      -3.743  -2.529  -0.676  0.00  0.00    -0.215 NA
ATOM      3  C   UNL     1      -4.861  -2.829  -0.026  0.00  0.00    +0.117 A 
ATOM      4  C   UNL     1      -5.007  -4.024   0.699  0.00  0.00    +0.076 A 
ATOM      5  C   UNL     1      -6.295  -4.211   1.370  0.00  0.00    -0.023 A 
ATOM      6  C   UNL     1      -7.207  -3.228   1.229  0.00  0.00    -0.004 A 
ATOM      7  S   UNL     1      -6.418  -2.011   0.209  0.00  0.00    -0.073 S 
ATOM      8  C   UNL     1      -8.587  -3.180   1.810  0.00  0.00    +0.043 C 
ATOM      9  C   UNL     1      -8.958  -4.589   2.293  0.00  0.00    +0.005 C 
ATOM     10  C   UNL     1      -7.794  -5.149   3.115  0.00  0.00    +0.005 C 
ATOM     11  C   UNL     1      -6.610  -5.454   2.197  0.00  0.00    +0.037 C 
ATOM     12  C   UNL     1      -3.878  -4.902   0.688  0.00  0.00    +0.268 A 
ATOM     13  O   UNL     1      -3.914  -5.962   1.289  0.00  0.00    -0.267 OA
ATOM     14  N   UNL     1      -2.776  -4.543   0.004  0.00  0.00    -0.255 N 
ENDROOT
BRANCH  14  15
ATOM     15  C   UNL     1      -1.666  -5.399  -0.011  0.00  0.00    +0.052 A 
ATOM     16  C   UNL     1      -1.549  -6.368  -0.998  0.00  0.00    +0.026 A 
ATOM     17  C   UNL     1      -0.452  -7.207  -1.014  0.00  0.00    +0.002 A 
ATOM     18  C   UNL     1       0.524  -7.089  -0.040  0.00  0.00    +0.000 A 
ATOM     19  C   UNL     1       0.407  -6.129   0.948  0.00  0.00    +0.002 A 
ATOM     20  C   UNL     1      -0.685  -5.283   0.965  0.00  0.00    +0.026 A 
ENDBRANCH  14  15
BRANCH   1  21
ATOM     21  S   UNL     1      -1.253  -2.931  -1.556  0.00  0.00    -0.078 S 
BRANCH  21  22
ATOM     22  C   UNL     1      -1.747  -1.324  -2.227  0.00  0.00    +0.174 C 
BRANCH  22  24
ATOM     23  N   UNL     1      -0.757   0.448  -3.641  0.00  0.00    -0.206 N 
ATOM     24  C   UNL     1      -0.616  -0.751  -3.041  0.00  0.00    +0.242 C 
ATOM     25  O   UNL     1       0.422  -1.368  -3.156  0.00  0.00    -0.273 OA
ATOM     26  H   UNL     1      -1.588   0.939  -3.552  0.00  0.00    +0.177 HD
BRANCH  23  28
ATOM     27  C   UNL     1       0.158   2.135  -4.975  0.00  0.00    +0.138 C 
ATOM     28  N   UNL     1       0.294   0.981  -4.398  0.00  0.00    -0.188 NA
BRANCH  27  32
ATOM     29  C   UNL     1       3.344   3.750  -7.267  0.00  0.00    -0.045 A 
ATOM     30  C   UNL     1       2.162   4.456  -7.139  0.00  0.00    +0.004 A 
ATOM     31  C   UNL     1       1.122   3.938  -6.395  0.00  0.00    +0.010 A 
ATOM     32  C   UNL     1       1.265   2.696  -5.772  0.00  0.00    -0.005 A 
ATOM     33  C   UNL     1       2.464   1.990  -5.902  0.00  0.00    +0.010 A 
ATOM     34  C   UNL     1       3.493   2.519  -6.652  0.00  0.00    +0.004 A 
BRANCH  29  36
ATOM     35  C   UNL     1       5.707   4.500  -7.189  0.00  0.00    +0.012 C 
ATOM     36  C   UNL     1       4.476   4.324  -8.081  0.00  0.00    +0.013 C 
ATOM     37  C   UNL     1       4.811   3.372  -9.231  0.00  0.00    +0.012 C 
ENDBRANCH  29  36
ENDBRANCH  27  32
ENDBRANCH  23  28
ENDBRANCH  22  24
ENDBRANCH  21  22
ENDBRANCH   1  21
TORSDOF 7
