REMARK  Name = ZINC62456787
REMARK  10 active torsions:
REMARK  status: ('A' for Active; 'I' for Inactive)
REMARK    1  A    between atoms: C_1  and  C_2
REMARK    2  A    between atoms: C_2  and  C_3
REMARK    3  A    between atoms: C_2  and  C_4
REMARK    4  A    between atoms: C_4  and  C_6
REMARK    5  A    between atoms: C_4  and  N_23
REMARK    6  A    between atoms: C_24  and  O_26
REMARK    7  A    between atoms: O_26  and  C_27
REMARK    8  A    between atoms: C_27  and  C_28
REMARK    9  A    between atoms: C_27  and  C_29
REMARK   10  A    between atoms: C_27  and  C_30
REMARK                            x       y       z     vdW  Elec       q    Type
REMARK                         _______ _______ _______ _____ _____    ______ ____
ROOT
ATOM      1  C   UNL     1      -2.204  -0.004  -1.034  0.00  0.00    +0.236 C 
ATOM      2  O   UNL     1      -2.826  -0.790  -1.717  0.00  0.00    -0.274 OA
ATOM      3  N   UNL     1      -2.259   1.315  -1.305  0.00  0.00    -0.297 N 
ATOM      4  C   UNL     1      -1.597   2.292  -0.428  0.00  0.00    +0.123 C 
ATOM      5  C   UNL     1      -0.723   3.209  -1.291  0.00  0.00    +0.104 C 
ATOM      6  N   UNL     1      -1.542   3.787  -2.366  0.00  0.00    -0.292 NA
ATOM      7  C   UNL     1      -0.790   4.799  -3.120  0.00  0.00    +0.090 C 
ATOM      8  C   UNL     1      -1.775   5.615  -3.958  0.00  0.00    +0.051 C 
ATOM      9  C   UNL     1      -2.671   4.692  -4.744  0.00  0.00    -0.041 A 
ATOM     10  C   UNL     1      -3.376   5.212  -5.819  0.00  0.00    +0.004 A 
ATOM     11  C   UNL     1      -4.210   4.402  -6.562  0.00  0.00    +0.000 A 
ATOM     12  C   UNL     1      -4.344   3.065  -6.233  0.00  0.00    +0.000 A 
ATOM     13  C   UNL     1      -3.642   2.547  -5.165  0.00  0.00    +0.005 A 
ATOM     14  C   UNL     1      -2.801   3.359  -4.417  0.00  0.00    -0.026 A 
ATOM     15  C   UNL     1      -2.051   2.747  -3.264  0.00  0.00    +0.104 C 
ATOM     16  C   UNL     1      -2.979   1.813  -2.487  0.00  0.00    +0.131 C 
ENDROOT
BRANCH   1  17
ATOM     17  C   UNL     1      -1.368  -0.503   0.116  0.00  0.00    +0.165 C 
BRANCH  17  18
ATOM     18  N   UNL     1      -2.023  -1.662   0.729  0.00  0.00    -0.270 N 
ATOM     19  C   UNL     1      -1.778  -1.971   2.017  0.00  0.00    +0.401 C 
ATOM     20  O   UNL     1      -1.015  -1.289   2.671  0.00  0.00    -0.226 OA
ATOM     21  H   UNL     1      -2.632  -2.207   0.206  0.00  0.00    +0.153 HD
BRANCH  19  22
ATOM     22  O   UNL     1      -2.380  -3.036   2.580  0.00  0.00    -0.445 OA
BRANCH  22  23
ATOM     23  C   UNL     1      -2.074  -3.305   3.950  0.00  0.00    +0.107 C 
ATOM     24  C   UNL     1      -2.478  -2.104   4.808  0.00  0.00    +0.055 C 
ATOM     25  C   UNL     1      -2.846  -4.543   4.411  0.00  0.00    +0.055 C 
ATOM     26  C   UNL     1      -0.572  -3.555   4.098  0.00  0.00    +0.055 C 
ENDBRANCH  22  23
ENDBRANCH  19  22
ENDBRANCH  17  18
BRANCH  17  28
ATOM     27  C   UNL     1       0.662   0.276  -1.113  0.00  0.00    +0.009 C 
ATOM     28  C   UNL     1       0.015  -0.911  -0.397  0.00  0.00    +0.012 C 
ATOM     29  C   UNL     1       0.892  -1.335   0.783  0.00  0.00    +0.009 C 
ENDBRANCH  17  28
ENDBRANCH   1  17
TORSDOF 5
