REMARK  Name = ZINC09409316
REMARK  11 active torsions:
REMARK  status: ('A' for Active; 'I' for Inactive)
REMARK    1  A    between atoms: C_1  and  C_2
REMARK    2  A    between atoms: C_2  and  C_3
REMARK    3  A    between atoms: C_3  and  S_4
REMARK    4  A    between atoms: S_4  and  C_5
REMARK    5  A    between atoms: C_9  and  C_11
REMARK    6  A    between atoms: N_13  and  C_14
REMARK    7  A    between atoms: C_17  and  S_20
REMARK    8  A    between atoms: S_20  and  N_23
REMARK    9  A    between atoms: N_23  and  C_24
REMARK   10  A    between atoms: C_25  and  C_30
REMARK   11  A    between atoms: C_26  and  C_29
REMARK                            x       y       z     vdW  Elec       q    Type
REMARK                         _______ _______ _______ _____ _____    ______ ____
ROOT
ATOM      1  C   UNL     1       0.214   0.808  -9.312  0.00  0.00    +0.034 A 
ATOM      2  C   UNL     1      -0.612   1.378 -10.272  0.00  0.00    +0.025 A 
ATOM      3  C   UNL     1      -0.391   1.121 -11.611  0.00  0.00    +0.030 A 
ATOM      4  C   UNL     1       0.644   0.289 -11.995  0.00  0.00    +0.109 A 
ATOM      5  C   UNL     1       1.465  -0.284 -11.042  0.00  0.00    +0.030 A 
ATOM      6  C   UNL     1       1.254  -0.027  -9.701  0.00  0.00    +0.025 A 
ENDROOT
BRANCH   1   9
ATOM      7  C   UNL     1      -0.472   2.274  -7.569  0.00  0.00    +0.268 C 
ATOM      8  O   UNL     1      -0.615   3.161  -8.386  0.00  0.00    -0.268 OA
ATOM      9  N   UNL     1      -0.003   1.071  -7.956  0.00  0.00    -0.280 N 
ATOM     10  H   UNL     1       0.184   0.387  -7.293  0.00  0.00    +0.155 HD
BRANCH   7  15
ATOM     11  C   UNL     1      -0.963   1.760  -3.971  0.00  0.00    +0.189 A 
ATOM     12  N   UNL     1      -1.427   2.929  -3.549  0.00  0.00    -0.229 NA
ATOM     13  C   UNL     1      -1.605   3.933  -4.389  0.00  0.00    +0.136 A 
ATOM     14  C   UNL     1      -1.300   3.756  -5.733  0.00  0.00    +0.090 A 
ATOM     15  C   UNL     1      -0.813   2.514  -6.145  0.00  0.00    +0.148 A 
ATOM     16  N   UNL     1      -0.655   1.550  -5.241  0.00  0.00    -0.216 NA
ATOM     17 CL   UNL     1      -1.518   5.048  -6.872  0.00  0.00    -0.080 Cl
BRANCH  11  18
ATOM     18  S   UNL     1      -0.744   0.454  -2.809  0.00  0.00    -0.086 S 
BRANCH  18  19
ATOM     19  C   UNL     1      -1.295   1.282  -1.297  0.00  0.00    +0.077 C 
BRANCH  19  21
ATOM     20  C   UNL     1      -1.657   1.014   1.160  0.00  0.00    +0.004 C 
ATOM     21  C   UNL     1      -1.191   0.314  -0.118  0.00  0.00    +0.008 C 
ENDBRANCH  19  21
ENDBRANCH  18  19
ENDBRANCH  11  18
ENDBRANCH   7  15
ENDBRANCH   1   9
BRANCH   4  22
ATOM     22  S   UNL     1       0.918  -0.041 -13.704  0.00  0.00    +0.075 S 
ATOM     23  O   UNL     1       0.355   1.047 -14.424  0.00  0.00    -0.150 OA
ATOM     24  O   UNL     1       2.283  -0.414 -13.832  0.00  0.00    -0.150 OA
BRANCH  22  25
ATOM     25  N   UNL     1       0.024  -1.380 -14.093  0.00  0.00    -0.183 N 
ATOM     26  H   UNL     1       0.468  -2.199 -14.361  0.00  0.00    +0.177 HD
BRANCH  25  27
ATOM     27  C   UNL     1      -1.357  -1.329 -14.036  0.00  0.00    +0.240 A 
ATOM     28  C   UNL     1      -2.228  -2.341 -14.330  0.00  0.00    +0.035 A 
ATOM     29  C   UNL     1      -3.497  -1.770 -14.109  0.00  0.00    +0.085 A 
ATOM     30  N   UNL     1      -3.290  -0.539 -13.734  0.00  0.00    -0.081 NA
ATOM     31  O   UNL     1      -2.111  -0.275 -13.687  0.00  0.00    -0.338 OA
ATOM     32  C   UNL     1      -4.832  -2.448 -14.281  0.00  0.00    +0.069 C 
ATOM     33  C   UNL     1      -1.905  -3.741 -14.783  0.00  0.00    +0.051 C 
ENDBRANCH  25  27
ENDBRANCH  22  25
ENDBRANCH   4  22
TORSDOF 8
