REMARK  Name = ZINC35172211
REMARK  14 active torsions:
REMARK  status: ('A' for Active; 'I' for Inactive)
REMARK    1  A    between atoms: C_1  and  C_2
REMARK    2  A    between atoms: C_5  and  N_8
REMARK    3  A    between atoms: C_9  and  N_19
REMARK    4  A    between atoms: C_11  and  C_13
REMARK    5  A    between atoms: C_20  and  C_22
REMARK    6  A    between atoms: C_22  and  N_23
REMARK    7  A    between atoms: N_23  and  C_24
REMARK    8  A    between atoms: N_23  and  S_27
REMARK    9  A    between atoms: C_24  and  C_25
REMARK   10  A    between atoms: C_24  and  C_26
REMARK   11  A    between atoms: S_27  and  C_30
REMARK   12  A    between atoms: C_31  and  C_38
REMARK   13  A    between atoms: C_33  and  C_37
REMARK   14  A    between atoms: C_35  and  C_36
REMARK                            x       y       z     vdW  Elec       q    Type
REMARK                         _______ _______ _______ _____ _____    ______ ____
ROOT
ATOM      1  N   UNL     1       0.106  -5.816   1.738  0.00  0.00    -0.269 N 
ATOM      2  C   UNL     1       1.100  -6.206   2.560  0.00  0.00    +0.234 C 
ATOM      3  O   UNL     1       1.413  -7.377   2.620  0.00  0.00    -0.274 OA
ATOM      4  H   UNL     1      -0.144  -4.880   1.689  0.00  0.00    +0.156 HD
ENDROOT
BRANCH   1   6
ATOM      5  N   UNL     1      -1.579  -6.505   0.086  0.00  0.00    -0.218 N 
ATOM      6  C   UNL     1      -0.562  -6.758   0.955  0.00  0.00    +0.129 A 
ATOM      7  C   UNL     1      -0.314  -8.094   0.923  0.00  0.00    +0.074 A 
ATOM      8  C   UNL     1      -1.209  -8.675   0.004  0.00  0.00    +0.095 A 
ATOM      9  N   UNL     1      -1.968  -7.720  -0.490  0.00  0.00    -0.165 NA
BRANCH   5  14
ATOM     10  C   UNL     1      -3.855  -1.420  -0.996  0.00  0.00    +0.044 C 
ATOM     11  C   UNL     1      -3.250  -2.771  -0.709  0.00  0.00    -0.050 A 
ATOM     12  C   UNL     1      -3.143  -3.708  -1.720  0.00  0.00    +0.005 A 
ATOM     13  C   UNL     1      -2.589  -4.946  -1.460  0.00  0.00    +0.028 A 
ATOM     14  C   UNL     1      -2.140  -5.250  -0.181  0.00  0.00    +0.067 A 
ATOM     15  C   UNL     1      -2.250  -4.306   0.832  0.00  0.00    +0.028 A 
ATOM     16  C   UNL     1      -2.799  -3.068   0.564  0.00  0.00    +0.005 A 
ENDBRANCH   5  14
BRANCH   8  17
ATOM     17  C   UNL     1      -1.286 -10.116  -0.341  0.00  0.00    +0.002 A 
ATOM     18  C   UNL     1      -0.427 -11.029   0.268  0.00  0.00    +0.010 A 
ATOM     19  C   UNL     1      -0.504 -12.368  -0.057  0.00  0.00    +0.001 A 
ATOM     20  C   UNL     1      -1.432 -12.805  -0.986  0.00  0.00    +0.000 A 
ATOM     21  C   UNL     1      -2.287 -11.903  -1.594  0.00  0.00    +0.001 A 
ATOM     22  C   UNL     1      -2.223 -10.562  -1.272  0.00  0.00    +0.010 A 
ENDBRANCH   8  17
ENDBRANCH   1   6
BRANCH   2  23
ATOM     23  C   UNL     1       1.822  -5.189   3.405  0.00  0.00    +0.205 C 
BRANCH  23  24
ATOM     24  N   UNL     1       2.850  -5.859   4.206  0.00  0.00    -0.165 NA
BRANCH  24  25
ATOM     25  C   UNL     1       4.173  -6.114   3.632  0.00  0.00    +0.074 C 
ATOM     26  C   UNL     1       4.020  -6.880   2.317  0.00  0.00    +0.025 C 
ATOM     27  C   UNL     1       4.880  -4.783   3.368  0.00  0.00    +0.025 C 
ENDBRANCH  24  25
BRANCH  24  28
ATOM     28  S   UNL     1       2.515  -6.328   5.758  0.00  0.00    +0.062 S 
ATOM     29  O   UNL     1       3.766  -6.573   6.387  0.00  0.00    -0.153 OA
ATOM     30  O   UNL     1       1.575  -5.394   6.271  0.00  0.00    -0.153 OA
BRANCH  28  31
ATOM     31  C   UNL     1       1.685  -7.879   5.666  0.00  0.00    +0.111 A 
ATOM     32  C   UNL     1       2.394  -9.054   5.833  0.00  0.00    -0.024 A 
ATOM     33  C   UNL     1       1.743 -10.271   5.761  0.00  0.00    +0.008 A 
ATOM     34  C   UNL     1       0.382 -10.313   5.523  0.00  0.00    -0.050 A 
ATOM     35  C   UNL     1      -0.328  -9.139   5.357  0.00  0.00    +0.008 A 
ATOM     36  C   UNL     1       0.323  -7.921   5.434  0.00  0.00    -0.024 A 
ATOM     37  C   UNL     1      -0.452  -6.641   5.258  0.00  0.00    +0.046 C 
ATOM     38  C   UNL     1      -0.328 -11.640   5.443  0.00  0.00    +0.044 C 
ATOM     39  C   UNL     1       3.878  -9.008   6.092  0.00  0.00    +0.046 C 
ENDBRANCH  28  31
ENDBRANCH  24  28
ENDBRANCH  23  24
ENDBRANCH   2  23
TORSDOF 8
