REMARK  Name = ZINC15279807
REMARK  14 active torsions:
REMARK  status: ('A' for Active; 'I' for Inactive)
REMARK    1  A    between atoms: C_1  and  C_2
REMARK    2  A    between atoms: C_2  and  C_3
REMARK    3  A    between atoms: C_8  and  N_9
REMARK    4  A    between atoms: C_10  and  C_12
REMARK    5  A    between atoms: C_12  and  O_13
REMARK    6  A    between atoms: O_13  and  C_14
REMARK    7  A    between atoms: C_14  and  C_16
REMARK    8  A    between atoms: C_18  and  S_27
REMARK    9  A    between atoms: C_21  and  N_22
REMARK   10  A    between atoms: S_27  and  N_30
REMARK   11  A    between atoms: N_30  and  C_31
REMARK   12  A    between atoms: N_30  and  C_33
REMARK   13  A    between atoms: C_31  and  C_32
REMARK   14  A    between atoms: C_33  and  C_34
REMARK                            x       y       z     vdW  Elec       q    Type
REMARK                         _______ _______ _______ _____ _____    ______ ____
ROOT
ATOM      1  C   UNL     1      -1.543   0.161  -2.974  0.00  0.00    +0.082 A 
ATOM      2  C   UNL     1      -1.263  -0.570  -4.133  0.00  0.00    +0.045 A 
ATOM      3  C   UNL     1       0.001  -0.535  -4.678  0.00  0.00    +0.106 A 
ATOM      4  C   UNL     1       0.998   0.227  -4.088  0.00  0.00    +0.030 A 
ATOM      5  C   UNL     1       0.737   0.958  -2.948  0.00  0.00    +0.026 A 
ATOM      6  C   UNL     1      -0.532   0.935  -2.382  0.00  0.00    +0.044 A 
ENDROOT
BRANCH   6   7
ATOM      7  N   UNL     1      -0.797   1.670  -1.234  0.00  0.00    -0.329 N 
ATOM      8  C   UNL     1      -0.668   3.127  -1.493  0.00  0.00    +0.105 C 
ATOM      9  C   UNL     1      -0.451   3.755  -0.100  0.00  0.00    +0.020 C 
ATOM     10  C   UNL     1       0.131   2.613   0.765  0.00  0.00    +0.020 C 
ATOM     11  C   UNL     1       0.213   1.395  -0.181  0.00  0.00    +0.105 C 
ENDBRANCH   6   7
BRANCH   3  12
ATOM     12  S   UNL     1       0.352  -1.463  -6.134  0.00  0.00    +0.061 S 
ATOM     13  O   UNL     1      -0.887  -1.658  -6.801  0.00  0.00    -0.153 OA
ATOM     14  O   UNL     1       1.462  -0.833  -6.759  0.00  0.00    -0.153 OA
BRANCH  12  15
ATOM     15  N   UNL     1       0.869  -2.959  -5.648  0.00  0.00    -0.177 NA
BRANCH  15  16
ATOM     16  C   UNL     1      -0.099  -4.041  -5.455  0.00  0.00    +0.106 C 
ATOM     17  C   UNL     1      -0.181  -4.886  -6.728  0.00  0.00    +0.022 C 
ENDBRANCH  15  16
BRANCH  15  18
ATOM     18  C   UNL     1       2.295  -3.201  -5.412  0.00  0.00    +0.106 C 
ATOM     19  C   UNL     1       2.604  -3.014  -3.926  0.00  0.00    +0.022 C 
ENDBRANCH  15  18
ENDBRANCH  12  15
ENDBRANCH   3  12
BRANCH   1  20
ATOM     20  C   UNL     1      -2.890   0.122  -2.380  0.00  0.00    +0.341 C 
ATOM     21  O   UNL     1      -3.156   0.832  -1.430  0.00  0.00    -0.245 OA
BRANCH  20  22
ATOM     22  O   UNL     1      -3.828  -0.700  -2.891  0.00  0.00    -0.452 OA
BRANCH  22  23
ATOM     23  C   UNL     1      -5.134  -0.685  -2.256  0.00  0.00    +0.328 C 
BRANCH  23  25
ATOM     24  N   UNL     1      -7.315  -1.817  -2.537  0.00  0.00    -0.282 N 
ATOM     25  C   UNL     1      -6.044  -1.660  -2.957  0.00  0.00    +0.255 C 
ATOM     26  O   UNL     1      -5.633  -2.304  -3.899  0.00  0.00    -0.272 OA
ATOM     27  H   UNL     1      -7.664  -1.256  -1.826  0.00  0.00    +0.155 HD
BRANCH  24  33
ATOM     28  C   UNL     1      -9.089  -3.447  -2.365  0.00  0.00    -0.026 A 
ATOM     29  C   UNL     1      -9.893  -4.406  -2.949  0.00  0.00    +0.005 A 
ATOM     30  C   UNL     1      -9.747  -4.710  -4.290  0.00  0.00    +0.000 A 
ATOM     31  C   UNL     1      -8.796  -4.055  -5.051  0.00  0.00    +0.002 A 
ATOM     32  C   UNL     1      -7.991  -3.092  -4.474  0.00  0.00    +0.023 A 
ATOM     33  C   UNL     1      -8.132  -2.789  -3.126  0.00  0.00    +0.037 A 
BRANCH  28  35
ATOM     34  C   UNL     1     -10.175  -1.908  -0.753  0.00  0.00    +0.009 C 
ATOM     35  C   UNL     1      -9.249  -3.117  -0.903  0.00  0.00    +0.033 C 
ENDBRANCH  28  35
ENDBRANCH  24  33
ENDBRANCH  23  25
ENDBRANCH  22  23
ENDBRANCH  20  22
ENDBRANCH   1  20
TORSDOF 11
