REMARK  Name = ZINC58966522
REMARK  12 active torsions:
REMARK  status: ('A' for Active; 'I' for Inactive)
REMARK    1  A    between atoms: C_1  and  C_2
REMARK    2  A    between atoms: C_5  and  C_8
REMARK    3  A    between atoms: C_8  and  N_9
REMARK    4  A    between atoms: C_10  and  C_37
REMARK    5  A    between atoms: C_11  and  N_15
REMARK    6  A    between atoms: C_12  and  C_14
REMARK    7  A    between atoms: C_16  and  C_18
REMARK    8  A    between atoms: C_18  and  C_20
REMARK    9  A    between atoms: C_18  and  S_21
REMARK   10  A    between atoms: S_21  and  C_22
REMARK   11  A    between atoms: C_24  and  C_32
REMARK   12  A    between atoms: C_26  and  C_28
REMARK                            x       y       z     vdW  Elec       q    Type
REMARK                         _______ _______ _______ _____ _____    ______ ____
ROOT
ATOM      1  N   UNL     1       4.367  -5.773  -1.730  0.00  0.00    -0.282 N 
ATOM      2  C   UNL     1       5.659  -5.787  -1.345  0.00  0.00    +0.230 C 
ATOM      3  O   UNL     1       5.948  -5.577  -0.186  0.00  0.00    -0.274 OA
ATOM      4  H   UNL     1       4.129  -6.014  -2.639  0.00  0.00    +0.155 HD
ENDROOT
BRANCH   1   7
ATOM      5  N   UNL     1       1.819  -4.275   0.251  0.00  0.00    -0.262 N 
ATOM      6  C   UNL     1       2.702  -4.223  -0.780  0.00  0.00    +0.058 A 
ATOM      7  C   UNL     1       3.363  -5.409  -0.813  0.00  0.00    +0.077 A 
ATOM      8  C   UNL     1       2.868  -6.205   0.230  0.00  0.00    +0.081 A 
ATOM      9  N   UNL     1       1.950  -5.525   0.867  0.00  0.00    -0.174 NA
ATOM     10  C   UNL     1       3.320  -7.604   0.563  0.00  0.00    +0.069 C 
ATOM     11  C   UNL     1       2.909  -3.062  -1.718  0.00  0.00    +0.067 C 
BRANCH   5  12
ATOM     12  C   UNL     1       0.898  -3.208   0.650  0.00  0.00    +0.179 C 
BRANCH  12  17
ATOM     13  C   UNL     1       3.486   0.233   4.505  0.00  0.00    +0.044 C 
ATOM     14  C   UNL     1       2.811  -0.665   3.499  0.00  0.00    -0.050 A 
ATOM     15  C   UNL     1       2.913  -0.389   2.149  0.00  0.00    +0.004 A 
ATOM     16  C   UNL     1       2.294  -1.212   1.227  0.00  0.00    +0.006 A 
ATOM     17  C   UNL     1       1.574  -2.311   1.655  0.00  0.00    -0.026 A 
ATOM     18  C   UNL     1       1.473  -2.588   3.006  0.00  0.00    +0.006 A 
ATOM     19  C   UNL     1       2.095  -1.767   3.928  0.00  0.00    +0.004 A 
ENDBRANCH  12  17
ENDBRANCH   5  12
ENDBRANCH   1   7
BRANCH   2  20
ATOM     20  C   UNL     1       6.742  -6.064  -2.354  0.00  0.00    +0.137 C 
ATOM     21  C   UNL     1       7.121  -4.764  -3.066  0.00  0.00    +0.029 C 
BRANCH  20  22
ATOM     22  S   UNL     1       8.199  -6.737  -1.508  0.00  0.00    -0.074 S 
BRANCH  22  23
ATOM     23  C   UNL     1       9.305  -7.142  -2.819  0.00  0.00    +0.190 A 
ATOM     24  N   UNL     1      10.483  -7.670  -2.529  0.00  0.00    -0.219 NA
ATOM     25  C   UNL     1      11.342  -7.987  -3.499  0.00  0.00    +0.111 A 
ATOM     26  C   UNL     1      10.976  -7.752  -4.831  0.00  0.00    +0.064 A 
ATOM     27  C   UNL     1       9.736  -7.198  -5.085  0.00  0.00    +0.149 A 
ATOM     28  N   UNL     1       8.933  -6.914  -4.071  0.00  0.00    -0.218 NA
BRANCH  25  29
ATOM     29  C   UNL     1      12.655  -8.576  -3.175  0.00  0.00    +0.153 A 
ATOM     30  C   UNL     1      13.119  -8.855  -1.926  0.00  0.00    +0.051 A 
ATOM     31  C   UNL     1      14.406  -9.402  -2.086  0.00  0.00    +0.042 A 
ATOM     32  C   UNL     1      14.663  -9.431  -3.409  0.00  0.00    +0.196 A 
ATOM     33  O   UNL     1      13.601  -8.937  -4.064  0.00  0.00    -0.461 OA
ENDBRANCH  25  29
BRANCH  27  34
ATOM     34  C   UNL     1       9.300  -6.926  -6.502  0.00  0.00    +0.434 C 
ATOM     35  F   UNL     1       8.640  -8.050  -7.010  0.00  0.00    -0.164 F 
ATOM     36  F   UNL     1       8.432  -5.829  -6.520  0.00  0.00    -0.164 F 
ATOM     37  F   UNL     1      10.421  -6.648  -7.290  0.00  0.00    -0.164 F 
ENDBRANCH  27  34
ENDBRANCH  22  23
ENDBRANCH  20  22
ENDBRANCH   2  20
TORSDOF 8
