REMARK  Name = ZINC13032418
REMARK  15 active torsions:
REMARK  status: ('A' for Active; 'I' for Inactive)
REMARK    1  A    between atoms: C_1  and  C_2
REMARK    2  A    between atoms: C_2  and  C_3
REMARK    3  A    between atoms: C_6  and  C_9
REMARK    4  A    between atoms: C_9  and  C_11
REMARK    5  A    between atoms: C_9  and  N_19
REMARK    6  A    between atoms: N_13  and  C_14
REMARK    7  A    between atoms: C_14  and  C_15
REMARK    8  A    between atoms: C_14  and  C_16
REMARK    9  A    between atoms: C_14  and  C_17
REMARK   10  A    between atoms: C_17  and  C_18
REMARK   11  A    between atoms: N_19  and  C_20
REMARK   12  A    between atoms: C_23  and  C_26
REMARK   13  A    between atoms: C_26  and  C_28
REMARK   14  A    between atoms: C_29  and  C_31
REMARK   15  A    between atoms: C_31  and  N_32
REMARK                            x       y       z     vdW  Elec       q    Type
REMARK                         _______ _______ _______ _____ _____    ______ ____
ROOT
ATOM      1  N   UNL     1      -2.366   3.323   2.014  0.00  0.00    -0.254 N 
ATOM      2  C   UNL     1      -2.192   2.063   1.566  0.00  0.00    +0.242 C 
ATOM      3  O   UNL     1      -2.728   1.138   2.138  0.00  0.00    -0.273 OA
ENDROOT
BRANCH   1   4
ATOM      4  C   UNL     1      -1.837   4.395   1.299  0.00  0.00    +0.038 A 
ATOM      5  C   UNL     1      -2.376   4.739   0.062  0.00  0.00    +0.024 A 
ATOM      6  C   UNL     1      -1.861   5.796  -0.642  0.00  0.00    +0.013 A 
ATOM      7  C   UNL     1      -0.785   6.525  -0.121  0.00  0.00    +0.017 A 
ATOM      8  C   UNL     1      -0.242   6.173   1.121  0.00  0.00    +0.013 A 
ATOM      9  C   UNL     1      -0.766   5.117   1.821  0.00  0.00    +0.024 A 
BRANCH   7  10
ATOM     10  C   UNL     1      -0.227   7.655  -0.874  0.00  0.00    +0.160 C 
ATOM     11  O   UNL     1       0.769   8.219  -0.473  0.00  0.00    -0.292 OA
ATOM     12  C   UNL     1      -0.893   8.115  -2.146  0.00  0.00    +0.091 C 
ENDBRANCH   7  10
ENDBRANCH   1   4
BRANCH   1  13
ATOM     13  C   UNL     1      -3.111   3.564   3.252  0.00  0.00    +0.197 C 
BRANCH  13  17
ATOM     14  C   UNL     1      -2.898   7.711   4.256  0.00  0.00    -0.048 A 
ATOM     15  C   UNL     1      -2.442   6.759   5.149  0.00  0.00    +0.004 A 
ATOM     16  C   UNL     1      -2.511   5.417   4.824  0.00  0.00    +0.006 A 
ATOM     17  C   UNL     1      -3.036   5.027   3.606  0.00  0.00    -0.018 A 
ATOM     18  C   UNL     1      -3.488   5.979   2.711  0.00  0.00    +0.006 A 
ATOM     19  C   UNL     1      -3.424   7.320   3.038  0.00  0.00    +0.004 A 
BRANCH  14  21
ATOM     20  C   UNL     1      -1.484   9.744   4.138  0.00  0.00    +0.009 C 
ATOM     21  C   UNL     1      -2.823   9.174   4.610  0.00  0.00    +0.032 C 
ENDBRANCH  14  21
ENDBRANCH  13  17
BRANCH  13  22
ATOM     22  C   UNL     1      -4.551   3.167   3.057  0.00  0.00    +0.239 C 
ATOM     23  O   UNL     1      -4.920   2.726   1.989  0.00  0.00    -0.273 OA
ATOM     24  N   UNL     1      -5.430   3.302   4.069  0.00  0.00    -0.308 N 
ATOM     25  H   UNL     1      -5.136   3.655   4.924  0.00  0.00    +0.149 HD
BRANCH  24  26
ATOM     26  C   UNL     1      -6.831   2.917   3.880  0.00  0.00    +0.029 C 
ATOM     27  C   UNL     1      -7.440   3.747   2.748  0.00  0.00    +0.031 C 
ATOM     28  C   UNL     1      -6.907   1.431   3.520  0.00  0.00    +0.031 C 
BRANCH  26  29
ATOM     29  C   UNL     1      -7.609   3.168   5.173  0.00  0.00    +0.022 C 
ATOM     30  C   UNL     1      -9.072   2.765   4.975  0.00  0.00    +0.006 C 
ENDBRANCH  26  29
ENDBRANCH  24  26
ENDBRANCH  13  22
ENDBRANCH   1  13
BRANCH   2  31
ATOM     31  C   UNL     1      -1.333   1.806   0.355  0.00  0.00    +0.242 C 
BRANCH  31  32
ATOM     32  N   UNL     1      -1.202   0.361   0.148  0.00  0.00    -0.235 N 
ATOM     33  C   UNL     1      -2.025  -0.439  -0.608  0.00  0.00    +0.090 A 
ATOM     34  C   UNL     1      -3.166  -0.207  -1.369  0.00  0.00    +0.029 A 
ATOM     35  C   UNL     1      -3.771  -1.245  -2.020  0.00  0.00    +0.002 A 
ATOM     36  C   UNL     1      -3.256  -2.533  -1.928  0.00  0.00    +0.002 A 
ATOM     37  C   UNL     1      -2.139  -2.786  -1.188  0.00  0.00    +0.032 A 
ATOM     38  C   UNL     1      -1.500  -1.739  -0.511  0.00  0.00    +0.113 A 
ATOM     39  N   UNL     1      -0.408  -1.682   0.278  0.00  0.00    -0.129 NA
ATOM     40  N   UNL     1      -0.208  -0.476   0.676  0.00  0.00    -0.064 NA
ENDBRANCH  31  32
ENDBRANCH   2  31
TORSDOF 10
