REMARK  Name = ZINC40702904
REMARK  6 active torsions:
REMARK  status: ('A' for Active; 'I' for Inactive)
REMARK    1  A    between atoms: C_1  and  C_2
REMARK    2  A    between atoms: C_13  and  N_27
REMARK    3  A    between atoms: C_14  and  N_18
REMARK    4  A    between atoms: N_18  and  C_19
REMARK    5  A    between atoms: C_22  and  C_26
REMARK    6  A    between atoms: C_23  and  C_25
REMARK                            x       y       z     vdW  Elec       q    Type
REMARK                         _______ _______ _______ _____ _____    ______ ____
ROOT
ATOM      1  C   UNL     1       0.287   1.503  -0.014  0.00  0.00    +0.044 C 
ATOM      2  C   UNL     1       0.269  -0.004  -0.020  0.00  0.00    -0.049 A 
ATOM      3  C   UNL     1       0.028  -0.698  -1.197  0.00  0.00    +0.005 A 
ATOM      4  C   UNL     1       0.006  -2.068  -1.229  0.00  0.00    +0.029 A 
ATOM      5  C   UNL     1       0.230  -2.822  -0.054  0.00  0.00    +0.080 A 
ATOM      6  C   UNL     1       0.472  -2.082   1.126  0.00  0.00    +0.041 A 
ATOM      7  C   UNL     1       0.497  -0.710   1.148  0.00  0.00    +0.020 A 
ATOM      8  S   UNL     1       0.697  -3.362   2.337  0.00  0.00    -0.052 S 
ATOM      9  C   UNL     1       0.465  -4.753   1.239  0.00  0.00    +0.165 A 
ATOM     10  N   UNL     1       0.243  -4.165   0.085  0.00  0.00    -0.225 NA
ATOM     11  N   UNL     1       0.507  -6.103   1.530  0.00  0.00    -0.277 N 
ATOM     12  C   UNL     1       0.297  -7.039   0.521  0.00  0.00    +0.150 A 
ATOM     13  C   UNL     1       0.331  -8.406   0.804  0.00  0.00    +0.106 A 
ATOM     14  C   UNL     1       0.114  -9.302  -0.244  0.00  0.00    +0.149 A 
ATOM     15  N   UNL     1      -0.115  -8.822  -1.465  0.00  0.00    -0.219 NA
ATOM     16  C   UNL     1      -0.140  -7.524  -1.689  0.00  0.00    +0.225 A 
ATOM     17  N   UNL     1       0.055  -6.645  -0.726  0.00  0.00    -0.219 NA
ATOM     18  H   UNL     1       0.682  -6.399   2.437  0.00  0.00    +0.156 HD
ENDROOT
BRANCH  13  19
ATOM     19  N   UNL     1       0.578  -8.866   2.107  0.00  0.00    -0.353 N 
ATOM     20  H   UNL     1       0.727  -8.232   2.825  0.00  0.00    +0.143 HD
ATOM     21  H   UNL     1       0.599  -9.819   2.288  0.00  0.00    +0.143 HD
ENDBRANCH  13  19
BRANCH  14  22
ATOM     22  N   UNL     1       0.138 -10.673  -0.018  0.00  0.00    -0.298 N 
ATOM     23  H   UNL     1       0.223 -11.014   0.886  0.00  0.00    +0.154 HD
BRANCH  22  24
ATOM     24  C   UNL     1       0.040 -11.561  -1.093  0.00  0.00    +0.033 A 
ATOM     25  C   UNL     1      -0.649 -12.759  -0.946  0.00  0.00    +0.023 A 
ATOM     26  C   UNL     1      -0.744 -13.633  -2.010  0.00  0.00    +0.005 A 
ATOM     27  C   UNL     1      -0.154 -13.319  -3.221  0.00  0.00    -0.047 A 
ATOM     28  C   UNL     1       0.532 -12.128  -3.370  0.00  0.00    -0.046 A 
ATOM     29  C   UNL     1       0.626 -11.245  -2.312  0.00  0.00    +0.027 A 
ATOM     30  C   UNL     1       1.174 -11.789  -4.691  0.00  0.00    +0.044 C 
ATOM     31  C   UNL     1      -0.260 -14.276  -4.380  0.00  0.00    +0.044 C 
ENDBRANCH  22  24
ENDBRANCH  14  22
TORSDOF 3
