REMARK  Name = ZINC14540826
REMARK  11 active torsions:
REMARK  status: ('A' for Active; 'I' for Inactive)
REMARK    1  A    between atoms: C_1  and  C_2
REMARK    2  A    between atoms: C_2  and  C_4
REMARK    3  A    between atoms: C_2  and  N_72
REMARK    4  A    between atoms: C_4  and  C_5
REMARK    5  A    between atoms: C_5  and  C_6
REMARK    6  A    between atoms: N_23  and  C_37
REMARK    7  A    between atoms: N_26  and  C_27
REMARK    8  A    between atoms: C_27  and  C_28
REMARK    9  A    between atoms: C_28  and  C_29
REMARK   10  A    between atoms: C_32  and  O_35
REMARK   11  A    between atoms: O_35  and  C_36
REMARK                            x       y       z     vdW  Elec       q    Type
REMARK                         _______ _______ _______ _____ _____    ______ ____
ROOT
ATOM      1  C   UNL     1      -1.714   3.093   1.487  0.00  0.00    -0.076 C 
ATOM      2  C   UNL     1      -0.285   3.448   1.063  0.00  0.00    +0.017 C 
ATOM      3  C   UNL     1      -0.137   3.232  -0.439  0.00  0.00    +0.112 C 
ATOM      4  C   UNL     1      -1.177   4.046  -1.202  0.00  0.00    +0.017 C 
ATOM      5  C   UNL     1      -2.577   3.672  -0.704  0.00  0.00    -0.076 C 
ATOM      6  C   UNL     1       1.257   3.599  -0.891  0.00  0.00    +0.246 C 
ATOM      7  O   UNL     1       1.792   4.684  -0.815  0.00  0.00    -0.273 OA
ATOM      8  N   UNL     1       1.782   2.464  -1.397  0.00  0.00    -0.227 N 
ATOM      9  C   UNL     1       0.916   1.445  -1.325  0.00  0.00    +0.312 C 
ATOM     10  O   UNL     1       1.160   0.321  -1.719  0.00  0.00    -0.252 OA
ATOM     11  N   UNL     1      -0.258   1.807  -0.773  0.00  0.00    -0.271 N 
ATOM     12  C   UNL     1       3.132   2.358  -1.957  0.00  0.00    +0.143 C 
ATOM     13  N   UNL     1      -2.660   3.954   0.745  0.00  0.00    +0.382 N 
ATOM     14  H   UNL     1      -2.413   4.937   0.907  0.00  0.00    -0.081 HD
ENDROOT
BRANCH  13  16
ATOM     15  C   UNL     1      -4.370   2.227   1.201  0.00  0.00    -0.013 C 
ATOM     16  C   UNL     1      -4.037   3.720   1.226  0.00  0.00    -0.071 C 
BRANCH  16  17
ATOM     17  C   UNL     1      -4.154   4.245   2.658  0.00  0.00    -0.011 C 
BRANCH  17  18
ATOM     18  C   UNL     1      -3.890   5.752   2.672  0.00  0.00    +0.036 C 
BRANCH  18  19
ATOM     19  C   UNL     1      -3.887   6.249   4.095  0.00  0.00    -0.022 A 
ATOM     20  C   UNL     1      -4.925   6.785   4.756  0.00  0.00    +0.087 A 
ATOM     21  N   UNL     1      -4.546   7.117   6.028  0.00  0.00    -0.360 N 
ATOM     22  H   UNL     1      -5.125   7.521   6.694  0.00  0.00    +0.165 HD
ATOM     23  C   UNL     1      -3.222   6.796   6.221  0.00  0.00    +0.047 A 
ATOM     24  C   UNL     1      -2.752   6.232   5.021  0.00  0.00    +0.003 A 
ATOM     25  C   UNL     1      -1.427   5.802   4.925  0.00  0.00    +0.010 A 
ATOM     26  C   UNL     1      -0.594   5.928   6.000  0.00  0.00    +0.001 A 
ATOM     27  C   UNL     1      -1.053   6.480   7.188  0.00  0.00    +0.002 A 
ATOM     28  C   UNL     1      -2.355   6.918   7.302  0.00  0.00    +0.026 A 
ENDBRANCH  18  19
ENDBRANCH  17  18
ENDBRANCH  16  17
ENDBRANCH  13  16
BRANCH  11  29
ATOM     29  C   UNL     1      -1.423   0.949  -0.548  0.00  0.00    +0.115 C 
BRANCH  29  30
ATOM     30  C   UNL     1      -1.067  -0.138   0.469  0.00  0.00    +0.054 C 
BRANCH  30  31
ATOM     31  C   UNL     1      -2.217  -1.104   0.595  0.00  0.00    -0.046 A 
ATOM     32  C   UNL     1      -3.206  -0.881   1.534  0.00  0.00    +0.007 A 
ATOM     33  C   UNL     1      -4.264  -1.762   1.648  0.00  0.00    +0.046 A 
ATOM     34  C   UNL     1      -4.328  -2.877   0.826  0.00  0.00    +0.120 A 
ATOM     35  C   UNL     1      -3.331  -3.102  -0.113  0.00  0.00    +0.046 A 
ATOM     36  C   UNL     1      -2.278  -2.215  -0.226  0.00  0.00    +0.007 A 
BRANCH  34  37
ATOM     37  O   UNL     1      -5.365  -3.748   0.939  0.00  0.00    -0.495 OA
ATOM     38  C   UNL     1      -6.355  -3.453   1.927  0.00  0.00    +0.277 C 
ENDBRANCH  34  37
ENDBRANCH  30  31
ENDBRANCH  29  30
ENDBRANCH  11  29
TORSDOF 8
