REMARK  Name = ZINC66595816
REMARK  8 active torsions:
REMARK  status: ('A' for Active; 'I' for Inactive)
REMARK    1  A    between atoms: C_1  and  C_2
REMARK    2  A    between atoms: C_2  and  C_4
REMARK    3  A    between atoms: C_2  and  N_14
REMARK    4  A    between atoms: C_8  and  S_10
REMARK    5  A    between atoms: S_10  and  N_13
REMARK    6  A    between atoms: N_17  and  C_18
REMARK    7  A    between atoms: C_18  and  C_19
REMARK    8  A    between atoms: C_19  and  C_24
REMARK                            x       y       z     vdW  Elec       q    Type
REMARK                         _______ _______ _______ _____ _____    ______ ____
ROOT
ATOM      1  C   UNL     1      -0.019   1.526   0.010  0.00  0.00    +0.033 C 
ATOM      2  C   UNL     1       0.002  -0.004   0.002  0.00  0.00    +0.102 C 
ENDROOT
BRANCH   2   3
ATOM      3  C   UNL     1       0.731  -0.503   1.223  0.00  0.00    -0.026 A 
ATOM      4  C   UNL     1       0.081  -0.558   2.442  0.00  0.00    +0.005 A 
ATOM      5  C   UNL     1       0.749  -1.016   3.562  0.00  0.00    +0.002 A 
ATOM      6  C   UNL     1       2.068  -1.420   3.463  0.00  0.00    +0.028 A 
ATOM      7  C   UNL     1       2.718  -1.365   2.244  0.00  0.00    +0.105 A 
ATOM      8  C   UNL     1       2.048  -0.911   1.123  0.00  0.00    +0.034 A 
BRANCH   7   9
ATOM      9  S   UNL     1       4.399  -1.879   2.118  0.00  0.00    +0.056 S 
ATOM     10  O   UNL     1       4.941  -1.217   0.984  0.00  0.00    -0.153 OA
ATOM     11  O   UNL     1       4.961  -1.749   3.417  0.00  0.00    -0.153 OA
BRANCH   9  12
ATOM     12  N   UNL     1       4.391  -3.496   1.764  0.00  0.00    -0.204 NA
ATOM     13  H   UNL     1       5.113  -3.882   1.244  0.00  0.00    +0.144 HD
ATOM     14  H   UNL     1       3.665  -4.058   2.077  0.00  0.00    +0.144 HD
ENDBRANCH   9  12
ENDBRANCH   7   9
ENDBRANCH   2   3
BRANCH   2  15
ATOM     15  N   UNL     1      -1.372  -0.511   0.012  0.00  0.00    -0.293 N 
ATOM     16  C   UNL     1      -2.051  -0.643  -1.145  0.00  0.00    +0.300 C 
ATOM     17  O   UNL     1      -1.522  -0.341  -2.197  0.00  0.00    -0.253 OA
ATOM     18  N   UNL     1      -3.315  -1.109  -1.135  0.00  0.00    -0.299 N 
ATOM     19  H   UNL     1      -1.794  -0.752   0.852  0.00  0.00    +0.151 HD
ATOM     20  H   UNL     1      -3.737  -1.350  -0.295  0.00  0.00    +0.150 HD
BRANCH  18  21
ATOM     21  C   UNL     1      -4.053  -1.252  -2.393  0.00  0.00    +0.112 C 
BRANCH  21  22
ATOM     22  C   UNL     1      -5.453  -1.797  -2.104  0.00  0.00    -0.016 C 
ATOM     23  C   UNL     1      -5.354  -3.205  -1.480  0.00  0.00    +0.008 C 
ATOM     24  C   UNL     1      -6.551  -3.975  -2.090  0.00  0.00    +0.001 C 
ATOM     25  C   UNL     1      -6.591  -3.449  -3.546  0.00  0.00    +0.001 C 
ATOM     26  C   UNL     1      -6.239  -1.953  -3.417  0.00  0.00    +0.008 C 
ATOM     27  C   UNL     1      -6.197  -0.854  -1.156  0.00  0.00    +0.013 C 
ENDBRANCH  21  22
ENDBRANCH  18  21
ENDBRANCH   2  15
TORSDOF 6
