REMARK  Name = ZINC13064557
REMARK  15 active torsions:
REMARK  status: ('A' for Active; 'I' for Inactive)
REMARK    1  A    between atoms: C_1  and  C_2
REMARK    2  A    between atoms: C_2  and  C_3
REMARK    3  A    between atoms: C_3  and  C_5
REMARK    4  A    between atoms: C_3  and  N_71
REMARK    5  A    between atoms: N_9  and  C_10
REMARK    6  A    between atoms: C_10  and  C_11
REMARK    7  A    between atoms: C_10  and  C_12
REMARK    8  A    between atoms: C_10  and  C_13
REMARK    9  A    between atoms: C_14  and  C_15
REMARK   10  A    between atoms: C_14  and  N_71
REMARK   11  A    between atoms: C_15  and  C_16
REMARK   12  A    between atoms: C_22  and  C_23
REMARK   13  A    between atoms: C_22  and  N_71
REMARK   14  A    between atoms: C_27  and  C_36
REMARK   15  A    between atoms: C_28  and  C_35
REMARK                            x       y       z     vdW  Elec       q    Type
REMARK                         _______ _______ _______ _____ _____    ______ ____
ROOT
ATOM      1  N   UNL     1      -4.826   3.839  -1.066  0.00  0.00    +0.389 N 
ATOM      2  H   UNL     1      -5.221   2.956  -1.411  0.00  0.00    -0.080 HD
ENDROOT
BRANCH   1   3
ATOM      3  C   UNL     1      -3.603   4.151  -1.836  0.00  0.00    +0.003 C 
BRANCH   3   4
ATOM      4  C   UNL     1      -3.717   3.513  -3.196  0.00  0.00    +0.139 A 
ATOM      5  N   UNL     1      -4.812   3.363  -3.901  0.00  0.00    -0.115 NA
ATOM      6  N   UNL     1      -4.499   2.776  -5.004  0.00  0.00    -0.023 NA
ATOM      7  N   UNL     1      -3.232   2.547  -5.021  0.00  0.00    -0.043 NA
ATOM      8  N   UNL     1      -2.714   2.992  -3.926  0.00  0.00    -0.226 N 
BRANCH   8   9
ATOM      9  C   UNL     1      -1.300   2.937  -3.548  0.00  0.00    +0.059 C 
ATOM     10  C   UNL     1      -1.121   1.962  -2.382  0.00  0.00    +0.036 C 
ATOM     11  C   UNL     1      -0.470   2.462  -4.742  0.00  0.00    +0.036 C 
ATOM     12  C   UNL     1      -0.831   4.331  -3.124  0.00  0.00    +0.036 C 
ENDBRANCH   8   9
ENDBRANCH   3   4
BRANCH   3  14
ATOM     13  C   UNL     1      -3.165   6.293  -0.627  0.00  0.00    +0.002 C 
ATOM     14  C   UNL     1      -3.445   5.664  -1.994  0.00  0.00    -0.011 C 
ENDBRANCH   3  14
ENDBRANCH   1   3
BRANCH   1  15
ATOM     15  C   UNL     1      -5.824   4.914  -1.247  0.00  0.00    -0.073 C 
BRANCH  15  16
ATOM     16  C   UNL     1      -6.371   4.843  -2.674  0.00  0.00    +0.016 C 
BRANCH  16  17
ATOM     17  C   UNL     1      -7.515   5.813  -2.823  0.00  0.00    -0.049 A 
ATOM     18  C   UNL     1      -8.808   5.402  -2.559  0.00  0.00    +0.003 A 
ATOM     19  C   UNL     1      -9.857   6.293  -2.691  0.00  0.00    +0.000 A 
ATOM     20  C   UNL     1      -9.613   7.592  -3.096  0.00  0.00    +0.000 A 
ATOM     21  C   UNL     1      -8.320   8.002  -3.365  0.00  0.00    +0.000 A 
ATOM     22  C   UNL     1      -7.271   7.112  -3.228  0.00  0.00    +0.003 A 
ENDBRANCH  16  17
ENDBRANCH  15  16
ENDBRANCH   1  15
BRANCH   1  23
ATOM     23  C   UNL     1      -4.497   3.691   0.367  0.00  0.00    -0.037 C 
BRANCH  23  24
ATOM     24  C   UNL     1      -3.723   2.412   0.557  0.00  0.00    +0.001 A 
ATOM     25  C   UNL     1      -2.375   2.453   0.700  0.00  0.00    +0.017 A 
ATOM     26  C   UNL     1      -1.652   1.193   0.879  0.00  0.00    -0.001 A 
ATOM     27  C   UNL     1      -0.260   1.170   1.014  0.00  0.00    +0.013 A 
ATOM     28  C   UNL     1       0.385  -0.023   1.179  0.00  0.00    -0.047 A 
ATOM     29  C   UNL     1      -0.329  -1.213   1.214  0.00  0.00    -0.046 A 
ATOM     30  C   UNL     1      -1.701  -1.215   1.082  0.00  0.00    +0.030 A 
ATOM     31  C   UNL     1      -2.379  -0.012   0.908  0.00  0.00    +0.049 A 
ATOM     32  N   UNL     1      -3.750   0.015   0.768  0.00  0.00    -0.322 N 
ATOM     33  H   UNL     1      -4.250  -0.816   0.792  0.00  0.00    +0.169 HD
ATOM     34  C   UNL     1      -4.405   1.177   0.599  0.00  0.00    +0.251 A 
ATOM     35  O   UNL     1      -5.618   1.164   0.479  0.00  0.00    -0.268 OA
ATOM     36  C   UNL     1       0.404  -2.517   1.396  0.00  0.00    +0.044 C 
ATOM     37  C   UNL     1       1.885  -0.047   1.325  0.00  0.00    +0.044 C 
ENDBRANCH  23  24
ENDBRANCH   1  23
TORSDOF 9
