REMARK  Name = ZINC12594765
REMARK  14 active torsions:
REMARK  status: ('A' for Active; 'I' for Inactive)
REMARK    1  A    between atoms: C_1  and  C_2
REMARK    2  A    between atoms: C_2  and  C_3
REMARK    3  A    between atoms: C_2  and  C_4
REMARK    4  A    between atoms: C_7  and  C_10
REMARK    5  A    between atoms: C_10  and  C_12
REMARK    6  A    between atoms: C_10  and  N_15
REMARK    7  A    between atoms: C_12  and  C_13
REMARK    8  A    between atoms: C_12  and  C_14
REMARK    9  A    between atoms: C_16  and  C_18
REMARK   10  A    between atoms: C_18  and  O_19
REMARK   11  A    between atoms: O_19  and  C_20
REMARK   12  A    between atoms: C_20  and  C_22
REMARK   13  A    between atoms: N_25  and  S_28
REMARK   14  A    between atoms: S_28  and  C_31
REMARK                            x       y       z     vdW  Elec       q    Type
REMARK                         _______ _______ _______ _____ _____    ______ ____
ROOT
ATOM      1  C   UNL     1      -1.106   3.254   5.447  0.00  0.00    +0.327 C 
ENDROOT
BRANCH   1   3
ATOM      2  N   UNL     1      -0.675   1.545   3.712  0.00  0.00    -0.305 N 
ATOM      3  C   UNL     1      -0.401   2.768   4.207  0.00  0.00    +0.251 C 
ATOM      4  O   UNL     1       0.413   3.477   3.655  0.00  0.00    -0.272 OA
ATOM      5  H   UNL     1      -1.326   0.977   4.153  0.00  0.00    +0.149 HD
BRANCH   2   6
ATOM      6  C   UNL     1       0.011   1.072   2.506  0.00  0.00    +0.106 C 
BRANCH   6  10
ATOM      7  C   UNL     1       0.069  -3.199   2.484  0.00  0.00    -0.045 A 
ATOM      8  C   UNL     1       1.181  -2.490   2.067  0.00  0.00    +0.004 A 
ATOM      9  C   UNL     1       1.162  -1.108   2.074  0.00  0.00    +0.006 A 
ATOM     10  C   UNL     1       0.032  -0.434   2.498  0.00  0.00    -0.027 A 
ATOM     11  C   UNL     1      -1.078  -1.143   2.920  0.00  0.00    +0.006 A 
ATOM     12  C   UNL     1      -1.061  -2.525   2.908  0.00  0.00    +0.004 A 
BRANCH   7  14
ATOM     13  C   UNL     1      -0.140  -5.226   3.897  0.00  0.00    +0.012 C 
ATOM     14  C   UNL     1       0.090  -4.706   2.476  0.00  0.00    +0.013 C 
ATOM     15  C   UNL     1      -1.016  -5.226   1.557  0.00  0.00    +0.012 C 
ENDBRANCH   7  14
ENDBRANCH   6  10
BRANCH   6  16
ATOM     16  C   UNL     1      -0.729   1.579   1.267  0.00  0.00    +0.008 C 
ATOM     17  C   UNL     1      -0.013   1.086   0.008  0.00  0.00    +0.009 C 
ATOM     18  C   UNL     1      -0.750   3.109   1.275  0.00  0.00    +0.009 C 
ENDBRANCH   6  16
ENDBRANCH   2   6
ENDBRANCH   1   3
BRANCH   1  19
ATOM     19  O   UNL     1      -0.641   4.590   5.776  0.00  0.00    -0.455 OA
BRANCH  19  20
ATOM     20  C   UNL     1      -1.175   5.170   6.862  0.00  0.00    +0.311 C 
ATOM     21  O   UNL     1      -2.004   4.582   7.516  0.00  0.00    -0.251 OA
BRANCH  20  22
ATOM     22  C   UNL     1      -0.742   6.556   7.266  0.00  0.00    +0.100 C 
ATOM     23  C   UNL     1       0.763   6.558   7.545  0.00  0.00    +0.032 C 
ATOM     24  C   UNL     1       1.206   7.976   7.922  0.00  0.00    +0.110 C 
ATOM     25  N   UNL     1       0.383   8.446   9.044  0.00  0.00    -0.176 NA
ATOM     26  C   UNL     1      -1.080   8.402   8.914  0.00  0.00    +0.110 C 
ATOM     27  C   UNL     1      -1.498   6.980   8.527  0.00  0.00    +0.032 C 
BRANCH  25  28
ATOM     28  S   UNL     1       1.090   9.016  10.429  0.00  0.00    +0.067 S 
ATOM     29  O   UNL     1       2.393   9.455  10.069  0.00  0.00    -0.152 OA
ATOM     30  O   UNL     1       0.141   9.874  11.047  0.00  0.00    -0.152 OA
BRANCH  28  31
ATOM     31  C   UNL     1       1.303   7.640  11.509  0.00  0.00    +0.143 A 
ATOM     32  C   UNL     1       2.356   6.793  11.615  0.00  0.00    +0.036 A 
ATOM     33  C   UNL     1       2.305   5.773  12.547  0.00  0.00    +0.010 A 
ATOM     34  C   UNL     1       1.199   5.645  13.320  0.00  0.00    +0.047 A 
ATOM     35  S   UNL     1       0.185   6.995  12.742  0.00  0.00    -0.077 S 
ENDBRANCH  28  31
ENDBRANCH  25  28
ENDBRANCH  20  22
ENDBRANCH  19  20
ENDBRANCH   1  19
TORSDOF 10
