REMARK  Name = ZINC37428694
REMARK  5 active torsions:
REMARK  status: ('A' for Active; 'I' for Inactive)
REMARK    1  A    between atoms: C_2  and  N_15
REMARK    2  A    between atoms: C_5  and  O_8
REMARK    3  A    between atoms: O_8  and  C_9
REMARK    4  A    between atoms: C_9  and  C_10
REMARK    5  A    between atoms: C_10  and  C_11
REMARK                            x       y       z     vdW  Elec       q    Type
REMARK                         _______ _______ _______ _____ _____    ______ ____
ROOT
ATOM      1  C   UNL     1      -0.017   1.378   0.010  0.00  0.00    +0.041 A 
ATOM      2  C   UNL     1       1.176   2.088   0.002  0.00  0.00    +0.027 A 
ATOM      3  C   UNL     1       2.388   1.409  -0.013  0.00  0.00    +0.041 A 
ATOM      4  C   UNL     1       2.405   0.028  -0.021  0.00  0.00    +0.062 A 
ATOM      5  C   UNL     1       1.213  -0.682  -0.014  0.00  0.00    +0.148 A 
ATOM      6  C   UNL     1       0.002  -0.004   0.002  0.00  0.00    +0.062 A 
ATOM      7 BR   UNL     1      -1.623  -0.972   0.012  0.00  0.00    -0.046 Br
ATOM      8 BR   UNL     1       4.055  -0.897  -0.042  0.00  0.00    -0.046 Br
ENDROOT
BRANCH   2   9
ATOM      9  N   UNL     1       1.158   3.487   0.009  0.00  0.00    -0.358 N 
ATOM     10  H   UNL     1       0.312   3.961   0.020  0.00  0.00    +0.142 HD
ATOM     11  H   UNL     1       1.992   3.983   0.004  0.00  0.00    +0.142 HD
ENDBRANCH   2   9
BRANCH   5  12
ATOM     12  O   UNL     1       1.231  -2.042  -0.022  0.00  0.00    -0.489 OA
BRANCH  12  13
ATOM     13  C   UNL     1       1.251  -2.698   1.247  0.00  0.00    +0.238 C 
BRANCH  13  14
ATOM     14  C   UNL     1       1.269  -4.214   1.037  0.00  0.00    +0.136 C 
BRANCH  14  15
ATOM     15  C   UNL     1       1.291  -4.906   2.376  0.00  0.00    +0.214 C 
ATOM     16  O   UNL     1       1.292  -4.252   3.397  0.00  0.00    -0.276 OA
ATOM     17  N   UNL     1       1.309  -6.252   2.438  0.00  0.00    -0.329 N 
ATOM     18  H   UNL     1       1.308  -6.775   1.621  0.00  0.00    +0.145 HD
ATOM     19  H   UNL     1       1.323  -6.698   3.300  0.00  0.00    +0.145 HD
ENDBRANCH  14  15
ENDBRANCH  13  14
ENDBRANCH  12  13
ENDBRANCH   5  12
TORSDOF 5
