REMARK  Name = ZINC36558835
REMARK  12 active torsions:
REMARK  status: ('A' for Active; 'I' for Inactive)
REMARK    1  A    between atoms: C_1  and  C_2
REMARK    2  A    between atoms: C_2  and  C_3
REMARK    3  A    between atoms: C_3  and  C_4
REMARK    4  A    between atoms: C_4  and  N_5
REMARK    5  A    between atoms: C_6  and  C_8
REMARK    6  A    between atoms: C_8  and  C_10
REMARK    7  A    between atoms: C_8  and  N_20
REMARK    8  A    between atoms: C_12  and  N_17
REMARK    9  A    between atoms: N_20  and  C_21
REMARK   10  A    between atoms: C_21  and  C_22
REMARK   11  A    between atoms: C_25  and  C_27
REMARK   12  A    between atoms: C_28  and  C_30
REMARK                            x       y       z     vdW  Elec       q    Type
REMARK                         _______ _______ _______ _____ _____    ______ ____
ROOT
ATOM      1  C   UNL     1      -4.558  -5.934  -1.600  0.00  0.00    +0.194 C 
ENDROOT
BRANCH   1   2
ATOM      2  C   UNL     1      -4.978  -4.721  -0.809  0.00  0.00    +0.002 A 
ATOM      3  C   UNL     1      -4.388  -4.454   0.412  0.00  0.00    +0.040 A 
ATOM      4  C   UNL     1      -4.773  -3.342   1.137  0.00  0.00    +0.127 A 
ATOM      5  C   UNL     1      -5.749  -2.497   0.641  0.00  0.00    +0.034 A 
ATOM      6  C   UNL     1      -6.339  -2.763  -0.579  0.00  0.00    +0.022 A 
ATOM      7  C   UNL     1      -5.949  -3.872  -1.308  0.00  0.00    +0.047 A 
ATOM      8 CL   UNL     1      -6.685  -4.203  -2.846  0.00  0.00    -0.083 Cl
BRANCH   4   9
ATOM      9  N   UNL     1      -4.141  -3.056   2.445  0.00  0.00    +0.056 N 
ATOM     10  O   UNL     1      -3.359  -3.844   2.923  0.00  0.00    -0.126 OA
ATOM     11  O   UNL     1      -4.408  -2.035   3.035  0.00  0.00    -0.126 OA
ENDBRANCH   4   9
ENDBRANCH   1   2
BRANCH   1  13
ATOM     12  N   UNL     1      -4.649  -5.400  -4.013  0.00  0.00    -0.313 N 
ATOM     13  C   UNL     1      -3.913  -5.494  -2.889  0.00  0.00    +0.238 C 
ATOM     14  O   UNL     1      -2.730  -5.226  -2.914  0.00  0.00    -0.273 OA
ATOM     15  H   UNL     1      -5.595  -5.615  -3.993  0.00  0.00    +0.149 HD
BRANCH  12  16
ATOM     16  C   UNL     1      -4.022  -4.973  -5.266  0.00  0.00    +0.104 C 
BRANCH  16  17
ATOM     17  C   UNL     1      -5.071  -4.951  -6.380  0.00  0.00    +0.018 C 
BRANCH  17  19
ATOM     18  C   UNL     1      -5.465  -4.482  -8.803  0.00  0.00    +0.004 C 
ATOM     19  C   UNL     1      -4.416  -4.505  -7.689  0.00  0.00    -0.002 C 
ENDBRANCH  17  19
ENDBRANCH  16  17
ENDBRANCH  12  16
ENDBRANCH   1  13
BRANCH   1  20
ATOM     20  N   UNL     1      -3.600  -6.719  -0.817  0.00  0.00    -0.275 N 
ATOM     21  C   UNL     1      -4.041  -7.562   0.138  0.00  0.00    +0.248 C 
ATOM     22  O   UNL     1      -3.303  -7.892   1.045  0.00  0.00    -0.270 OA
BRANCH  21  23
ATOM     23  C   UNL     1      -5.423  -8.084   0.083  0.00  0.00    +0.037 A 
ATOM     24  C   UNL     1      -6.490  -7.218  -0.163  0.00  0.00    +0.014 A 
ATOM     25  C   UNL     1      -7.777  -7.711  -0.214  0.00  0.00    +0.021 A 
ATOM     26  C   UNL     1      -8.011  -9.063  -0.022  0.00  0.00    +0.041 A 
ATOM     27  C   UNL     1      -6.957  -9.927   0.222  0.00  0.00    +0.021 A 
ATOM     28  C   UNL     1      -5.665  -9.446   0.270  0.00  0.00    +0.014 A 
ATOM     29 CL   UNL     1      -9.634  -9.676  -0.087  0.00  0.00    -0.084 Cl
ENDBRANCH  21  23
BRANCH  20  30
ATOM     30  C   UNL     1      -2.164  -6.589  -1.073  0.00  0.00    +0.183 C 
BRANCH  30  31
ATOM     31  C   UNL     1      -1.768  -7.509  -2.199  0.00  0.00    +0.122 A 
ATOM     32  C   UNL     1      -1.333  -7.125  -3.412  0.00  0.00    +0.046 A 
ATOM     33  C   UNL     1      -1.079  -8.306  -4.148  0.00  0.00    +0.045 A 
ATOM     34  C   UNL     1      -1.374  -9.340  -3.340  0.00  0.00    +0.102 A 
ATOM     35  O   UNL     1      -1.786  -8.851  -2.159  0.00  0.00    -0.463 OA
ATOM     36  C   UNL     1      -1.257 -10.799  -3.698  0.00  0.00    +0.086 C 
ENDBRANCH  30  31
ENDBRANCH  20  30
ENDBRANCH   1  20
TORSDOF 10
