REMARK  Name = ZINC12604920
REMARK  12 active torsions:
REMARK  status: ('A' for Active; 'I' for Inactive)
REMARK    1  A    between atoms: C_1  and  C_2
REMARK    2  A    between atoms: C_5  and  O_38
REMARK    3  A    between atoms: C_7  and  C_35
REMARK    4  A    between atoms: C_7  and  C_36
REMARK    5  A    between atoms: C_12  and  O_34
REMARK    6  A    between atoms: C_14  and  C_16
REMARK    7  A    between atoms: C_16  and  C_17
REMARK    8  A    between atoms: N_19  and  C_20
REMARK    9  A    between atoms: C_20  and  C_21
REMARK   10  A    between atoms: C_21  and  C_22
REMARK   11  A    between atoms: C_21  and  C_28
REMARK   12  A    between atoms: C_36  and  O_37
REMARK                            x       y       z     vdW  Elec       q    Type
REMARK                         _______ _______ _______ _____ _____    ______ ____
ROOT
ATOM      1  C   UNL     1      -0.691   6.904   0.008  0.00  0.00    +0.012 C 
ATOM      2  C   UNL     1      -2.205   7.115  -0.071  0.00  0.00    -0.023 C 
ATOM      3  C   UNL     1      -2.917   5.969   0.650  0.00  0.00    +0.010 C 
ATOM      4  C   UNL     1      -2.482   5.940   2.116  0.00  0.00    +0.032 C 
ATOM      5  C   UNL     1      -2.848   7.267   2.783  0.00  0.00    +0.123 C 
ATOM      6  C   UNL     1      -2.135   8.413   2.063  0.00  0.00    +0.020 C 
ATOM      7  C   UNL     1      -2.570   8.443   0.596  0.00  0.00    +0.006 C 
ATOM      8  C   UNL     1      -4.084   8.653   0.517  0.00  0.00    +0.007 C 
ATOM      9  C   UNL     1      -4.519   8.682  -0.949  0.00  0.00    +0.032 C 
ATOM     10  C   UNL     1      -4.154   7.355  -1.616  0.00  0.00    +0.119 C 
ATOM     11  C   UNL     1      -2.640   7.144  -1.537  0.00  0.00    +0.032 C 
ATOM     12  C   UNL     1      -2.501   9.741   2.730  0.00  0.00    +0.016 C 
ENDROOT
BRANCH  10  13
ATOM     13  O   UNL     1      -4.560   7.382  -2.986  0.00  0.00    -0.391 OA
ATOM     14  H   UNL     1      -5.510   7.513  -3.112  0.00  0.00    +0.210 HD
ENDBRANCH  10  13
BRANCH   5  15
ATOM     15  O   UNL     1      -2.441   7.240   4.153  0.00  0.00    -0.391 OA
ATOM     16  H   UNL     1      -2.854   6.536   4.672  0.00  0.00    +0.210 HD
ENDBRANCH   5  15
BRANCH  11  17
ATOM     17  C   UNL     1      -1.927   8.290  -2.258  0.00  0.00    +0.102 C 
BRANCH  17  18
ATOM     18  C   UNL     1      -2.169   8.178  -3.741  0.00  0.00    +0.213 C 
ATOM     19  O   UNL     1      -2.492   7.114  -4.224  0.00  0.00    -0.276 OA
ATOM     20  N   UNL     1      -2.025   9.261  -4.531  0.00  0.00    -0.314 N 
ATOM     21  H   UNL     1      -1.767  10.112  -4.145  0.00  0.00    +0.149 HD
BRANCH  20  22
ATOM     22  C   UNL     1      -2.260   9.152  -5.973  0.00  0.00    +0.117 C 
BRANCH  22  23
ATOM     23  C   UNL     1      -2.031  10.514  -6.632  0.00  0.00    +0.066 C 
BRANCH  23  24
ATOM     24  C   UNL     1      -0.582  10.902  -6.492  0.00  0.00    -0.038 A 
ATOM     25  C   UNL     1      -0.244  12.139  -5.976  0.00  0.00    +0.004 A 
ATOM     26  C   UNL     1       1.085  12.494  -5.844  0.00  0.00    +0.000 A 
ATOM     27  C   UNL     1       2.078  11.614  -6.236  0.00  0.00    +0.000 A 
ATOM     28  C   UNL     1       1.740  10.379  -6.757  0.00  0.00    +0.000 A 
ATOM     29  C   UNL     1       0.410  10.023  -6.885  0.00  0.00    +0.004 A 
ENDBRANCH  23  24
BRANCH  23  30
ATOM     30  C   UNL     1      -2.390  10.432  -8.093  0.00  0.00    -0.038 A 
ATOM     31  C   UNL     1      -1.807   9.470  -8.896  0.00  0.00    +0.004 A 
ATOM     32  C   UNL     1      -2.139   9.393 -10.235  0.00  0.00    +0.000 A 
ATOM     33  C   UNL     1      -3.050  10.283 -10.774  0.00  0.00    +0.000 A 
ATOM     34  C   UNL     1      -3.629  11.248  -9.972  0.00  0.00    +0.000 A 
ATOM     35  C   UNL     1      -3.299  11.323  -8.632  0.00  0.00    +0.004 A 
ENDBRANCH  23  30
ENDBRANCH  22  23
ENDBRANCH  20  22
ENDBRANCH  17  18
ENDBRANCH  11  17
BRANCH   6  36
ATOM     36  C   UNL     1      -0.622   8.203   2.141  0.00  0.00    +0.165 C 
BRANCH  36  37
ATOM     37  O   UNL     1      -0.185   8.383   3.490  0.00  0.00    -0.394 OA
ATOM     38  H   UNL     1       0.766   8.264   3.615  0.00  0.00    +0.209 HD
ENDBRANCH  36  37
ENDBRANCH   6  36
TORSDOF 10
