REMARK  Name = ZINC00914448
REMARK  9 active torsions:
REMARK  status: ('A' for Active; 'I' for Inactive)
REMARK    1  A    between atoms: C_1  and  C_2
REMARK    2  A    between atoms: C_4  and  C_39
REMARK    3  A    between atoms: C_9  and  C_14
REMARK    4  A    between atoms: C_14  and  N_15
REMARK    5  A    between atoms: N_15  and  C_16
REMARK    6  A    between atoms: N_15  and  S_26
REMARK    7  A    between atoms: C_16  and  C_17
REMARK    8  A    between atoms: S_26  and  C_29
REMARK    9  A    between atoms: C_34  and  C_35
REMARK                            x       y       z     vdW  Elec       q    Type
REMARK                         _______ _______ _______ _____ _____    ______ ____
ROOT
ATOM      1  N   UNL     1       5.411   1.192  -1.682  0.00  0.00    -0.168 NA
ENDROOT
BRANCH   1   2
ATOM      2  S   UNL     1       6.503   2.393  -2.005  0.00  0.00    +0.062 S 
ATOM      3  O   UNL     1       6.315   2.759  -3.365  0.00  0.00    -0.153 OA
ATOM      4  O   UNL     1       6.400   3.332  -0.942  0.00  0.00    -0.153 OA
BRANCH   2   5
ATOM      5  C   UNL     1       8.111   1.680  -1.893  0.00  0.00    +0.117 A 
ATOM      6  C   UNL     1       8.256   0.306  -1.854  0.00  0.00    +0.029 A 
ATOM      7  C   UNL     1       9.517  -0.254  -1.771  0.00  0.00    +0.002 A 
ATOM      8  C   UNL     1      10.633   0.561  -1.716  0.00  0.00    +0.001 A 
ATOM      9  C   UNL     1      10.487   1.935  -1.750  0.00  0.00    +0.014 A 
ATOM     10  C   UNL     1       9.226   2.495  -1.838  0.00  0.00    +0.081 A 
BRANCH  10  11
ATOM     11  C   UNL     1       9.067   3.993  -1.874  0.00  0.00    +0.419 C 
ATOM     12  F   UNL     1      10.328   4.594  -1.952  0.00  0.00    -0.166 F 
ATOM     13  F   UNL     1       8.308   4.355  -2.991  0.00  0.00    -0.166 F 
ATOM     14  F   UNL     1       8.418   4.421  -0.711  0.00  0.00    -0.166 F 
ENDBRANCH  10  11
ENDBRANCH   2   5
ENDBRANCH   1   2
BRANCH   1  15
ATOM     15  C   UNL     1       4.879   1.029  -0.327  0.00  0.00    +0.150 C 
BRANCH  15  24
ATOM     16  C   UNL     1      10.407  -0.848   4.315  0.00  0.00    +0.044 C 
ATOM     17  C   UNL     1       9.262  -1.230   3.412  0.00  0.00    -0.050 A 
ATOM     18  C   UNL     1       8.936  -2.568   3.243  0.00  0.00    +0.008 A 
ATOM     19  C   UNL     1       7.897  -2.941   2.417  0.00  0.00    -0.026 A 
ATOM     20  C   UNL     1       7.163  -1.966   1.749  0.00  0.00    +0.052 A 
ATOM     21  C   UNL     1       7.494  -0.609   1.927  0.00  0.00    -0.001 A 
ATOM     22  C   UNL     1       8.553  -0.255   2.770  0.00  0.00    +0.013 A 
ATOM     23  C   UNL     1       6.716   0.409   1.219  0.00  0.00    +0.020 A 
ATOM     24  C   UNL     1       5.701   0.006   0.415  0.00  0.00    +0.033 A 
ATOM     25  C   UNL     1       5.410  -1.367   0.272  0.00  0.00    +0.254 A 
ATOM     26  O   UNL     1       4.493  -1.708  -0.456  0.00  0.00    -0.268 OA
ATOM     27  N   UNL     1       6.120  -2.310   0.917  0.00  0.00    -0.322 N 
ATOM     28  H   UNL     1       5.886  -3.274   0.792  0.00  0.00    +0.169 HD
ATOM     29  C   UNL     1       7.558  -4.398   2.240  0.00  0.00    +0.046 C 
ENDBRANCH  15  24
ENDBRANCH   1  15
BRANCH   1  30
ATOM     30  C   UNL     1       4.976   0.291  -2.753  0.00  0.00    +0.145 C 
BRANCH  30  31
ATOM     31  C   UNL     1       3.657   0.767  -3.305  0.00  0.00    -0.028 A 
ATOM     32  C   UNL     1       2.476   0.386  -2.694  0.00  0.00    +0.009 A 
ATOM     33  C   UNL     1       1.264   0.825  -3.194  0.00  0.00    +0.050 A 
ATOM     34  C   UNL     1       1.229   1.637  -4.315  0.00  0.00    +0.166 A 
ATOM     35  C   UNL     1       2.418   2.017  -4.933  0.00  0.00    +0.167 A 
ATOM     36  C   UNL     1       3.630   1.578  -4.423  0.00  0.00    +0.054 A 
ATOM     37  O   UNL     1       2.120   2.808  -6.004  0.00  0.00    -0.453 OA
ATOM     38  C   UNL     1       0.726   2.577  -6.277  0.00  0.00    +0.466 C 
ATOM     39  O   UNL     1       0.186   2.192  -4.999  0.00  0.00    -0.453 OA
ENDBRANCH  30  31
ENDBRANCH   1  30
TORSDOF 7
