REMARK  Name = ZINC05152492
REMARK  8 active torsions:
REMARK  status: ('A' for Active; 'I' for Inactive)
REMARK    1  A    between atoms: C_1  and  C_2
REMARK    2  A    between atoms: C_2  and  N_3
REMARK    3  A    between atoms: C_6  and  C_26
REMARK    4  A    between atoms: C_7  and  C_25
REMARK    5  A    between atoms: N_12  and  C_13
REMARK    6  A    between atoms: C_13  and  C_15
REMARK    7  A    between atoms: C_18  and  S_21
REMARK    8  A    between atoms: S_21  and  C_24
REMARK                            x       y       z     vdW  Elec       q    Type
REMARK                         _______ _______ _______ _____ _____    ______ ____
ROOT
ATOM      1  N   UNL     1       2.297  -2.289  -8.588  0.00  0.00    -0.321 N 
ATOM      2  C   UNL     1       3.079  -2.668  -9.664  0.00  0.00    +0.058 A 
ATOM      3  C   UNL     1       2.681  -2.902 -10.989  0.00  0.00    +0.030 A 
ATOM      4  C   UNL     1       3.598  -3.275 -11.943  0.00  0.00    -0.046 A 
ATOM      5  C   UNL     1       4.938  -3.430 -11.629  0.00  0.00    -0.046 A 
ATOM      6  C   UNL     1       5.357  -3.206 -10.329  0.00  0.00    +0.020 A 
ATOM      7  C   UNL     1       4.441  -2.833  -9.375  0.00  0.00    +0.039 A 
ATOM      8  S   UNL     1       4.540  -2.448  -7.645  0.00  0.00    -0.052 S 
ATOM      9  C   UNL     1       2.864  -2.106  -7.365  0.00  0.00    +0.167 A 
ATOM     10  N   UNL     1       2.274  -1.746  -6.229  0.00  0.00    -0.152 NA
ATOM     11  C   UNL     1       5.927  -3.840 -12.689  0.00  0.00    +0.044 C 
ATOM     12  C   UNL     1       3.137  -3.518 -13.357  0.00  0.00    +0.044 C 
ENDROOT
BRANCH   1  14
ATOM     13  C   UNL     1       0.116  -2.570  -7.518  0.00  0.00    +0.027 C 
ATOM     14  C   UNL     1       0.857  -2.085  -8.765  0.00  0.00    +0.121 C 
ENDBRANCH   1  14
BRANCH  10  15
ATOM     15  C   UNL     1       2.998  -1.614  -5.113  0.00  0.00    +0.269 C 
ATOM     16  O   UNL     1       4.199  -1.824  -5.137  0.00  0.00    -0.268 OA
BRANCH  15  17
ATOM     17  C   UNL     1       2.342  -1.213  -3.848  0.00  0.00    +0.039 A 
ATOM     18  C   UNL     1       3.094  -1.075  -2.682  0.00  0.00    +0.015 A 
ATOM     19  C   UNL     1       2.477  -0.701  -1.506  0.00  0.00    +0.027 A 
ATOM     20  C   UNL     1       1.114  -0.464  -1.482  0.00  0.00    +0.088 A 
ATOM     21  C   UNL     1       0.361  -0.605  -2.634  0.00  0.00    +0.027 A 
ATOM     22  C   UNL     1       0.968  -0.973  -3.817  0.00  0.00    +0.015 A 
BRANCH  20  23
ATOM     23  S   UNL     1       0.333   0.011   0.024  0.00  0.00    -0.006 S 
ATOM     24  O   UNL     1       1.161  -0.523   1.047  0.00  0.00    -0.170 OA
ATOM     25  O   UNL     1      -1.015  -0.418  -0.115  0.00  0.00    -0.170 OA
ATOM     26  C   UNL     1       0.412   1.824   0.039  0.00  0.00    +0.200 C 
ENDBRANCH  20  23
ENDBRANCH  15  17
ENDBRANCH  10  15
TORSDOF 4
