REMARK  Name = ZINC63479901
REMARK  3 active torsions:
REMARK  status: ('A' for Active; 'I' for Inactive)
REMARK    1  A    between atoms: C_7  and  C_10
REMARK    2  A    between atoms: C_10  and  C_11
REMARK    3  A    between atoms: N_19  and  C_22
REMARK                            x       y       z     vdW  Elec       q    Type
REMARK                         _______ _______ _______ _____ _____    ______ ____
ROOT
ATOM      1  C   UNL     1       0.578  -3.960  -1.269  0.00  0.00    +0.072 C 
ATOM      2  C   UNL     1      -0.465  -5.074  -1.501  0.00  0.00    +0.107 C 
ATOM      3  C   UNL     1      -1.323  -4.575  -2.697  0.00  0.00    +0.123 C 
ATOM      4  C   UNL     1      -2.692  -4.379  -2.084  0.00  0.00    +0.233 C 
ATOM      5  O   UNL     1      -3.678  -4.000  -2.679  0.00  0.00    -0.274 OA
ATOM      6  N   UNL     1      -2.646  -4.689  -0.783  0.00  0.00    -0.210 N 
ATOM      7  C   UNL     1      -1.435  -5.100  -0.342  0.00  0.00    +0.232 C 
ATOM      8  O   UNL     1      -1.163  -5.434   0.792  0.00  0.00    -0.274 OA
ATOM      9  C   UNL     1      -0.712  -3.219  -3.070  0.00  0.00    +0.136 C 
ATOM     10  N   UNL     1      -0.035  -2.734  -1.844  0.00  0.00    -0.295 NA
ATOM     11  C   UNL     1       0.232  -3.341  -4.233  0.00  0.00    +0.005 A 
ATOM     12  C   UNL     1       1.385  -4.063  -4.446  0.00  0.00    +0.008 A 
ATOM     13  C   UNL     1       2.050  -3.966  -5.655  0.00  0.00    +0.002 A 
ATOM     14  C   UNL     1       1.553  -3.142  -6.650  0.00  0.00    +0.022 A 
ATOM     15  C   UNL     1       0.398  -2.416  -6.441  0.00  0.00    +0.062 A 
ATOM     16  C   UNL     1      -0.277  -2.508  -5.224  0.00  0.00    +0.057 A 
ATOM     17  N   UNL     1      -1.444  -1.882  -4.778  0.00  0.00    -0.282 N 
ATOM     18  C   UNL     1      -1.766  -2.246  -3.522  0.00  0.00    +0.243 C 
ATOM     19  O   UNL     1      -2.722  -1.864  -2.880  0.00  0.00    -0.273 OA
ATOM     20 CL   UNL     1      -0.215  -1.385  -7.695  0.00  0.00    -0.082 Cl
ATOM     21  H   UNL     1      -0.691  -2.320  -1.198  0.00  0.00    +0.124 HD
ATOM     22  H   UNL     1      -1.961  -1.258  -5.311  0.00  0.00    +0.155 HD
ENDROOT
BRANCH   6  23
ATOM     23  C   UNL     1      -3.765  -4.602   0.058  0.00  0.00    +0.044 A 
ATOM     24  C   UNL     1      -4.838  -5.465  -0.122  0.00  0.00    +0.027 A 
ATOM     25  C   UNL     1      -5.939  -5.378   0.707  0.00  0.00    +0.040 A 
ATOM     26  C   UNL     1      -5.974  -4.430   1.716  0.00  0.00    +0.124 A 
ATOM     27  C   UNL     1      -4.905  -3.568   1.897  0.00  0.00    +0.040 A 
ATOM     28  C   UNL     1      -3.799  -3.657   1.073  0.00  0.00    +0.027 A 
ATOM     29  F   UNL     1      -7.052  -4.346   2.526  0.00  0.00    -0.205 F 
ENDBRANCH   6  23
BRANCH   1  30
ATOM     30  C   UNL     1       0.834  -3.775   0.228  0.00  0.00    +0.052 C 
BRANCH  30  37
ATOM     31  C   UNL     1       0.703   0.741   1.030  0.00  0.00    +0.001 A 
ATOM     32  C   UNL     1       1.971   1.327   1.154  0.00  0.00    +0.002 A 
ATOM     33  C   UNL     1       3.115   0.619   1.046  0.00  0.00    +0.026 A 
ATOM     34  C   UNL     1       3.073  -0.780   0.796  0.00  0.00    +0.043 A 
ATOM     35  N   UNL     1       4.026  -1.670   0.652  0.00  0.00    -0.380 N 
ATOM     36  C   UNL     1       3.410  -2.979   0.410  0.00  0.00    +0.144 C 
ATOM     37  C   UNL     1       1.916  -2.745   0.429  0.00  0.00    -0.040 C 
ATOM     38  C   UNL     1       1.747  -1.423   0.662  0.00  0.00    -0.001 A 
ATOM     39  C   UNL     1       0.551  -0.582   0.793  0.00  0.00    +0.010 A 
ATOM     40  H   UNL     1       4.978  -1.492   0.698  0.00  0.00    +0.160 HD
ENDBRANCH  30  37
ENDBRANCH   1  30
TORSDOF 3
