REMARK  Name = ZINC32125206
REMARK  5 active torsions:
REMARK  status: ('A' for Active; 'I' for Inactive)
REMARK    1  A    between atoms: C_10  and  C_11
REMARK    2  A    between atoms: N_13  and  C_14
REMARK    3  A    between atoms: C_14  and  N_16
REMARK    4  A    between atoms: N_16  and  C_17
REMARK    5  A    between atoms: C_18  and  C_27
REMARK                            x       y       z     vdW  Elec       q    Type
REMARK                         _______ _______ _______ _____ _____    ______ ____
ROOT
ATOM      1  N   UNL     1       5.322  -2.524   1.985  0.00  0.00    -0.291 N 
ATOM      2  H   UNL     1       5.051  -3.260   2.756  0.00  0.00    +0.154 HD
ENDROOT
BRANCH   1   3
ATOM      3  C   UNL     1       4.348  -1.710   1.430  0.00  0.00    +0.084 A 
ATOM      4  C   UNL     1       2.991  -1.674   1.713  0.00  0.00    +0.068 A 
ATOM      5  C   UNL     1       2.172  -0.714   0.985  0.00  0.00    -0.023 A 
ATOM      6  C   UNL     1       2.842   0.044   0.092  0.00  0.00    -0.004 A 
ATOM      7  S   UNL     1       4.528  -0.489   0.215  0.00  0.00    -0.077 S 
ATOM      8  C   UNL     1       2.285   1.093  -0.819  0.00  0.00    +0.043 C 
ATOM      9  C   UNL     1       1.392   2.043  -0.011  0.00  0.00    +0.005 C 
ATOM     10  C   UNL     1      -0.030   1.491  -0.017  0.00  0.00    +0.001 C 
ATOM     11  C   UNL     1      -0.001  -0.036  -0.040  0.00  0.00    +0.005 C 
ATOM     12  C   UNL     1       0.673  -0.575   1.218  0.00  0.00    +0.037 C 
BRANCH   4  13
ATOM     13  C   UNL     1       2.401  -2.572   2.710  0.00  0.00    +0.244 C 
ATOM     14  O   UNL     1       1.980  -3.663   2.374  0.00  0.00    -0.270 OA
ATOM     15  N   UNL     1       2.324  -2.189   4.000  0.00  0.00    -0.325 N 
ATOM     16  H   UNL     1       1.881  -2.862   4.749  0.00  0.00    +0.145 HD
ATOM     17  H   UNL     1       2.704  -1.202   4.304  0.00  0.00    +0.145 HD
ENDBRANCH   4  13
ENDBRANCH   1   3
BRANCH   1  18
ATOM     18  C   UNL     1       6.603  -2.413   1.580  0.00  0.00    +0.141 C 
ATOM     19  S   UNL     1       7.026  -1.268   0.380  0.00  0.00    -0.018 S 
BRANCH  18  22
ATOM     20  C   UNL     1       8.832  -3.095   1.714  0.00  0.00    +0.250 C 
ATOM     21  O   UNL     1       9.132  -2.281   0.862  0.00  0.00    -0.270 OA
ATOM     22  N   UNL     1       7.551  -3.205   2.119  0.00  0.00    -0.264 N 
ATOM     23  H   UNL     1       7.279  -3.941   2.890  0.00  0.00    +0.157 HD
BRANCH  20  33
ATOM     24  C   UNL     1      13.846  -3.961   0.860  0.00  0.00    +0.001 A 
ATOM     25  C   UNL     1      12.894  -3.128   0.276  0.00  0.00    +0.001 A 
ATOM     26  C   UNL     1      11.607  -3.112   0.726  0.00  0.00    +0.009 A 
ATOM     27  C   UNL     1      11.234  -3.948   1.786  0.00  0.00    -0.006 A 
ATOM     28  C   UNL     1      12.201  -4.793   2.384  0.00  0.00    -0.017 A 
ATOM     29  C   UNL     1      13.518  -4.783   1.895  0.00  0.00    +0.008 A 
ATOM     30  C   UNL     1      11.824  -5.626   3.451  0.00  0.00    +0.008 A 
ATOM     31  C   UNL     1      10.544  -5.625   3.914  0.00  0.00    +0.001 A 
ATOM     32  C   UNL     1       9.566  -4.810   3.361  0.00  0.00    +0.014 A 
ATOM     33  C   UNL     1       9.868  -3.960   2.304  0.00  0.00    +0.045 A 
ENDBRANCH  20  33
ENDBRANCH  18  22
ENDBRANCH   1  18
TORSDOF 5
