REMARK  Name = ZINC08636522
REMARK  5 active torsions:
REMARK  status: ('A' for Active; 'I' for Inactive)
REMARK    1  A    between atoms: C_10  and  N_11
REMARK    2  A    between atoms: C_14  and  C_28
REMARK    3  A    between atoms: C_17  and  O_27
REMARK    4  A    between atoms: C_19  and  O_26
REMARK    5  A    between atoms: N_30  and  C_31
REMARK                            x       y       z     vdW  Elec       q    Type
REMARK                         _______ _______ _______ _____ _____    ______ ____
ROOT
ATOM      1  N   UNL     1       3.908   1.925  -0.281  0.00  0.00    -0.276 N 
ATOM      2  C   UNL     1       4.644   2.198  -1.516  0.00  0.00    +0.115 C 
ATOM      3  C   UNL     1       4.527   1.145  -2.559  0.00  0.00    +0.100 C 
ATOM      4  C   UNL     1       5.656   0.142  -2.607  0.00  0.00    +0.048 C 
ATOM      5  C   UNL     1       7.011   0.814  -2.517  0.00  0.00    +0.146 C 
ATOM      6  C   UNL     1       7.143   1.682  -1.292  0.00  0.00    +0.165 C 
ATOM      7  C   UNL     1       6.014   2.661  -1.075  0.00  0.00    +0.124 C 
ATOM      8  N   UNL     1       5.846   2.849   0.387  0.00  0.00    -0.319 N 
ATOM      9  C   UNL     1       4.647   2.370   0.750  0.00  0.00    +0.138 C 
ATOM     10  S   UNL     1       4.110   2.324   2.374  0.00  0.00    -0.018 S 
ATOM     11  H   UNL     1       6.495   3.256   0.982  0.00  0.00    +0.148 HD
ENDROOT
BRANCH   1  21
ATOM     12  C   UNL     1      -0.859   3.502  -0.796  0.00  0.00    +0.001 A 
ATOM     13  C   UNL     1       0.381   4.131  -0.891  0.00  0.00    +0.001 A 
ATOM     14  C   UNL     1       1.536   3.437  -0.697  0.00  0.00    +0.010 A 
ATOM     15  C   UNL     1       1.481   2.067  -0.397  0.00  0.00    +0.004 A 
ATOM     16  C   UNL     1       0.221   1.426  -0.301  0.00  0.00    -0.016 A 
ATOM     17  C   UNL     1      -0.950   2.174  -0.513  0.00  0.00    +0.008 A 
ATOM     18  C   UNL     1       0.164   0.054  -0.001  0.00  0.00    +0.008 A 
ATOM     19  C   UNL     1       1.314  -0.648   0.194  0.00  0.00    +0.002 A 
ATOM     20  C   UNL     1       2.558  -0.029   0.101  0.00  0.00    +0.024 A 
ATOM     21  C   UNL     1       2.656   1.314  -0.191  0.00  0.00    +0.043 A 
ENDBRANCH   1  21
BRANCH   3  22
ATOM     22  C   UNL     1       3.240   0.395  -2.329  0.00  0.00    +0.218 C 
ATOM     23  O   UNL     1       3.241  -0.623  -1.670  0.00  0.00    -0.275 OA
ATOM     24  N   UNL     1       2.088   0.855  -2.856  0.00  0.00    -0.312 N 
ATOM     25  H   UNL     1       2.087   1.672  -3.380  0.00  0.00    +0.149 HD
BRANCH  24  26
ATOM     26  C   UNL     1       0.838   0.122  -2.639  0.00  0.00    +0.073 C 
ATOM     27  C   UNL     1      -0.003  -0.221  -3.869  0.00  0.00    +0.024 C 
ATOM     28  C   UNL     1      -0.472   0.867  -2.901  0.00  0.00    +0.024 C 
ENDBRANCH  24  26
ENDBRANCH   3  22
BRANCH   6  29
ATOM     29  O   UNL     1       7.229   0.833  -0.146  0.00  0.00    -0.387 OA
ATOM     30  H   UNL     1       7.930   0.169  -0.199  0.00  0.00    +0.210 HD
ENDBRANCH   6  29
BRANCH   5  31
ATOM     31  O   UNL     1       7.203   1.622  -3.680  0.00  0.00    -0.389 OA
ATOM     32  H   UNL     1       7.133   1.135  -4.513  0.00  0.00    +0.210 HD
ENDBRANCH   5  31
TORSDOF 5
