REMARK  Name = ZINC36307338
REMARK  17 active torsions:
REMARK  status: ('A' for Active; 'I' for Inactive)
REMARK    1  A    between atoms: C_1  and  C_2
REMARK    2  A    between atoms: C_2  and  C_3
REMARK    3  A    between atoms: C_2  and  C_4
REMARK    4  A    between atoms: C_2  and  O_5
REMARK    5  A    between atoms: O_5  and  C_6
REMARK    6  A    between atoms: C_6  and  C_7
REMARK    7  A    between atoms: C_7  and  C_9
REMARK    8  A    between atoms: C_7  and  O_36
REMARK    9  A    between atoms: C_9  and  N_10
REMARK   10  A    between atoms: N_10  and  C_11
REMARK   11  A    between atoms: N_10  and  C_32
REMARK   12  A    between atoms: C_11  and  C_12
REMARK   13  A    between atoms: C_13  and  C_26
REMARK   14  A    between atoms: N_15  and  C_25
REMARK   15  A    between atoms: C_16  and  O_17
REMARK   16  A    between atoms: O_17  and  C_18
REMARK   17  A    between atoms: C_32  and  C_33
REMARK                            x       y       z     vdW  Elec       q    Type
REMARK                         _______ _______ _______ _____ _____    ______ ____
ROOT
ATOM      1  C   UNL     1       6.331  -0.683  -5.871  0.00  0.00    +0.025 A 
ATOM      2  C   UNL     1       7.010  -1.889  -6.128  0.00  0.00    +0.098 A 
ATOM      3  N   UNL     1       7.367  -1.897  -7.394  0.00  0.00    -0.168 NA
ATOM      4  N   UNL     1       6.929  -0.703  -7.982  0.00  0.00    -0.235 N 
ATOM      5  C   UNL     1       6.290   0.025  -7.029  0.00  0.00    +0.221 A 
ATOM      6  C   UNL     1       7.121  -0.311  -9.380  0.00  0.00    +0.176 C 
ENDROOT
BRANCH   2   7
ATOM      7  C   UNL     1       7.277  -2.965  -5.141  0.00  0.00    +0.002 A 
ATOM      8  C   UNL     1       7.098  -4.300  -5.496  0.00  0.00    +0.010 A 
ATOM      9  C   UNL     1       7.348  -5.296  -4.574  0.00  0.00    +0.001 A 
ATOM     10  C   UNL     1       7.776  -4.971  -3.300  0.00  0.00    +0.000 A 
ATOM     11  C   UNL     1       7.956  -3.647  -2.942  0.00  0.00    +0.001 A 
ATOM     12  C   UNL     1       7.715  -2.643  -3.857  0.00  0.00    +0.010 A 
ENDBRANCH   2   7
BRANCH   1  13
ATOM     13  C   UNL     1       5.748  -0.256  -4.549  0.00  0.00    -0.035 C 
BRANCH  13  14
ATOM     14  N   UNL     1       4.316  -0.580  -4.518  0.00  0.00    +0.384 N 
ATOM     15  H   UNL     1       3.850  -0.120  -5.286  0.00  0.00    -0.081 HD
BRANCH  14  16
ATOM     16  C   UNL     1       3.737  -0.120  -3.248  0.00  0.00    -0.044 C 
BRANCH  16  17
ATOM     17  C   UNL     1       3.745   1.409  -3.208  0.00  0.00    +0.124 C 
BRANCH  17  18
ATOM     18  O   UNL     1       5.093   1.877  -3.122  0.00  0.00    -0.391 OA
ATOM     19  H   UNL     1       5.566   1.568  -2.338  0.00  0.00    +0.210 HD
ENDBRANCH  17  18
BRANCH  17  20
ATOM     20  C   UNL     1       2.959   1.891  -1.987  0.00  0.00    +0.189 C 
BRANCH  20  21
ATOM     21  O   UNL     1       2.867   3.317  -2.013  0.00  0.00    -0.372 OA
BRANCH  21  23
ATOM     22  C   UNL     1       2.843   3.489   0.398  0.00  0.00    +0.041 C 
ATOM     23  C   UNL     1       2.148   3.873  -0.910  0.00  0.00    +0.061 C 
ATOM     24  C   UNL     1       0.718   3.328  -0.907  0.00  0.00    +0.041 C 
ATOM     25  C   UNL     1       2.113   5.397  -1.040  0.00  0.00    +0.041 C 
ENDBRANCH  21  23
ENDBRANCH  20  21
ENDBRANCH  17  20
ENDBRANCH  16  17
ENDBRANCH  14  16
BRANCH  14  26
ATOM     26  C   UNL     1       4.140  -2.033  -4.639  0.00  0.00    -0.075 C 
BRANCH  26  27
ATOM     27  C   UNL     1       2.650  -2.359  -4.757  0.00  0.00    -0.028 C 
ATOM     28  C   UNL     1       2.166  -2.990  -6.064  0.00  0.00    +0.002 C 
ATOM     29  C   UNL     1       2.249  -3.835  -4.791  0.00  0.00    +0.002 C 
ENDBRANCH  26  27
ENDBRANCH  14  26
ENDBRANCH  13  14
ENDBRANCH   1  13
BRANCH   5  30
ATOM     30  O   UNL     1       5.717   1.243  -7.204  0.00  0.00    -0.438 OA
BRANCH  30  31
ATOM     31  C   UNL     1       6.503   2.343  -7.068  0.00  0.00    +0.133 A 
ATOM     32  C   UNL     1       7.870   2.200  -6.871  0.00  0.00    +0.046 A 
ATOM     33  C   UNL     1       8.668   3.320  -6.734  0.00  0.00    +0.006 A 
ATOM     34  C   UNL     1       8.107   4.582  -6.792  0.00  0.00    +0.038 A 
ATOM     35  C   UNL     1       6.744   4.728  -6.988  0.00  0.00    +0.127 A 
ATOM     36  C   UNL     1       5.942   3.610  -7.133  0.00  0.00    +0.084 A 
ATOM     37  F   UNL     1       6.198   5.962  -7.044  0.00  0.00    -0.205 F 
ENDBRANCH  30  31
ENDBRANCH   5  30
TORSDOF 13
