REMARK  Name = ZINC04912615
REMARK  9 active torsions:
REMARK  status: ('A' for Active; 'I' for Inactive)
REMARK    1  A    between atoms: C_1  and  C_2
REMARK    2  A    between atoms: C_2  and  O_3
REMARK    3  A    between atoms: O_3  and  C_4
REMARK    4  A    between atoms: C_7  and  C_10
REMARK    5  A    between atoms: C_15  and  C_30
REMARK    6  A    between atoms: C_16  and  C_19
REMARK    7  A    between atoms: C_19  and  O_21
REMARK    8  A    between atoms: O_21  and  C_22
REMARK    9  A    between atoms: C_27  and  C_29
REMARK                            x       y       z     vdW  Elec       q    Type
REMARK                         _______ _______ _______ _____ _____    ______ ____
ROOT
ATOM      1  C   UNL     1       1.144  -6.059   1.764  0.00  0.00    +0.032 C 
ATOM      2  C   UNL     1      -0.257  -6.672   1.852  0.00  0.00    +0.062 C 
ATOM      3  C   UNL     1      -0.143  -8.175   1.842  0.00  0.00    +0.028 A 
ATOM      4  C   UNL     1       0.982  -8.846   1.360  0.00  0.00    +0.042 A 
ATOM      5  C   UNL     1       0.752 -10.219   1.505  0.00  0.00    -0.008 A 
ATOM      6  C   UNL     1      -0.491 -10.351   2.062  0.00  0.00    +0.128 A 
ATOM      7  N   UNL     1      -1.019  -9.089   2.258  0.00  0.00    -0.352 N 
ATOM      8  H   UNL     1      -1.891  -8.899   2.639  0.00  0.00    +0.166 HD
ATOM      9  C   UNL     1       1.690 -11.335   1.122  0.00  0.00    +0.047 C 
ATOM     10  C   UNL     1       2.140  -8.120   0.817  0.00  0.00    +0.166 C 
ATOM     11  O   UNL     1       3.198  -8.665   0.582  0.00  0.00    -0.292 OA
ATOM     12  C   UNL     1       1.913  -6.636   0.571  0.00  0.00    +0.088 C 
ENDROOT
BRANCH   1  16
ATOM     13  C   UNL     1       0.802  -1.824   1.306  0.00  0.00    +0.121 A 
ATOM     14  C   UNL     1       0.250  -2.673   0.357  0.00  0.00    +0.046 A 
ATOM     15  C   UNL     1       0.366  -4.041   0.505  0.00  0.00    +0.007 A 
ATOM     16  C   UNL     1       1.024  -4.566   1.603  0.00  0.00    -0.043 A 
ATOM     17  C   UNL     1       1.570  -3.722   2.552  0.00  0.00    +0.007 A 
ATOM     18  C   UNL     1       1.460  -2.353   2.406  0.00  0.00    +0.046 A 
BRANCH  13  19
ATOM     19  O   UNL     1       0.693  -0.477   1.160  0.00  0.00    -0.492 OA
BRANCH  19  21
ATOM     20  C   UNL     1      -0.019   1.526   0.010  0.00  0.00    +0.048 C 
ATOM     21  C   UNL     1       0.002  -0.004   0.002  0.00  0.00    +0.225 C 
ENDBRANCH  19  21
ENDBRANCH  13  19
ENDBRANCH   1  16
BRANCH   6  22
ATOM     22  C   UNL     1      -1.151 -11.618   2.394  0.00  0.00    +0.356 C 
ATOM     23  O   UNL     1      -0.588 -12.673   2.175  0.00  0.00    -0.243 OA
BRANCH  22  24
ATOM     24  O   UNL     1      -2.384 -11.613   2.942  0.00  0.00    -0.457 OA
BRANCH  24  25
ATOM     25  C   UNL     1      -2.976 -12.904   3.244  0.00  0.00    +0.180 C 
ATOM     26  C   UNL     1      -3.838 -13.381   2.057  0.00  0.00    +0.045 C 
ATOM     27  C   UNL     1      -5.048 -14.082   2.724  0.00  0.00    +0.004 C 
ATOM     28  C   UNL     1      -5.325 -13.186   3.957  0.00  0.00    +0.007 C 
ATOM     29  C   UNL     1      -3.921 -12.780   4.452  0.00  0.00    +0.027 C 
ATOM     30  C   UNL     1      -3.941 -11.336   4.956  0.00  0.00    +0.011 C 
ENDBRANCH  24  25
ENDBRANCH  22  24
ENDBRANCH   6  22
TORSDOF 6
