REMARK  Name = ZINC07692694
REMARK  5 active torsions:
REMARK  status: ('A' for Active; 'I' for Inactive)
REMARK    1  A    between atoms: C_1  and  C_2
REMARK    2  A    between atoms: C_2  and  C_4
REMARK    3  A    between atoms: C_2  and  S_16
REMARK    4  A    between atoms: S_16  and  C_17
REMARK    5  A    between atoms: C_21  and  N_23
REMARK                            x       y       z     vdW  Elec       q    Type
REMARK                         _______ _______ _______ _____ _____    ______ ____
ROOT
ATOM      1  C   UNL     1      -3.008   0.446  -0.911  0.00  0.00    +0.029 C 
ATOM      2  C   UNL     1      -1.782   0.002  -1.712  0.00  0.00    +0.137 C 
ENDROOT
BRANCH   2   3
ATOM      3  C   UNL     1      -0.818  -0.712  -0.799  0.00  0.00    +0.229 C 
ATOM      4  O   UNL     1      -0.781  -1.924  -0.786  0.00  0.00    -0.274 OA
ATOM      5  N   UNL     1       0.002  -0.004   0.002  0.00  0.00    -0.296 N 
ATOM      6  C   UNL     1       0.955  -0.671   0.904  0.00  0.00    +0.113 C 
ATOM      7  C   UNL     1       2.367  -0.306   0.450  0.00  0.00    +0.054 C 
ATOM      8  C   UNL     1       2.486   1.176   0.209  0.00  0.00    -0.041 A 
ATOM      9  C   UNL     1       3.762   1.727   0.200  0.00  0.00    +0.004 A 
ATOM     10  C   UNL     1       3.943   3.075  -0.025  0.00  0.00    +0.000 A 
ATOM     11  C   UNL     1       2.847   3.889  -0.243  0.00  0.00    +0.000 A 
ATOM     12  C   UNL     1       1.579   3.346  -0.230  0.00  0.00    +0.005 A 
ATOM     13  C   UNL     1       1.395   1.989  -0.001  0.00  0.00    -0.027 A 
ATOM     14  C   UNL     1      -0.018   1.463   0.010  0.00  0.00    +0.143 C 
ENDBRANCH   2   3
BRANCH   2  15
ATOM     15  S   UNL     1      -2.299  -1.116  -3.038  0.00  0.00    -0.073 S 
BRANCH  15  16
ATOM     16  C   UNL     1      -3.268  -0.011  -4.009  0.00  0.00    +0.192 A 
ATOM     17  N   UNL     1      -3.404   1.247  -3.613  0.00  0.00    -0.207 NA
ATOM     18  C   UNL     1      -4.124   2.111  -4.325  0.00  0.00    +0.122 A 
ATOM     19  C   UNL     1      -4.747   1.676  -5.491  0.00  0.00    +0.086 A 
ATOM     20  C   UNL     1      -4.586   0.347  -5.872  0.00  0.00    +0.122 A 
ATOM     21  N   UNL     1      -3.846  -0.460  -5.114  0.00  0.00    -0.207 NA
ATOM     22  N   UNL     1      -4.258   3.426  -3.906  0.00  0.00    -0.343 N 
ATOM     23  H   UNL     1      -4.787   4.049  -4.428  0.00  0.00    +0.144 HD
ATOM     24  H   UNL     1      -3.821   3.722  -3.093  0.00  0.00    +0.144 HD
BRANCH  20  25
ATOM     25  N   UNL     1      -5.187  -0.131  -7.026  0.00  0.00    -0.343 N 
ATOM     26  H   UNL     1      -5.070  -1.058  -7.286  0.00  0.00    +0.144 HD
ATOM     27  H   UNL     1      -5.724   0.462  -7.574  0.00  0.00    +0.144 HD
ENDBRANCH  20  25
ENDBRANCH  15  16
ENDBRANCH   2  15
TORSDOF 4
