REMARK  Name = ZINC39912407
REMARK  11 active torsions:
REMARK  status: ('A' for Active; 'I' for Inactive)
REMARK    1  A    between atoms: C_1  and  C_2
REMARK    2  A    between atoms: C_5  and  C_8
REMARK    3  A    between atoms: C_8  and  N_9
REMARK    4  A    between atoms: C_10  and  C_29
REMARK    5  A    between atoms: C_13  and  C_20
REMARK    6  A    between atoms: C_22  and  C_28
REMARK    7  A    between atoms: C_24  and  C_27
REMARK    8  A    between atoms: C_25  and  O_26
REMARK    9  A    between atoms: C_32  and  C_35
REMARK   10  A    between atoms: C_35  and  C_36
REMARK   11  A    between atoms: C_35  and  C_37
REMARK                            x       y       z     vdW  Elec       q    Type
REMARK                         _______ _______ _______ _____ _____    ______ ____
ROOT
ATOM      1  N   UNL     1       1.252  -4.499  -0.249  0.00  0.00    -0.281 N 
ATOM      2  C   UNL     1       2.346  -4.699  -1.208  0.00  0.00    +0.142 C 
ATOM      3  C   UNL     1       3.541  -5.119  -0.397  0.00  0.00    +0.035 A 
ATOM      4  C   UNL     1       4.888  -5.494  -0.389  0.00  0.00    +0.102 A 
ATOM      5  N   UNL     1       5.227  -5.724   0.865  0.00  0.00    -0.173 NA
ATOM      6  N   UNL     1       4.227  -5.531   1.649  0.00  0.00    -0.272 N 
ATOM      7  H   UNL     1       4.245  -5.640   2.612  0.00  0.00    +0.189 HD
ATOM      8  C   UNL     1       3.134  -5.149   0.923  0.00  0.00    +0.126 A 
ATOM      9  C   UNL     1       1.721  -4.757   0.985  0.00  0.00    +0.266 C 
ATOM     10  O   UNL     1       1.066  -4.680   2.007  0.00  0.00    -0.268 OA
ENDROOT
BRANCH   4  11
ATOM     11  C   UNL     1       5.774  -5.613  -1.574  0.00  0.00    +0.044 A 
ATOM     12  C   UNL     1       5.334  -6.284  -2.712  0.00  0.00    +0.017 A 
ATOM     13  C   UNL     1       6.161  -6.391  -3.812  0.00  0.00    -0.049 A 
ATOM     14  C   UNL     1       7.428  -5.835  -3.788  0.00  0.00    +0.010 A 
ATOM     15  C   UNL     1       7.875  -5.168  -2.663  0.00  0.00    -0.008 A 
ATOM     16  C   UNL     1       7.052  -5.048  -1.554  0.00  0.00    +0.129 A 
ATOM     17  C   UNL     1       9.256  -4.565  -2.645  0.00  0.00    +0.047 C 
ATOM     18  C   UNL     1       5.683  -7.117  -5.043  0.00  0.00    +0.044 C 
BRANCH  16  19
ATOM     19  O   UNL     1       7.489  -4.387  -0.450  0.00  0.00    -0.506 OA
ATOM     20  H   UNL     1       7.944  -4.950   0.191  0.00  0.00    +0.292 HD
ENDBRANCH  16  19
ENDBRANCH   4  11
BRANCH   2  21
ATOM     21  C   UNL     1       2.639  -3.412  -1.937  0.00  0.00    -0.022 A 
ATOM     22  C   UNL     1       2.829  -2.243  -1.225  0.00  0.00    +0.006 A 
ATOM     23  C   UNL     1       3.097  -1.063  -1.894  0.00  0.00    +0.004 A 
ATOM     24  C   UNL     1       3.175  -1.053  -3.274  0.00  0.00    -0.045 A 
ATOM     25  C   UNL     1       2.986  -2.223  -3.986  0.00  0.00    +0.004 A 
ATOM     26  C   UNL     1       2.722  -3.403  -3.317  0.00  0.00    +0.006 A 
BRANCH  24  27
ATOM     27  C   UNL     1       3.467   0.234  -4.003  0.00  0.00    +0.013 C 
ATOM     28  C   UNL     1       4.757   0.081  -4.811  0.00  0.00    +0.012 C 
ATOM     29  C   UNL     1       2.308   0.559  -4.947  0.00  0.00    +0.012 C 
ENDBRANCH  24  27
ENDBRANCH   2  21
BRANCH   1  30
ATOM     30  C   UNL     1      -0.113  -4.083  -0.578  0.00  0.00    +0.144 C 
BRANCH  30  35
ATOM     31  C   UNL     1      -0.452   1.685  -0.471  0.00  0.00    +0.044 C 
ATOM     32  C   UNL     1      -0.363   0.181  -0.499  0.00  0.00    -0.050 A 
ATOM     33  C   UNL     1      -0.030  -0.470  -1.672  0.00  0.00    +0.003 A 
ATOM     34  C   UNL     1       0.051  -1.850  -1.698  0.00  0.00    +0.005 A 
ATOM     35  C   UNL     1      -0.201  -2.579  -0.550  0.00  0.00    -0.030 A 
ATOM     36  C   UNL     1      -0.533  -1.927   0.623  0.00  0.00    +0.005 A 
ATOM     37  C   UNL     1      -0.610  -0.548   0.650  0.00  0.00    +0.003 A 
ENDBRANCH  30  35
ENDBRANCH   1  30
TORSDOF 6
