REMARK  Name = ZINC37056011
REMARK  7 active torsions:
REMARK  status: ('A' for Active; 'I' for Inactive)
REMARK    1  A    between atoms: C_1  and  C_2
REMARK    2  A    between atoms: C_5  and  N_9
REMARK    3  A    between atoms: N_9  and  C_10
REMARK    4  A    between atoms: C_10  and  C_12
REMARK    5  A    between atoms: C_10  and  C_13
REMARK    6  A    between atoms: C_15  and  O_20
REMARK    7  A    between atoms: C_18  and  O_19
REMARK                            x       y       z     vdW  Elec       q    Type
REMARK                         _______ _______ _______ _____ _____    ______ ____
ROOT
ATOM      1  C   UNL     1       0.074  -4.907   1.243  0.00  0.00    +0.101 C 
ATOM      2  C   UNL     1       1.515  -5.037   1.740  0.00  0.00    +0.033 C 
ENDROOT
BRANCH   1   3
ATOM      3  C   UNL     1      -0.509  -6.280   1.029  0.00  0.00    +0.017 A 
ATOM      4  C   UNL     1      -0.472  -6.859  -0.225  0.00  0.00    +0.054 A 
ATOM      5  C   UNL     1      -1.009  -8.123  -0.422  0.00  0.00    +0.117 A 
ATOM      6  C   UNL     1      -1.582  -8.806   0.641  0.00  0.00    +0.049 A 
ATOM      7  C   UNL     1      -1.619  -8.227   1.894  0.00  0.00    +0.049 A 
ATOM      8  C   UNL     1      -1.078  -6.965   2.092  0.00  0.00    +0.122 A 
BRANCH   8   9
ATOM      9  O   UNL     1      -1.109  -6.398   3.328  0.00  0.00    -0.506 OA
ATOM     10  H   UNL     1      -1.902  -5.872   3.499  0.00  0.00    +0.292 HD
ENDBRANCH   8   9
BRANCH   5  11
ATOM     11  O   UNL     1      -0.973  -8.692  -1.656  0.00  0.00    -0.507 OA
ATOM     12  H   UNL     1      -0.179  -9.219  -1.823  0.00  0.00    +0.292 HD
ENDBRANCH   5  11
ENDBRANCH   1   3
BRANCH   1  13
ATOM     13  N   UNL     1       0.058  -4.168  -0.021  0.00  0.00    -0.337 N 
ATOM     14  H   UNL     1       0.060  -4.648  -0.864  0.00  0.00    +0.147 HD
BRANCH  13  19
ATOM     15  C   UNL     1      -0.018   1.503   0.010  0.00  0.00    +0.045 C 
ATOM     16  C   UNL     1       0.002  -0.004   0.002  0.00  0.00    -0.037 A 
ATOM     17  C   UNL     1       0.006  -0.687  -1.200  0.00  0.00    +0.006 A 
ATOM     18  C   UNL     1       0.024  -2.068  -1.212  0.00  0.00    +0.023 A 
ATOM     19  C   UNL     1       0.040  -2.771  -0.013  0.00  0.00    +0.029 A 
ATOM     20  C   UNL     1       0.036  -2.082   1.193  0.00  0.00    +0.037 A 
ATOM     21  C   UNL     1       0.023  -0.701   1.197  0.00  0.00    +0.018 A 
ATOM     22  I   UNL     1       0.027   0.340   3.015  0.00  0.00    -0.043 I 
ENDBRANCH  13  19
ENDBRANCH   1  13
TORSDOF 5
