REMARK  Name = ZINC09907685
REMARK  14 active torsions:
REMARK  status: ('A' for Active; 'I' for Inactive)
REMARK    1  A    between atoms: C_1  and  C_2
REMARK    2  A    between atoms: C_2  and  C_3
REMARK    3  A    between atoms: C_2  and  C_4
REMARK    4  A    between atoms: C_2  and  C_5
REMARK    5  A    between atoms: C_12  and  N_25
REMARK    6  A    between atoms: C_13  and  C_14
REMARK    7  A    between atoms: N_16  and  C_17
REMARK    8  A    between atoms: C_22  and  O_23
REMARK    9  A    between atoms: O_23  and  C_24
REMARK   10  A    between atoms: C_26  and  C_27
REMARK   11  A    between atoms: C_30  and  O_35
REMARK   12  A    between atoms: C_31  and  O_33
REMARK   13  A    between atoms: O_33  and  C_34
REMARK   14  A    between atoms: O_35  and  C_36
REMARK                            x       y       z     vdW  Elec       q    Type
REMARK                         _______ _______ _______ _____ _____    ______ ____
ROOT
ATOM      1  C   UNL     1       0.763  -0.485  -1.250  0.00  0.00    -0.000 C 
ATOM      2  C   UNL     1       0.021   0.028  -2.489  0.00  0.00    +0.009 C 
ATOM      3  C   UNL     1       0.562  -0.662  -3.742  0.00  0.00    +0.037 C 
ATOM      4  C   UNL     1       2.080  -0.502  -3.777  0.00  0.00    -0.023 A 
ATOM      5  C   UNL     1       2.763  -0.182  -2.650  0.00  0.00    -0.004 A 
ATOM      6  S   UNL     1       4.459  -0.105  -3.161  0.00  0.00    -0.073 S 
ATOM      7  C   UNL     1       4.223  -0.507  -4.885  0.00  0.00    +0.114 A 
ATOM      8  C   UNL     1       2.834  -0.674  -4.951  0.00  0.00    +0.073 A 
ATOM      9  C   UNL     1       2.203   0.048  -1.280  0.00  0.00    +0.046 C 
ENDROOT
BRANCH   1  11
ATOM     10  C   UNL     1       0.041   1.543   0.019  0.00  0.00    +0.011 C 
ATOM     11  C   UNL     1       0.058   0.013   0.013  0.00  0.00    -0.035 C 
ATOM     12  C   UNL     1       0.806  -0.494   1.248  0.00  0.00    +0.011 C 
ATOM     13  C   UNL     1      -1.379  -0.513   0.035  0.00  0.00    +0.011 C 
ENDBRANCH   1  11
BRANCH   8  14
ATOM     14  C   UNL     1       2.181  -1.022  -6.218  0.00  0.00    +0.251 C 
ATOM     15  O   UNL     1       1.798  -0.141  -6.966  0.00  0.00    -0.270 OA
ATOM     16  N   UNL     1       2.006  -2.315  -6.553  0.00  0.00    -0.278 N 
ATOM     17  H   UNL     1       2.369  -3.016  -5.989  0.00  0.00    +0.155 HD
BRANCH  16  18
ATOM     18  C   UNL     1       1.300  -2.647  -7.716  0.00  0.00    +0.076 A 
ATOM     19  C   UNL     1       1.392  -1.840  -8.841  0.00  0.00    +0.027 A 
ATOM     20  C   UNL     1       0.694  -2.170  -9.987  0.00  0.00    +0.002 A 
ATOM     21  C   UNL     1      -0.096  -3.304 -10.017  0.00  0.00    +0.004 A 
ATOM     22  C   UNL     1      -0.193  -4.114  -8.900  0.00  0.00    +0.047 A 
ATOM     23  C   UNL     1       0.508  -3.793  -7.749  0.00  0.00    +0.141 A 
BRANCH  23  24
ATOM     24  O   UNL     1       0.418  -4.591  -6.652  0.00  0.00    -0.493 OA
ATOM     25  C   UNL     1      -0.412  -5.749  -6.758  0.00  0.00    +0.277 C 
ENDBRANCH  23  24
ENDBRANCH  16  18
ENDBRANCH   8  14
BRANCH   7  26
ATOM     26  N   UNL     1       5.142  -0.619  -5.867  0.00  0.00    -0.247 NA
ATOM     27  C   UNL     1       6.408  -0.423  -5.603  0.00  0.00    +0.120 C 
BRANCH  27  28
ATOM     28  C   UNL     1       7.409  -0.546  -6.671  0.00  0.00    -0.003 A 
ATOM     29  C   UNL     1       7.009  -0.867  -7.974  0.00  0.00    +0.013 A 
ATOM     30  C   UNL     1       7.949  -0.981  -8.974  0.00  0.00    +0.050 A 
ATOM     31  C   UNL     1       9.294  -0.778  -8.694  0.00  0.00    +0.162 A 
ATOM     32  C   UNL     1       9.701  -0.458  -7.399  0.00  0.00    +0.162 A 
ATOM     33  C   UNL     1       8.764  -0.336  -6.391  0.00  0.00    +0.058 A 
BRANCH  32  34
ATOM     34  O   UNL     1      11.019  -0.261  -7.129  0.00  0.00    -0.491 OA
ATOM     35  C   UNL     1      11.364   0.064  -5.781  0.00  0.00    +0.277 C 
ENDBRANCH  32  34
BRANCH  31  36
ATOM     36  O   UNL     1      10.217  -0.893  -9.684  0.00  0.00    -0.491 OA
ATOM     37  C   UNL     1       9.732  -1.224 -10.987  0.00  0.00    +0.277 C 
ENDBRANCH  31  36
ENDBRANCH  27  28
ENDBRANCH   7  26
TORSDOF 8
