REMARK  Name = ZINC27992485
REMARK  13 active torsions:
REMARK  status: ('A' for Active; 'I' for Inactive)
REMARK    1  A    between atoms: C_1  and  C_2
REMARK    2  A    between atoms: C_2  and  S_3
REMARK    3  A    between atoms: S_3  and  C_6
REMARK    4  A    between atoms: C_9  and  N_23
REMARK    5  A    between atoms: C_10  and  C_12
REMARK    6  A    between atoms: N_14  and  C_15
REMARK    7  A    between atoms: C_16  and  C_22
REMARK    8  A    between atoms: C_20  and  C_21
REMARK    9  A    between atoms: N_23  and  C_24
REMARK   10  A    between atoms: N_23  and  C_30
REMARK   11  A    between atoms: C_24  and  C_25
REMARK   12  A    between atoms: C_30  and  C_31
REMARK   13  A    between atoms: C_32  and  C_36
REMARK                            x       y       z     vdW  Elec       q    Type
REMARK                         _______ _______ _______ _____ _____    ______ ____
ROOT
ATOM      1  C   UNL     1      -2.236   1.044  -1.919  0.00  0.00    +0.271 A 
ATOM      2  N   UNL     1      -2.060   2.137  -1.198  0.00  0.00    -0.218 NA
ATOM      3  C   UNL     1      -2.393   2.174   0.078  0.00  0.00    +0.140 A 
ATOM      4  C   UNL     1      -2.942   1.033   0.669  0.00  0.00    +0.080 A 
ATOM      5  C   UNL     1      -3.108  -0.109  -0.129  0.00  0.00    +0.152 A 
ATOM      6  N   UNL     1      -2.747  -0.054  -1.410  0.00  0.00    -0.205 NA
ENDROOT
BRANCH   5   7
ATOM      7  C   UNL     1      -3.678  -1.351   0.441  0.00  0.00    +0.269 C 
ATOM      8  O   UNL     1      -4.007  -1.387   1.611  0.00  0.00    -0.268 OA
ATOM      9  N   UNL     1      -3.831  -2.440  -0.337  0.00  0.00    -0.280 N 
ATOM     10  H   UNL     1      -3.440  -2.442  -1.365  0.00  0.00    +0.155 HD
BRANCH   9  11
ATOM     11  C   UNL     1      -4.488  -3.569   0.163  0.00  0.00    +0.040 A 
ATOM     12  C   UNL     1      -5.609  -4.067  -0.489  0.00  0.00    -0.029 A 
ATOM     13  C   UNL     1      -6.253  -5.185   0.005  0.00  0.00    +0.005 A 
ATOM     14  C   UNL     1      -5.789  -5.802   1.153  0.00  0.00    +0.001 A 
ATOM     15  C   UNL     1      -4.676  -5.305   1.806  0.00  0.00    +0.005 A 
ATOM     16  C   UNL     1      -4.025  -4.191   1.315  0.00  0.00    -0.029 A 
ATOM     17  C   UNL     1      -2.812  -3.650   2.028  0.00  0.00    +0.045 C 
ATOM     18  C   UNL     1      -6.119  -3.392  -1.736  0.00  0.00    +0.045 C 
ENDBRANCH   9  11
ENDBRANCH   5   7
BRANCH   1  19
ATOM     19  S   UNL     1      -1.769   1.060  -3.618  0.00  0.00    +0.032 S 
ATOM     20  O   UNL     1      -2.594   0.078  -4.229  0.00  0.00    -0.166 OA
ATOM     21  O   UNL     1      -1.857   2.424  -4.006  0.00  0.00    -0.166 OA
BRANCH  19  23
ATOM     22  C   UNL     1       0.478   0.492  -5.071  0.00  0.00    +0.028 C 
ATOM     23  C   UNL     1      -0.038   0.517  -3.630  0.00  0.00    +0.172 C 
ENDBRANCH  19  23
ENDBRANCH   1  19
BRANCH   4  24
ATOM     24  N   UNL     1      -3.307   1.028   2.009  0.00  0.00    -0.315 N 
BRANCH  24  25
ATOM     25  C   UNL     1      -4.752   1.244   2.162  0.00  0.00    +0.179 C 
BRANCH  25  26
ATOM     26  C   UNL     1      -5.149   0.989   3.594  0.00  0.00    +0.122 A 
ATOM     27  C   UNL     1      -5.174   1.906   4.578  0.00  0.00    +0.046 A 
ATOM     28  C   UNL     1      -5.603   1.239   5.748  0.00  0.00    +0.041 A 
ATOM     29  C   UNL     1      -5.814  -0.046   5.409  0.00  0.00    +0.195 A 
ATOM     30  O   UNL     1      -5.543  -0.190   4.102  0.00  0.00    -0.466 OA
ENDBRANCH  25  26
ENDBRANCH  24  25
BRANCH  24  31
ATOM     31  C   UNL     1      -2.542   2.027   2.767  0.00  0.00    +0.148 C 
BRANCH  31  32
ATOM     32  C   UNL     1      -1.119   1.557   2.925  0.00  0.00    +0.010 A 
ATOM     33  C   UNL     1      -0.324   1.596   4.021  0.00  0.00    -0.039 A 
ATOM     34  C   UNL     1       0.966   1.106   3.932  0.00  0.00    +0.011 A 
ATOM     35  C   UNL     1       1.393   0.592   2.753  0.00  0.00    +0.046 A 
ATOM     36  S   UNL     1      -0.043   0.804   1.715  0.00  0.00    -0.100 S 
ATOM     37  C   UNL     1      -0.835   2.170   5.317  0.00  0.00    +0.044 C 
ENDBRANCH  31  32
ENDBRANCH  24  31
ENDBRANCH   4  24
TORSDOF 9
