REMARK  Name = ZINC66648270
REMARK  6 active torsions:
REMARK  status: ('A' for Active; 'I' for Inactive)
REMARK    1  A    between atoms: C_1  and  C_2
REMARK    2  A    between atoms: C_5  and  C_7
REMARK    3  A    between atoms: C_7  and  C_8
REMARK    4  A    between atoms: C_14  and  C_16
REMARK    5  A    between atoms: N_18  and  C_19
REMARK    6  A    between atoms: N_18  and  C_20
REMARK                            x       y       z     vdW  Elec       q    Type
REMARK                         _______ _______ _______ _____ _____    ______ ____
ROOT
ATOM      1  C   UNL     1       1.215  -4.523  -1.451  0.00  0.00    +0.222 C 
ATOM      2  O   UNL     1       0.930  -3.781  -2.367  0.00  0.00    -0.275 OA
ATOM      3  N   UNL     1       1.685  -5.760  -1.707  0.00  0.00    -0.280 N 
ATOM      4  C   UNL     1       2.038  -6.698  -0.620  0.00  0.00    +0.178 C 
ATOM      5  S   UNL     1       1.917  -8.321  -1.493  0.00  0.00    -0.139 S 
ATOM      6  C   UNL     1       2.398  -7.694  -3.164  0.00  0.00    +0.102 C 
ATOM      7  C   UNL     1       1.865  -6.243  -3.066  0.00  0.00    +0.173 C 
ENDROOT
BRANCH   7   8
ATOM      8  C   UNL     1       0.541  -6.166  -3.780  0.00  0.00    +0.236 C 
ATOM      9  O   UNL     1      -0.439  -5.749  -3.199  0.00  0.00    -0.274 OA
ATOM     10  N   UNL     1       0.445  -6.561  -5.066  0.00  0.00    -0.306 N 
ATOM     11  C   UNL     1      -0.843  -6.486  -5.760  0.00  0.00    +0.131 C 
ATOM     12  C   UNL     1       1.628  -7.065  -5.767  0.00  0.00    +0.131 C 
ENDBRANCH   7   8
BRANCH   1  13
ATOM     13  C   UNL     1       1.043  -4.062  -0.027  0.00  0.00    +0.138 C 
BRANCH  13  18
ATOM     14  C   UNL     1      -0.018   1.503   0.010  0.00  0.00    +0.051 C 
ATOM     15  C   UNL     1       0.002  -0.004   0.002  0.00  0.00    -0.013 A 
ATOM     16  C   UNL     1      -1.039  -0.872   0.002  0.00  0.00    +0.011 A 
ATOM     17  C   UNL     1      -0.780  -2.230  -0.007  0.00  0.00    +0.012 A 
ATOM     18  C   UNL     1       0.507  -2.653  -0.016  0.00  0.00    -0.001 A 
ATOM     19  S   UNL     1       1.404  -1.109  -0.018  0.00  0.00    -0.098 S 
ENDBRANCH  13  18
ENDBRANCH   1  13
TORSDOF 3
