REMARK  Name = ZINC09491113
REMARK  10 active torsions:
REMARK  status: ('A' for Active; 'I' for Inactive)
REMARK    1  A    between atoms: C_1  and  C_2
REMARK    2  A    between atoms: C_2  and  N_66
REMARK    3  A    between atoms: N_5  and  C_8
REMARK    4  A    between atoms: C_11  and  S_21
REMARK    5  A    between atoms: C_13  and  N_14
REMARK    6  A    between atoms: C_15  and  C_17
REMARK    7  A    between atoms: C_17  and  C_18
REMARK    8  A    between atoms: C_18  and  C_19
REMARK    9  A    between atoms: C_18  and  C_20
REMARK   10  A    between atoms: S_21  and  N_24
REMARK                            x       y       z     vdW  Elec       q    Type
REMARK                         _______ _______ _______ _____ _____    ______ ____
ROOT
ATOM      1  C   UNL     1       4.834  -1.815  -2.679  0.00  0.00    +0.051 A 
ATOM      2  C   UNL     1       3.925  -2.640  -2.034  0.00  0.00    +0.027 A 
ATOM      3  C   UNL     1       3.489  -2.326  -0.760  0.00  0.00    +0.030 A 
ATOM      4  C   UNL     1       3.948  -1.183  -0.131  0.00  0.00    +0.107 A 
ATOM      5  C   UNL     1       4.853  -0.355  -0.766  0.00  0.00    +0.053 A 
ATOM      6  C   UNL     1       5.300  -0.665  -2.042  0.00  0.00    +0.057 A 
ENDROOT
BRANCH   1   9
ATOM      7  C   UNL     1       6.496  -3.715  -5.386  0.00  0.00    -0.060 C 
ATOM      8  C   UNL     1       5.954  -3.440  -3.981  0.00  0.00    +0.086 C 
ATOM      9  N   UNL     1       5.280  -2.134  -3.966  0.00  0.00    -0.332 N 
ATOM     10  C   UNL     1       4.172  -2.105  -4.931  0.00  0.00    +0.086 C 
ATOM     11  C   UNL     1       4.714  -2.380  -6.335  0.00  0.00    -0.060 C 
ATOM     12  N   UNL     1       5.369  -3.705  -6.342  0.00  0.00    +0.382 N 
ATOM     13  H   UNL     1       4.685  -4.417  -6.059  0.00  0.00    -0.082 HD
BRANCH  12  15
ATOM     14  C   UNL     1       4.742  -3.741  -8.712  0.00  0.00    -0.017 C 
ATOM     15  C   UNL     1       5.856  -4.021  -7.701  0.00  0.00    -0.082 C 
ENDBRANCH  12  15
ENDBRANCH   1   9
BRANCH   6  16
ATOM     16  N   UNL     1       6.219   0.173  -2.688  0.00  0.00    -0.284 N 
ATOM     17  C   UNL     1       7.038   0.961  -1.964  0.00  0.00    +0.217 C 
ATOM     18  O   UNL     1       7.051   0.872  -0.754  0.00  0.00    -0.275 OA
ATOM     19  H   UNL     1       6.265   0.186  -3.657  0.00  0.00    +0.155 HD
BRANCH  17  20
ATOM     20  C   UNL     1       7.938   1.952  -2.656  0.00  0.00    +0.099 C 
BRANCH  20  21
ATOM     21  C   UNL     1       8.757   2.713  -1.613  0.00  0.00    -0.008 C 
ATOM     22  C   UNL     1       9.758   3.629  -2.319  0.00  0.00    +0.008 C 
ATOM     23  C   UNL     1       7.821   3.555  -0.743  0.00  0.00    +0.008 C 
ENDBRANCH  20  21
ENDBRANCH  17  20
ENDBRANCH   6  16
BRANCH   4  24
ATOM     24  S   UNL     1       3.382  -0.786   1.490  0.00  0.00    +0.061 S 
ATOM     25  O   UNL     1       4.379   0.038   2.078  0.00  0.00    -0.153 OA
ATOM     26  O   UNL     1       2.956  -2.006   2.082  0.00  0.00    -0.153 OA
BRANCH  24  27
ATOM     27  N   UNL     1       2.030   0.154   1.320  0.00  0.00    -0.177 NA
ATOM     28  C   UNL     1       0.696  -0.458   1.245  0.00  0.00    +0.109 C 
ATOM     29  C   UNL     1      -0.008   0.046  -0.018  0.00  0.00    +0.017 C 
ATOM     30  C   UNL     1      -0.019   1.576  -0.015  0.00  0.00    +0.003 C 
ATOM     31  C   UNL     1       1.420   2.098  -0.023  0.00  0.00    +0.017 C 
ATOM     32  C   UNL     1       2.140   1.617   1.240  0.00  0.00    +0.109 C 
ENDBRANCH  24  27
ENDBRANCH   4  24
TORSDOF 7
