REMARK  Name = ZINC40706641
REMARK  8 active torsions:
REMARK  status: ('A' for Active; 'I' for Inactive)
REMARK    1  A    between atoms: C_1  and  C_2
REMARK    2  A    between atoms: C_2  and  C_3
REMARK    3  A    between atoms: C_3  and  C_4
REMARK    4  A    between atoms: C_4  and  N_5
REMARK    5  A    between atoms: C_7  and  N_24
REMARK    6  A    between atoms: C_8  and  N_12
REMARK    7  A    between atoms: N_12  and  N_13
REMARK    8  A    between atoms: C_14  and  C_16
REMARK                            x       y       z     vdW  Elec       q    Type
REMARK                         _______ _______ _______ _____ _____    ______ ____
ROOT
ATOM      1  N   UNL     1       1.425  -2.500  -2.470  0.00  0.00    -0.327 N 
ATOM      2  C   UNL     1       1.568  -3.863  -2.699  0.00  0.00    +0.145 A 
ATOM      3  C   UNL     1       2.225  -4.325  -3.841  0.00  0.00    +0.107 A 
ATOM      4  C   UNL     1       2.341  -5.704  -4.022  0.00  0.00    +0.161 A 
ATOM      5  N   UNL     1       1.826  -6.520  -3.106  0.00  0.00    -0.217 NA
ATOM      6  C   UNL     1       1.214  -6.043  -2.041  0.00  0.00    +0.225 A 
ATOM      7  N   UNL     1       1.086  -4.748  -1.830  0.00  0.00    -0.219 NA
ATOM      8  H   UNL     1       1.779  -1.861  -3.109  0.00  0.00    +0.148 HD
ENDROOT
BRANCH   3   9
ATOM      9  N   UNL     1       2.753  -3.427  -4.783  0.00  0.00    -0.353 N 
ATOM     10  H   UNL     1       2.664  -2.471  -4.644  0.00  0.00    +0.143 HD
ATOM     11  H   UNL     1       3.207  -3.762  -5.572  0.00  0.00    +0.143 HD
ENDBRANCH   3   9
BRANCH   4  12
ATOM     12  N   UNL     1       2.985  -6.217  -5.142  0.00  0.00    -0.247 N 
ATOM     13  H   UNL     1       3.358  -5.615  -5.805  0.00  0.00    +0.172 HD
BRANCH  12  14
ATOM     14  N   UNL     1       3.096  -7.603  -5.312  0.00  0.00    -0.231 N 
ATOM     15  C   UNL     1       3.721  -8.101  -6.398  0.00  0.00    +0.262 C 
ATOM     16  O   UNL     1       4.188  -7.347  -7.230  0.00  0.00    -0.269 OA
ATOM     17  H   UNL     1       2.724  -8.205  -4.649  0.00  0.00    +0.173 HD
BRANCH  15  18
ATOM     18  C   UNL     1       3.838  -9.562  -6.578  0.00  0.00    +0.057 A 
ATOM     19  C   UNL     1       3.297 -10.431  -5.628  0.00  0.00    +0.016 A 
ATOM     20  C   UNL     1       3.409 -11.794  -5.801  0.00  0.00    +0.021 A 
ATOM     21  C   UNL     1       4.056 -12.303  -6.915  0.00  0.00    +0.042 A 
ATOM     22  C   UNL     1       4.594 -11.449  -7.862  0.00  0.00    +0.040 A 
ATOM     23  C   UNL     1       4.484 -10.081  -7.703  0.00  0.00    +0.054 A 
ATOM     24 CL   UNL     1       5.154  -9.010  -8.893  0.00  0.00    -0.083 Cl
ATOM     25 CL   UNL     1       4.193 -14.021  -7.125  0.00  0.00    -0.083 Cl
ENDBRANCH  15  18
ENDBRANCH  12  14
ENDBRANCH   4  12
BRANCH   1  26
ATOM     26  C   UNL     1       0.739  -2.027  -1.265  0.00  0.00    +0.103 C 
BRANCH  26  27
ATOM     27  C   UNL     1       0.718  -0.497  -1.257  0.00  0.00    +0.018 C 
BRANCH  27  29
ATOM     28  C   UNL     1      -0.019   1.526   0.010  0.00  0.00    +0.004 C 
ATOM     29  C   UNL     1       0.002  -0.004   0.002  0.00  0.00    -0.002 C 
ENDBRANCH  27  29
ENDBRANCH  26  27
ENDBRANCH   1  26
TORSDOF 7
