REMARK  Name = ZINC40958671
REMARK  8 active torsions:
REMARK  status: ('A' for Active; 'I' for Inactive)
REMARK    1  A    between atoms: C_1  and  O_2
REMARK    2  A    between atoms: O_2  and  C_3
REMARK    3  A    between atoms: C_6  and  C_9
REMARK    4  A    between atoms: C_10  and  C_11
REMARK    5  A    between atoms: N_13  and  C_14
REMARK    6  A    between atoms: N_17  and  C_20
REMARK    7  A    between atoms: C_20  and  C_21
REMARK    8  A    between atoms: C_23  and  C_26
REMARK                            x       y       z     vdW  Elec       q    Type
REMARK                         _______ _______ _______ _____ _____    ______ ____
ROOT
ATOM      1  C   UNL     1      -7.646  -6.673   0.051  0.00  0.00    +0.070 C 
ATOM      2  C   UNL     1      -8.142  -6.812   1.493  0.00  0.00    +0.004 C 
ATOM      3  C   UNL     1      -9.456  -7.595   1.502  0.00  0.00    -0.076 C 
ATOM      4  N   UNL     1      -9.239  -8.928   0.927  0.00  0.00    +0.386 N 
ATOM      5  C   UNL     1      -8.833  -8.806  -0.478  0.00  0.00    -0.076 C 
ATOM      6  C   UNL     1      -7.494  -8.069  -0.563  0.00  0.00    +0.004 C 
ATOM      7  H   UNL     1      -8.515  -9.403   1.446  0.00  0.00    -0.081 HD
ENDROOT
BRANCH   1  10
ATOM      8  C   UNL     1      -6.298  -4.644   0.043  0.00  0.00    +0.237 C 
ATOM      9  O   UNL     1      -7.327  -3.995   0.052  0.00  0.00    -0.271 OA
ATOM     10  N   UNL     1      -6.350  -5.991   0.041  0.00  0.00    -0.309 N 
ATOM     11  H   UNL     1      -5.529  -6.508   0.034  0.00  0.00    +0.149 HD
BRANCH   8  13
ATOM     12  C   UNL     1      -4.952  -2.614   0.035  0.00  0.00    +0.013 C 
ATOM     13  C   UNL     1      -5.004  -3.962   0.034  0.00  0.00    +0.068 C 
BRANCH  12  17
ATOM     14  C   UNL     1      -1.199  -0.637   0.010  0.00  0.00    +0.120 A 
ATOM     15  C   UNL     1      -2.373   0.107   0.019  0.00  0.00    +0.046 A 
ATOM     16  C   UNL     1      -3.594  -0.530   0.028  0.00  0.00    +0.011 A 
ATOM     17  C   UNL     1      -3.651  -1.928   0.026  0.00  0.00    -0.025 A 
ATOM     18  C   UNL     1      -2.465  -2.672   0.016  0.00  0.00    +0.011 A 
ATOM     19  C   UNL     1      -1.250  -2.026   0.003  0.00  0.00    +0.046 A 
BRANCH  14  21
ATOM     20  C   UNL     1      -0.017   1.425   0.010  0.00  0.00    +0.277 C 
ATOM     21  O   UNL     1       0.002  -0.004   0.002  0.00  0.00    -0.495 OA
ENDBRANCH  14  21
ENDBRANCH  12  17
ENDBRANCH   8  13
ENDBRANCH   1  10
BRANCH   4  22
ATOM     22  C   UNL     1     -10.484  -9.704   1.009  0.00  0.00    +0.022 C 
BRANCH  22  23
ATOM     23  C   UNL     1     -10.232 -11.111   0.534  0.00  0.00    +0.211 A 
ATOM     24  N   UNL     1      -9.864 -12.113   1.281  0.00  0.00    -0.193 NA
ATOM     25  C   UNL     1      -9.730 -13.222   0.531  0.00  0.00    +0.202 A 
ATOM     26  N   UNL     1     -10.016 -12.924  -0.712  0.00  0.00    -0.056 NA
ATOM     27  O   UNL     1     -10.353 -11.545  -0.728  0.00  0.00    -0.340 OA
BRANCH  25  28
ATOM     28  C   UNL     1      -9.325 -14.560   1.030  0.00  0.00    +0.023 A 
ATOM     29  C   UNL     1      -9.052 -14.748   2.384  0.00  0.00    +0.014 A 
ATOM     30  C   UNL     1      -8.677 -15.993   2.843  0.00  0.00    +0.039 A 
ATOM     31  C   UNL     1      -8.571 -17.056   1.960  0.00  0.00    +0.123 A 
ATOM     32  C   UNL     1      -8.841 -16.873   0.614  0.00  0.00    +0.039 A 
ATOM     33  C   UNL     1      -9.223 -15.633   0.147  0.00  0.00    +0.014 A 
ATOM     34  F   UNL     1      -8.203 -18.274   2.414  0.00  0.00    -0.205 F 
ENDBRANCH  25  28
ENDBRANCH  22  23
ENDBRANCH   4  22
TORSDOF 7
