REMARK  Name = ZINC09270351
REMARK  17 active torsions:
REMARK  status: ('A' for Active; 'I' for Inactive)
REMARK    1  A    between atoms: C_1  and  C_2
REMARK    2  A    between atoms: C_2  and  C_3
REMARK    3  A    between atoms: C_3  and  O_4
REMARK    4  A    between atoms: O_4  and  C_5
REMARK    5  A    between atoms: C_8  and  C_11
REMARK    6  A    between atoms: C_14  and  C_15
REMARK    7  A    between atoms: C_14  and  O_23
REMARK    8  A    between atoms: C_18  and  O_21
REMARK    9  A    between atoms: O_21  and  C_22
REMARK   10  A    between atoms: N_28  and  C_29
REMARK   11  A    between atoms: C_29  and  C_30
REMARK   12  A    between atoms: C_30  and  C_31
REMARK   13  A    between atoms: C_31  and  N_71
REMARK   14  A    between atoms: C_32  and  C_33
REMARK   15  A    between atoms: C_32  and  N_71
REMARK   16  A    between atoms: C_34  and  C_35
REMARK   17  A    between atoms: C_34  and  N_71
REMARK                            x       y       z     vdW  Elec       q    Type
REMARK                         _______ _______ _______ _____ _____    ______ ____
ROOT
ATOM      1  C   UNL     1      -5.117   1.217   0.054  0.00  0.00    +0.144 C 
ATOM      2  C   UNL     1      -3.765   1.870  -0.117  0.00  0.00    +0.071 C 
ATOM      3  C   UNL     1      -2.549   1.233  -0.269  0.00  0.00    +0.133 C 
ATOM      4  C   UNL     1      -3.993   3.254  -0.083  0.00  0.00    +0.249 C 
ATOM      5  O   UNL     1      -3.143   4.121  -0.184  0.00  0.00    -0.282 OA
ATOM      6  C   UNL     1      -5.453   3.480   0.094  0.00  0.00    +0.288 C 
ATOM      7  O   UNL     1      -5.986   4.569   0.161  0.00  0.00    -0.266 OA
ATOM      8  N   UNL     1      -6.095   2.302   0.176  0.00  0.00    -0.284 N 
ENDROOT
BRANCH   1  12
ATOM      9  C   UNL     1      -6.020  -1.190  -3.360  0.00  0.00    +0.121 A 
ATOM     10  C   UNL     1      -5.570  -1.784  -2.190  0.00  0.00    +0.046 A 
ATOM     11  C   UNL     1      -5.278  -1.004  -1.088  0.00  0.00    +0.009 A 
ATOM     12  C   UNL     1      -5.435   0.368  -1.150  0.00  0.00    -0.022 A 
ATOM     13  C   UNL     1      -5.889   0.963  -2.313  0.00  0.00    +0.009 A 
ATOM     14  C   UNL     1      -6.177   0.187  -3.420  0.00  0.00    +0.046 A 
BRANCH   9  15
ATOM     15  O   UNL     1      -6.307  -1.955  -4.446  0.00  0.00    -0.492 OA
BRANCH  15  16
ATOM     16  C   UNL     1      -6.766  -1.275  -5.616  0.00  0.00    +0.229 C 
BRANCH  16  18
ATOM     17  C   UNL     1      -7.526  -1.566  -7.978  0.00  0.00    +0.007 C 
ATOM     18  C   UNL     1      -7.035  -2.294  -6.725  0.00  0.00    +0.038 C 
ENDBRANCH  16  18
ENDBRANCH  15  16
ENDBRANCH   9  15
ENDBRANCH   1  12
BRANCH   3  19
ATOM     19  C   UNL     1      -1.343   2.015  -0.584  0.00  0.00    +0.017 A 
ATOM     20  C   UNL     1      -1.313   2.834  -1.719  0.00  0.00    +0.015 A 
ATOM     21  C   UNL     1      -0.185   3.568  -2.006  0.00  0.00    +0.046 A 
ATOM     22  C   UNL     1       0.926   3.493  -1.173  0.00  0.00    +0.120 A 
ATOM     23  C   UNL     1       0.904   2.677  -0.047  0.00  0.00    +0.046 A 
ATOM     24  C   UNL     1      -0.219   1.939   0.248  0.00  0.00    +0.015 A 
BRANCH  22  25
ATOM     25  O   UNL     1       2.036   4.219  -1.460  0.00  0.00    -0.495 OA
ATOM     26  C   UNL     1       3.142   4.096  -0.563  0.00  0.00    +0.277 C 
ENDBRANCH  22  25
ENDBRANCH   3  19
BRANCH   3  27
ATOM     27  O   UNL     1      -2.466  -0.107  -0.129  0.00  0.00    -0.506 OA
ATOM     28  H   UNL     1      -1.521  -0.400  -0.271  0.00  0.00    +0.292 HD
ENDBRANCH   3  27
BRANCH   8  29
ATOM     29  C   UNL     1      -7.538   2.130   0.357  0.00  0.00    +0.107 C 
BRANCH  29  30
ATOM     30  C   UNL     1      -7.862   2.071   1.851  0.00  0.00    +0.000 C 
BRANCH  30  31
ATOM     31  C   UNL     1      -9.369   1.892   2.041  0.00  0.00    -0.077 C 
BRANCH  31  32
ATOM     32  N   UNL     1      -9.662   1.816   3.487  0.00  0.00    +0.379 N 
ATOM     33  H   UNL     1      -9.055   1.106   3.913  0.00  0.00    -0.082 HD
BRANCH  32  34
ATOM     34  C   UNL     1      -9.396   3.122   4.126  0.00  0.00    -0.082 C 
ATOM     35  C   UNL     1     -10.315   4.199   3.548  0.00  0.00    -0.017 C 
ENDBRANCH  32  34
BRANCH  32  36
ATOM     36  C   UNL     1     -11.073   1.429   3.697  0.00  0.00    -0.082 C 
ATOM     37  C   UNL     1     -11.258   1.014   5.158  0.00  0.00    -0.017 C 
ENDBRANCH  32  36
ENDBRANCH  31  32
ENDBRANCH  30  31
ENDBRANCH  29  30
ENDBRANCH   8  29
TORSDOF 13
