REMARK  Name = ZINC63395272
REMARK  11 active torsions:
REMARK  status: ('A' for Active; 'I' for Inactive)
REMARK    1  A    between atoms: C_1  and  O_2
REMARK    2  A    between atoms: O_2  and  C_3
REMARK    3  A    between atoms: C_6  and  C_9
REMARK    4  A    between atoms: C_10  and  C_11
REMARK    5  A    between atoms: C_10  and  N_25
REMARK    6  A    between atoms: N_13  and  C_14
REMARK    7  A    between atoms: C_14  and  C_15
REMARK    8  A    between atoms: C_15  and  C_16
REMARK    9  A    between atoms: C_26  and  C_28
REMARK   10  A    between atoms: C_31  and  O_34
REMARK   11  A    between atoms: O_34  and  C_35
REMARK                            x       y       z     vdW  Elec       q    Type
REMARK                         _______ _______ _______ _____ _____    ______ ____
ROOT
ATOM      1  C   UNL     1      -5.014  -2.742   0.479  0.00  0.00    +0.036 C 
ATOM      2  C   UNL     1      -5.018  -3.975  -0.079  0.00  0.00    +0.097 C 
ENDROOT
BRANCH   1   6
ATOM      3  C   UNL     1      -1.521  -1.294   2.400  0.00  0.00    +0.120 A 
ATOM      4  C   UNL     1      -1.826  -2.650   2.446  0.00  0.00    +0.046 A 
ATOM      5  C   UNL     1      -2.959  -3.125   1.825  0.00  0.00    +0.011 A 
ATOM      6  C   UNL     1      -3.804  -2.240   1.145  0.00  0.00    -0.023 A 
ATOM      7  C   UNL     1      -3.493  -0.876   1.101  0.00  0.00    +0.011 A 
ATOM      8  C   UNL     1      -2.360  -0.411   1.731  0.00  0.00    +0.046 A 
BRANCH   3  10
ATOM      9  C   UNL     1       0.416  -1.793   3.683  0.00  0.00    +0.277 C 
ATOM     10  O   UNL     1      -0.402  -0.831   3.014  0.00  0.00    -0.495 OA
ENDBRANCH   3  10
ENDBRANCH   1   6
BRANCH   2  11
ATOM     11  C   UNL     1      -3.774  -4.752  -0.152  0.00  0.00    +0.258 C 
ATOM     12  O   UNL     1      -3.604  -5.699   0.593  0.00  0.00    -0.269 OA
ATOM     13  N   UNL     1      -2.820  -4.416  -1.043  0.00  0.00    -0.310 N 
ATOM     14  H   UNL     1      -2.924  -3.619  -1.587  0.00  0.00    +0.149 HD
BRANCH  13  15
ATOM     15  C   UNL     1      -1.628  -5.254  -1.191  0.00  0.00    +0.109 C 
BRANCH  15  16
ATOM     16  C   UNL     1      -0.657  -4.592  -2.171  0.00  0.00    +0.052 C 
BRANCH  16  17
ATOM     17  C   UNL     1       0.513  -5.509  -2.416  0.00  0.00    -0.040 C 
ATOM     18  C   UNL     1       0.659  -6.386  -3.435  0.00  0.00    -0.001 A 
ATOM     19  C   UNL     1      -0.196  -6.737  -4.575  0.00  0.00    +0.010 A 
ATOM     20  C   UNL     1       0.230  -7.677  -5.450  0.00  0.00    +0.001 A 
ATOM     21  C   UNL     1       1.463  -8.324  -5.294  0.00  0.00    +0.002 A 
ATOM     22  C   UNL     1       2.303  -8.056  -4.272  0.00  0.00    +0.026 A 
ATOM     23  C   UNL     1       1.957  -7.083  -3.293  0.00  0.00    +0.043 A 
ATOM     24  N   UNL     1       2.589  -6.654  -2.228  0.00  0.00    -0.380 N 
ATOM     25  C   UNL     1       1.765  -5.630  -1.577  0.00  0.00    +0.144 C 
ATOM     26  H   UNL     1       3.458  -6.958  -1.924  0.00  0.00    +0.160 HD
ENDBRANCH  16  17
ENDBRANCH  15  16
ENDBRANCH  13  15
ENDBRANCH   2  11
BRANCH   2  27
ATOM     27  N   UNL     1      -6.207  -4.510  -0.587  0.00  0.00    -0.277 N 
ATOM     28  C   UNL     1      -6.203  -5.720  -1.181  0.00  0.00    +0.248 C 
ATOM     29  O   UNL     1      -5.186  -6.388  -1.192  0.00  0.00    -0.270 OA
ATOM     30  H   UNL     1      -7.035  -4.010  -0.512  0.00  0.00    +0.155 HD
BRANCH  28  31
ATOM     31  C   UNL     1      -7.431  -6.234  -1.817  0.00  0.00    +0.037 A 
ATOM     32  C   UNL     1      -8.598  -5.466  -1.811  0.00  0.00    +0.016 A 
ATOM     33  C   UNL     1      -9.742  -5.949  -2.406  0.00  0.00    +0.046 A 
ATOM     34  C   UNL     1      -9.736  -7.200  -3.012  0.00  0.00    +0.120 A 
ATOM     35  C   UNL     1      -8.578  -7.968  -3.021  0.00  0.00    +0.046 A 
ATOM     36  C   UNL     1      -7.428  -7.489  -2.433  0.00  0.00    +0.016 A 
BRANCH  34  37
ATOM     37  O   UNL     1     -10.866  -7.673  -3.597  0.00  0.00    -0.495 OA
ATOM     38  C   UNL     1     -10.791  -8.966  -4.201  0.00  0.00    +0.277 C 
ENDBRANCH  34  37
ENDBRANCH  28  31
ENDBRANCH   2  27
TORSDOF 9
