REMARK  Name = ZINC11914688
REMARK  11 active torsions:
REMARK  status: ('A' for Active; 'I' for Inactive)
REMARK    1  A    between atoms: C_1  and  C_2
REMARK    2  A    between atoms: C_2  and  S_3
REMARK    3  A    between atoms: S_3  and  C_6
REMARK    4  A    between atoms: C_9  and  N_21
REMARK    5  A    between atoms: C_10  and  C_12
REMARK    6  A    between atoms: N_14  and  C_15
REMARK    7  A    between atoms: N_21  and  C_22
REMARK    8  A    between atoms: N_21  and  C_30
REMARK    9  A    between atoms: C_22  and  C_23
REMARK   10  A    between atoms: C_26  and  C_29
REMARK   11  A    between atoms: C_30  and  C_31
REMARK                            x       y       z     vdW  Elec       q    Type
REMARK                         _______ _______ _______ _____ _____    ______ ____
ROOT
ATOM      1  C   UNL     1       7.321  -2.600  -0.601  0.00  0.00    +0.271 A 
ATOM      2  N   UNL     1       8.473  -1.955  -0.588  0.00  0.00    -0.218 NA
ATOM      3  C   UNL     1       8.518  -0.639  -0.508  0.00  0.00    +0.140 A 
ATOM      4  C   UNL     1       7.319   0.077  -0.436  0.00  0.00    +0.080 A 
ATOM      5  C   UNL     1       6.117  -0.645  -0.452  0.00  0.00    +0.152 A 
ATOM      6  N   UNL     1       6.168  -1.974  -0.530  0.00  0.00    -0.205 NA
ENDROOT
BRANCH   5   7
ATOM      7  C   UNL     1       4.816   0.056  -0.378  0.00  0.00    +0.269 C 
ATOM      8  O   UNL     1       4.782   1.268  -0.302  0.00  0.00    -0.268 OA
ATOM      9  N   UNL     1       3.668  -0.651  -0.395  0.00  0.00    -0.280 N 
ATOM     10  H   UNL     1       3.695  -1.620  -0.380  0.00  0.00    +0.155 HD
BRANCH   9  11
ATOM     11  C   UNL     1       2.438   0.014  -0.433  0.00  0.00    +0.034 A 
ATOM     12  C   UNL     1       1.334  -0.528   0.212  0.00  0.00    +0.023 A 
ATOM     13  C   UNL     1       0.121   0.131   0.172  0.00  0.00    +0.002 A 
ATOM     14  C   UNL     1       0.005   1.329  -0.510  0.00  0.00    +0.000 A 
ATOM     15  C   UNL     1       1.103   1.871  -1.153  0.00  0.00    +0.002 A 
ATOM     16  C   UNL     1       2.318   1.217  -1.117  0.00  0.00    +0.023 A 
ENDBRANCH   9  11
ENDBRANCH   5   7
BRANCH   1  17
ATOM     17  S   UNL     1       7.331  -4.359  -0.710  0.00  0.00    +0.032 S 
ATOM     18  O   UNL     1       6.084  -4.692  -1.305  0.00  0.00    -0.166 OA
ATOM     19  O   UNL     1       8.553  -4.676  -1.362  0.00  0.00    -0.166 OA
BRANCH  17  21
ATOM     20  C   UNL     1       7.385  -6.462   1.039  0.00  0.00    +0.028 C 
ATOM     21  C   UNL     1       7.374  -4.932   1.011  0.00  0.00    +0.172 C 
ENDBRANCH  17  21
ENDBRANCH   1  17
BRANCH   4  22
ATOM     22  N   UNL     1       7.319   1.464  -0.351  0.00  0.00    -0.315 N 
BRANCH  22  23
ATOM     23  C   UNL     1       8.032   1.917   0.850  0.00  0.00    +0.140 C 
BRANCH  23  24
ATOM     24  C   UNL     1       7.254   1.518   2.077  0.00  0.00    -0.030 A 
ATOM     25  C   UNL     1       6.229   2.323   2.538  0.00  0.00    +0.005 A 
ATOM     26  C   UNL     1       5.512   1.955   3.660  0.00  0.00    +0.003 A 
ATOM     27  C   UNL     1       5.826   0.786   4.329  0.00  0.00    -0.050 A 
ATOM     28  C   UNL     1       6.854  -0.016   3.871  0.00  0.00    +0.003 A 
ATOM     29  C   UNL     1       7.569   0.350   2.746  0.00  0.00    +0.005 A 
ATOM     30  C   UNL     1       5.048   0.387   5.556  0.00  0.00    +0.044 C 
ENDBRANCH  23  24
ENDBRANCH  22  23
BRANCH  22  31
ATOM     31  C   UNL     1       7.893   2.065  -1.562  0.00  0.00    +0.179 C 
BRANCH  31  32
ATOM     32  C   UNL     1       7.535   3.528  -1.615  0.00  0.00    +0.122 A 
ATOM     33  C   UNL     1       8.306   4.542  -1.184  0.00  0.00    +0.046 A 
ATOM     34  C   UNL     1       7.585   5.735  -1.423  0.00  0.00    +0.041 A 
ATOM     35  C   UNL     1       6.417   5.378  -1.985  0.00  0.00    +0.195 A 
ATOM     36  O   UNL     1       6.394   4.040  -2.104  0.00  0.00    -0.466 OA
ENDBRANCH  31  32
ENDBRANCH  22  31
ENDBRANCH   4  22
TORSDOF 9
