REMARK  Name = ZINC10785802
REMARK  7 active torsions:
REMARK  status: ('A' for Active; 'I' for Inactive)
REMARK    1  A    between atoms: C_1  and  C_2
REMARK    2  A    between atoms: C_3  and  C_28
REMARK    3  A    between atoms: C_5  and  N_10
REMARK    4  A    between atoms: C_6  and  C_7
REMARK    5  A    between atoms: C_11  and  C_13
REMARK    6  A    between atoms: N_19  and  S_20
REMARK    7  A    between atoms: S_20  and  C_23
REMARK                            x       y       z     vdW  Elec       q    Type
REMARK                         _______ _______ _______ _____ _____    ______ ____
ROOT
ATOM      1  N   UNL     1      -0.619  -3.391   1.774  0.00  0.00    -0.278 N 
ATOM      2  C   UNL     1       0.243  -4.427   1.778  0.00  0.00    +0.236 C 
ATOM      3  O   UNL     1       1.063  -4.537   0.891  0.00  0.00    -0.274 OA
ATOM      4  H   UNL     1      -1.275  -3.304   2.483  0.00  0.00    +0.155 HD
ENDROOT
BRANCH   1   9
ATOM      5  C   UNL     1      -1.890   0.731  -0.875  0.00  0.00    +0.045 C 
ATOM      6  C   UNL     1      -1.091  -0.512  -0.581  0.00  0.00    -0.027 A 
ATOM      7  C   UNL     1      -0.097  -0.915  -1.393  0.00  0.00    -0.008 A 
ATOM      8  S   UNL     1       0.501  -2.395  -0.605  0.00  0.00    -0.078 S 
ATOM      9  C   UNL     1      -0.569  -2.451   0.755  0.00  0.00    +0.084 A 
ATOM     10  C   UNL     1      -1.365  -1.325   0.580  0.00  0.00    +0.068 A 
ATOM     11  C   UNL     1       0.394  -0.267  -2.662  0.00  0.00    +0.052 C 
BRANCH  10  12
ATOM     12  C   UNL     1      -2.429  -0.981   1.527  0.00  0.00    +0.244 C 
ATOM     13  O   UNL     1      -3.556  -1.409   1.358  0.00  0.00    -0.270 OA
ATOM     14  N   UNL     1      -2.160  -0.189   2.584  0.00  0.00    -0.325 N 
ATOM     15  H   UNL     1      -1.263   0.152   2.718  0.00  0.00    +0.145 HD
ATOM     16  H   UNL     1      -2.865   0.039   3.211  0.00  0.00    +0.145 HD
ENDBRANCH  10  12
ENDBRANCH   1   9
BRANCH   2  17
ATOM     17  C   UNL     1       0.188  -5.449   2.884  0.00  0.00    +0.166 C 
ATOM     18  C   UNL     1       1.500  -5.422   3.674  0.00  0.00    +0.030 C 
ATOM     19  C   UNL     1       1.494  -6.553   4.705  0.00  0.00    +0.003 C 
ATOM     20  C   UNL     1       1.391  -7.900   3.986  0.00  0.00    +0.017 C 
ATOM     21  C   UNL     1       0.077  -7.955   3.200  0.00  0.00    +0.110 C 
ATOM     22  N   UNL     1       0.010  -6.789   2.308  0.00  0.00    -0.164 NA
BRANCH  22  23
ATOM     23  S   UNL     1      -0.261  -6.981   0.686  0.00  0.00    +0.068 S 
ATOM     24  O   UNL     1      -0.946  -8.217   0.532  0.00  0.00    -0.152 OA
ATOM     25  O   UNL     1      -0.793  -5.751   0.215  0.00  0.00    -0.152 OA
BRANCH  23  26
ATOM     26  C   UNL     1       1.312  -7.178  -0.085  0.00  0.00    +0.143 A 
ATOM     27  C   UNL     1       2.011  -8.315  -0.319  0.00  0.00    +0.036 A 
ATOM     28  C   UNL     1       3.238  -8.230  -0.950  0.00  0.00    +0.010 A 
ATOM     29  C   UNL     1       3.710  -7.010  -1.306  0.00  0.00    +0.047 A 
ATOM     30  S   UNL     1       2.400  -5.931  -0.753  0.00  0.00    -0.077 S 
ENDBRANCH  23  26
ENDBRANCH  22  23
ENDBRANCH   2  17
TORSDOF 5
