REMARK  Name = ZINC49046988
REMARK  5 active torsions:
REMARK  status: ('A' for Active; 'I' for Inactive)
REMARK    1  A    between atoms: C_3  and  C_19
REMARK    2  A    between atoms: C_5  and  N_7
REMARK    3  A    between atoms: N_10  and  C_11
REMARK    4  A    between atoms: N_28  and  C_29
REMARK    5  A    between atoms: C_29  and  C_30
REMARK                            x       y       z     vdW  Elec       q    Type
REMARK                         _______ _______ _______ _____ _____    ______ ____
ROOT
ATOM      1  C   UNL     1       0.293   1.466  -0.241  0.00  0.00    +0.002 A 
ATOM      2  C   UNL     1       1.483   2.080  -0.576  0.00  0.00    +0.010 A 
ATOM      3  C   UNL     1       2.631   1.315  -0.774  0.00  0.00    +0.004 A 
ATOM      4  C   UNL     1       2.574  -0.069  -0.633  0.00  0.00    +0.033 A 
ATOM      5  C   UNL     1       1.375  -0.678  -0.296  0.00  0.00    +0.035 A 
ATOM      6  C   UNL     1       0.235   0.092  -0.101  0.00  0.00    +0.023 A 
ENDROOT
BRANCH   3   7
ATOM      7  C   UNL     1       3.910   1.974  -1.136  0.00  0.00    +0.090 A 
ATOM      8  C   UNL     1       3.953   3.326  -1.265  0.00  0.00    +0.121 A 
ATOM      9  N   UNL     1       5.129   3.941  -1.598  0.00  0.00    -0.302 N 
ATOM     10  C   UNL     1       5.484   5.240  -1.797  0.00  0.00    +0.112 A 
ATOM     11  C   UNL     1       6.802   5.249  -2.110  0.00  0.00    +0.131 A 
ATOM     12  N   UNL     1       7.248   3.992  -2.104  0.00  0.00    -0.233 NA
ATOM     13  C   UNL     1       6.253   3.180  -1.796  0.00  0.00    +0.178 A 
ATOM     14  C   UNL     1       6.161   1.772  -1.650  0.00  0.00    +0.163 A 
ATOM     15  N   UNL     1       5.010   1.223  -1.324  0.00  0.00    -0.227 NA
ATOM     16  N   UNL     1       7.280   0.978  -1.845  0.00  0.00    -0.322 N 
ATOM     17  H   UNL     1       8.129   1.385  -2.081  0.00  0.00    +0.148 HD
BRANCH  16  18
ATOM     18  C   UNL     1       7.182  -0.476  -1.693  0.00  0.00    +0.138 C 
BRANCH  18  19
ATOM     19  C   UNL     1       8.528  -1.101  -1.956  0.00  0.00    -0.028 A 
ATOM     20  C   UNL     1       8.892  -1.492  -3.236  0.00  0.00    +0.025 A 
ATOM     21  C   UNL     1      10.134  -2.061  -3.439  0.00  0.00    +0.111 A 
ATOM     22  N   UNL     1      10.970  -2.234  -2.433  0.00  0.00    -0.263 NA
ATOM     23  C   UNL     1      10.658  -1.874  -1.203  0.00  0.00    +0.111 A 
ATOM     24  C   UNL     1       9.435  -1.293  -0.925  0.00  0.00    +0.025 A 
ENDBRANCH  18  19
ENDBRANCH  16  18
ENDBRANCH   3   7
BRANCH   5  25
ATOM     25  N   UNL     1       1.312  -2.069  -0.153  0.00  0.00    -0.269 N 
ATOM     26  C   UNL     1       2.377  -2.747   0.319  0.00  0.00    +0.308 C 
ATOM     27  O   UNL     1       3.358  -2.143   0.709  0.00  0.00    -0.252 OA
ATOM     28  N   UNL     1       2.356  -4.094   0.358  0.00  0.00    -0.269 N 
ATOM     29  H   UNL     1       0.502  -2.546  -0.394  0.00  0.00    +0.156 HD
ATOM     30  H   UNL     1       1.606  -4.578  -0.022  0.00  0.00    +0.156 HD
BRANCH  28  31
ATOM     31  C   UNL     1       3.415  -4.794   0.947  0.00  0.00    +0.038 A 
ATOM     32  C   UNL     1       4.091  -4.249   2.030  0.00  0.00    +0.043 A 
ATOM     33  C   UNL     1       5.137  -4.942   2.610  0.00  0.00    +0.044 A 
ATOM     34  C   UNL     1       5.510  -6.178   2.111  0.00  0.00    +0.040 A 
ATOM     35  C   UNL     1       4.838  -6.723   1.032  0.00  0.00    +0.044 A 
ATOM     36  C   UNL     1       3.787  -6.037   0.453  0.00  0.00    +0.043 A 
ATOM     37 CL   UNL     1       5.309  -8.274   0.409  0.00  0.00    -0.083 Cl
ATOM     38 CL   UNL     1       5.984  -4.262   3.964  0.00  0.00    -0.083 Cl
ENDBRANCH  28  31
ENDBRANCH   5  25
TORSDOF 5
