REMARK  Name = ZINC41058287
REMARK  5 active torsions:
REMARK  status: ('A' for Active; 'I' for Inactive)
REMARK    1  A    between atoms: C_10  and  O_11
REMARK    2  A    between atoms: O_11  and  C_12
REMARK    3  A    between atoms: C_12  and  C_13
REMARK    4  A    between atoms: C_13  and  N_14
REMARK    5  A    between atoms: C_22  and  C_23
REMARK                            x       y       z     vdW  Elec       q    Type
REMARK                         _______ _______ _______ _____ _____    ______ ____
ROOT
ATOM      1  C   UNL     1       6.047  -0.680  -0.059  0.00  0.00    +0.250 C 
ENDROOT
BRANCH   1   2
ATOM      2  O   UNL     1       4.837   0.080  -0.043  0.00  0.00    -0.490 OA
BRANCH   2  12
ATOM      3  C   UNL     1      -0.016   1.357   0.009  0.00  0.00    +0.001 A 
ATOM      4  C   UNL     1       1.169   2.090   0.002  0.00  0.00    +0.001 A 
ATOM      5  C   UNL     1       2.379   1.467  -0.013  0.00  0.00    +0.012 A 
ATOM      6  C   UNL     1       2.437   0.064  -0.021  0.00  0.00    +0.024 A 
ATOM      7  C   UNL     1       1.233  -0.683  -0.013  0.00  0.00    -0.014 A 
ATOM      8  C   UNL     1       0.002  -0.004   0.002  0.00  0.00    +0.008 A 
ATOM      9  C   UNL     1       1.292  -2.087  -0.021  0.00  0.00    +0.009 A 
ATOM     10  C   UNL     1       2.501  -2.713  -0.035  0.00  0.00    +0.004 A 
ATOM     11  C   UNL     1       3.687  -1.984  -0.043  0.00  0.00    +0.046 A 
ATOM     12  C   UNL     1       3.671  -0.617  -0.036  0.00  0.00    +0.128 A 
ENDBRANCH   2  12
ENDBRANCH   1   2
BRANCH   1  13
ATOM     13  C   UNL     1       7.246   0.271  -0.066  0.00  0.00    +0.165 C 
BRANCH  13  14
ATOM     14  N   UNL     1       8.487  -0.508  -0.081  0.00  0.00    -0.318 N 
ATOM     15  C   UNL     1       9.187  -0.953   1.016  0.00  0.00    +0.069 A 
ATOM     16  C   UNL     1       9.001  -0.843   2.389  0.00  0.00    +0.028 A 
ATOM     17  C   UNL     1       9.910  -1.419   3.249  0.00  0.00    +0.002 A 
ATOM     18  C   UNL     1      11.012  -2.107   2.755  0.00  0.00    +0.002 A 
ATOM     19  C   UNL     1      11.214  -2.228   1.412  0.00  0.00    +0.030 A 
ATOM     20  C   UNL     1      10.303  -1.652   0.514  0.00  0.00    +0.090 A 
ATOM     21  N   UNL     1      10.236  -1.603  -0.827  0.00  0.00    -0.225 NA
ATOM     22  C   UNL     1       9.167  -0.937  -1.193  0.00  0.00    +0.174 A 
BRANCH  22  23
ATOM     23  C   UNL     1       8.760  -0.686  -2.585  0.00  0.00    +0.297 C 
ATOM     24  O   UNL     1       9.434  -1.110  -3.499  0.00  0.00    -0.292 OA
ENDBRANCH  22  23
ENDBRANCH  13  14
ENDBRANCH   1  13
TORSDOF 5
