REMARK  Name = ZINC50910903
REMARK  4 active torsions:
REMARK  status: ('A' for Active; 'I' for Inactive)
REMARK    1  A    between atoms: N_8  and  C_10
REMARK    2  A    between atoms: C_13  and  S_17
REMARK    3  A    between atoms: C_15  and  N_16
REMARK    4  A    between atoms: S_17  and  N_20
REMARK                            x       y       z     vdW  Elec       q    Type
REMARK                         _______ _______ _______ _____ _____    ______ ____
ROOT
ATOM      1  C   UNL     1       3.694  -3.510  -0.050  0.00  0.00    +0.051 A 
ATOM      2  C   UNL     1       4.043  -4.098  -1.256  0.00  0.00    +0.027 A 
ATOM      3  C   UNL     1       4.750  -5.286  -1.267  0.00  0.00    +0.030 A 
ATOM      4  C   UNL     1       5.111  -5.891  -0.077  0.00  0.00    +0.107 A 
ATOM      5  C   UNL     1       4.767  -5.311   1.130  0.00  0.00    +0.053 A 
ATOM      6  C   UNL     1       4.062  -4.117   1.150  0.00  0.00    +0.048 A 
ENDROOT
BRANCH   1  14
ATOM      7  C   UNL     1      -0.017   1.377   0.010  0.00  0.00    +0.000 A 
ATOM      8  C   UNL     1       1.172   2.084   0.002  0.00  0.00    +0.000 A 
ATOM      9  C   UNL     1       2.376   1.408  -0.013  0.00  0.00    +0.005 A 
ATOM     10  C   UNL     1       2.396   0.024  -0.021  0.00  0.00    -0.026 A 
ATOM     11  C   UNL     1       1.209  -0.682  -0.013  0.00  0.00    -0.026 A 
ATOM     12  C   UNL     1       0.002  -0.004   0.002  0.00  0.00    +0.005 A 
ATOM     13  C   UNL     1       1.519  -2.158  -0.023  0.00  0.00    +0.141 C 
ATOM     14  N   UNL     1       2.978  -2.306  -0.037  0.00  0.00    -0.320 N 
ATOM     15  C   UNL     1       3.544  -0.953  -0.036  0.00  0.00    +0.141 C 
ENDBRANCH   1  14
BRANCH   6  16
ATOM     16  N   UNL     1       3.717  -3.525   2.371  0.00  0.00    -0.356 N 
ATOM     17  H   UNL     1       3.221  -2.692   2.383  0.00  0.00    +0.142 HD
ATOM     18  H   UNL     1       3.974  -3.949   3.205  0.00  0.00    +0.142 HD
ENDBRANCH   6  16
BRANCH   4  19
ATOM     19  S   UNL     1       6.012  -7.405  -0.099  0.00  0.00    +0.056 S 
ATOM     20  O   UNL     1       5.755  -8.049   1.141  0.00  0.00    -0.153 OA
ATOM     21  O   UNL     1       5.737  -8.023  -1.349  0.00  0.00    -0.153 OA
BRANCH  19  22
ATOM     22  N   UNL     1       7.622  -7.017  -0.107  0.00  0.00    -0.204 NA
ATOM     23  H   UNL     1       7.896  -6.087  -0.099  0.00  0.00    +0.144 HD
ATOM     24  H   UNL     1       8.290  -7.720  -0.119  0.00  0.00    +0.144 HD
ENDBRANCH  19  22
ENDBRANCH   4  19
TORSDOF 4
