REMARK  Name = ZINC48743385
REMARK  9 active torsions:
REMARK  status: ('A' for Active; 'I' for Inactive)
REMARK    1  A    between atoms: C_1  and  N_2
REMARK    2  A    between atoms: N_2  and  C_3
REMARK    3  A    between atoms: N_2  and  C_4
REMARK    4  A    between atoms: C_4  and  C_6
REMARK    5  A    between atoms: C_4  and  C_23
REMARK    6  A    between atoms: C_6  and  N_7
REMARK    7  A    between atoms: C_8  and  C_10
REMARK    8  A    between atoms: N_12  and  C_13
REMARK    9  A    between atoms: C_17  and  C_19
REMARK                            x       y       z     vdW  Elec       q    Type
REMARK                         _______ _______ _______ _____ _____    ______ ____
ROOT
ATOM      1  C   UNL     1       0.783  -4.723   2.016  0.00  0.00    +0.303 C 
ATOM      2  O   UNL     1       1.285  -3.990   2.843  0.00  0.00    -0.265 OA
ATOM      3  N   UNL     1       0.989  -6.053   2.081  0.00  0.00    -0.278 N 
ATOM      4  H   UNL     1       0.658  -6.630   1.375  0.00  0.00    +0.155 HD
ENDROOT
BRANCH   3   5
ATOM      5  C   UNL     1       1.679  -6.602   3.166  0.00  0.00    +0.035 A 
ATOM      6  C   UNL     1       1.536  -6.046   4.433  0.00  0.00    +0.025 A 
ATOM      7  C   UNL     1       2.215  -6.584   5.509  0.00  0.00    +0.022 A 
ATOM      8  C   UNL     1       3.041  -7.678   5.334  0.00  0.00    +0.053 A 
ATOM      9  C   UNL     1       3.191  -8.243   4.065  0.00  0.00    +0.057 A 
ATOM     10  C   UNL     1       2.500  -7.703   2.980  0.00  0.00    +0.037 A 
ATOM     11 CL   UNL     1       3.893  -8.348   6.690  0.00  0.00    -0.083 Cl
BRANCH   9  12
ATOM     12  C   UNL     1       4.074  -9.413   3.874  0.00  0.00    +0.243 C 
ATOM     13  O   UNL     1       4.671  -9.884   4.822  0.00  0.00    -0.270 OA
ATOM     14  N   UNL     1       4.216  -9.956   2.649  0.00  0.00    -0.325 N 
ATOM     15  H   UNL     1       3.740  -9.580   1.893  0.00  0.00    +0.145 HD
ATOM     16  H   UNL     1       4.796 -10.724   2.524  0.00  0.00    +0.145 HD
ENDBRANCH   9  12
ENDBRANCH   3   5
BRANCH   1  18
ATOM     17  N   UNL     1      -0.269  -2.820   0.862  0.00  0.00    -0.309 N 
ATOM     18  C   UNL     1      -0.063  -4.150   0.926  0.00  0.00    +0.299 C 
ATOM     19  O   UNL     1      -0.565  -4.883   0.099  0.00  0.00    -0.265 OA
ATOM     20  H   UNL     1       0.133  -2.234   1.523  0.00  0.00    +0.149 HD
BRANCH  17  21
ATOM     21  C   UNL     1      -1.098  -2.258  -0.207  0.00  0.00    +0.094 C 
BRANCH  21  22
ATOM     22  C   UNL     1      -1.273  -0.755   0.019  0.00  0.00    -0.014 C 
BRANCH  22  23
ATOM     23  C   UNL     1      -1.969  -0.524   1.336  0.00  0.00    -0.022 A 
ATOM     24  C   UNL     1      -1.438  -0.172   2.532  0.00  0.00    +0.009 A 
ATOM     25  C   UNL     1      -2.278  -0.012   3.618  0.00  0.00    +0.008 A 
ATOM     26  C   UNL     1      -3.608  -0.212   3.455  0.00  0.00    +0.045 A 
ATOM     27  S   UNL     1      -3.708  -0.634   1.723  0.00  0.00    -0.103 S 
ENDBRANCH  22  23
BRANCH  22  29
ATOM     28  C   UNL     1      -2.162   1.271  -0.907  0.00  0.00    -0.096 C 
ATOM     29  N   UNL     1      -2.081  -0.187  -1.068  0.00  0.00    +0.382 N 
ATOM     30  C   UNL     1      -1.455  -0.503  -2.359  0.00  0.00    -0.096 C 
ATOM     31  H   UNL     1      -3.009  -0.581  -1.039  0.00  0.00    -0.082 HD
ENDBRANCH  22  29
ENDBRANCH  21  22
ENDBRANCH  17  21
ENDBRANCH   1  18
TORSDOF 7
