REMARK  Name = ZINC35069357
REMARK  13 active torsions:
REMARK  status: ('A' for Active; 'I' for Inactive)
REMARK    1  A    between atoms: C_1  and  C_2
REMARK    2  A    between atoms: C_2  and  C_3
REMARK    3  A    between atoms: C_3  and  C_4
REMARK    4  A    between atoms: N_6  and  C_7
REMARK    5  A    between atoms: N_6  and  C_12
REMARK    6  A    between atoms: C_7  and  C_8
REMARK    7  A    between atoms: C_8  and  N_9
REMARK    8  A    between atoms: N_9  and  C_10
REMARK    9  A    between atoms: N_9  and  C_11
REMARK   10  A    between atoms: C_12  and  C_14
REMARK   11  A    between atoms: C_12  and  C_16
REMARK   12  A    between atoms: C_14  and  C_15
REMARK   13  A    between atoms: N_26  and  C_27
REMARK                            x       y       z     vdW  Elec       q    Type
REMARK                         _______ _______ _______ _____ _____    ______ ____
ROOT
ATOM      1  C   UNL     1       0.594  -1.421   4.182  0.00  0.00    +0.138 A 
ATOM      2  N   UNL     1       0.072  -0.239   4.062  0.00  0.00    -0.231 NA
ATOM      3  C   UNL     1      -0.942   0.176   4.862  0.00  0.00    +0.078 A 
ATOM      4  C   UNL     1      -1.504   1.448   4.734  0.00  0.00    +0.028 A 
ATOM      5  C   UNL     1      -2.531   1.827   5.568  0.00  0.00    +0.002 A 
ATOM      6  C   UNL     1      -3.017   0.961   6.538  0.00  0.00    +0.001 A 
ATOM      7  C   UNL     1      -2.479  -0.299   6.685  0.00  0.00    +0.015 A 
ATOM      8  C   UNL     1      -1.438  -0.703   5.850  0.00  0.00    +0.065 A 
ATOM      9  C   UNL     1      -0.826  -2.035   5.960  0.00  0.00    +0.266 A 
ATOM     10  O   UNL     1      -1.208  -2.840   6.790  0.00  0.00    -0.267 OA
ATOM     11  N   UNL     1       0.175  -2.334   5.100  0.00  0.00    -0.263 N 
ENDROOT
BRANCH  11  12
ATOM     12  C   UNL     1       0.789  -3.591   5.159  0.00  0.00    +0.051 A 
ATOM     13  C   UNL     1       2.100  -3.705   5.604  0.00  0.00    +0.027 A 
ATOM     14  C   UNL     1       2.703  -4.946   5.661  0.00  0.00    +0.017 A 
ATOM     15  C   UNL     1       2.003  -6.075   5.276  0.00  0.00    +0.018 A 
ATOM     16  C   UNL     1       0.697  -5.965   4.832  0.00  0.00    +0.017 A 
ATOM     17  C   UNL     1       0.087  -4.727   4.779  0.00  0.00    +0.027 A 
ATOM     18 BR   UNL     1       2.833  -7.773   5.356  0.00  0.00    -0.050 Br
ENDBRANCH  11  12
BRANCH   1  19
ATOM     19  C   UNL     1       1.716  -1.806   3.252  0.00  0.00    +0.142 C 
BRANCH  19  22
ATOM     20  C   UNL     1       0.131  -2.705   1.635  0.00  0.00    +0.216 C 
ATOM     21  O   UNL     1      -0.295  -3.618   0.960  0.00  0.00    -0.276 OA
ATOM     22  N   UNL     1       1.262  -2.867   2.350  0.00  0.00    -0.293 N 
BRANCH  20  23
ATOM     23  C   UNL     1      -0.604  -1.390   1.674  0.00  0.00    +0.096 C 
BRANCH  23  25
ATOM     24  C   UNL     1      -2.616  -0.152   0.860  0.00  0.00    +0.004 C 
ATOM     25  C   UNL     1      -1.870  -1.488   0.821  0.00  0.00    +0.006 C 
ENDBRANCH  23  25
ENDBRANCH  20  23
BRANCH  22  26
ATOM     26  C   UNL     1       2.037  -4.104   2.226  0.00  0.00    +0.090 C 
BRANCH  26  27
ATOM     27  C   UNL     1       3.070  -3.948   1.108  0.00  0.00    -0.060 C 
BRANCH  27  28
ATOM     28  N   UNL     1       3.847  -5.189   0.983  0.00  0.00    +0.377 N 
ATOM     29  C   UNL     1       2.963  -6.278   0.547  0.00  0.00    -0.097 C 
ATOM     30  C   UNL     1       4.916  -4.999  -0.006  0.00  0.00    -0.097 C 
ATOM     31  H   UNL     1       4.253  -5.423   1.877  0.00  0.00    -0.083 HD
ENDBRANCH  27  28
ENDBRANCH  26  27
ENDBRANCH  22  26
ENDBRANCH  19  22
BRANCH  19  32
ATOM     32  C   UNL     1       2.139  -0.585   2.432  0.00  0.00    +0.027 C 
ATOM     33  C   UNL     1       2.723   0.478   3.364  0.00  0.00    +0.006 C 
ENDBRANCH  19  32
ENDBRANCH   1  19
TORSDOF 9
