REMARK  Name = ZINC39676536
REMARK  8 active torsions:
REMARK  status: ('A' for Active; 'I' for Inactive)
REMARK    1  A    between atoms: C_1  and  O_2
REMARK    2  A    between atoms: O_2  and  C_3
REMARK    3  A    between atoms: C_3  and  C_4
REMARK    4  A    between atoms: C_4  and  C_5
REMARK    5  A    between atoms: C_9  and  C_18
REMARK    6  A    between atoms: N_20  and  C_21
REMARK    7  A    between atoms: C_21  and  C_22
REMARK    8  A    between atoms: C_22  and  C_23
REMARK                            x       y       z     vdW  Elec       q    Type
REMARK                         _______ _______ _______ _____ _____    ______ ____
ROOT
ATOM      1  C   UNL     1       1.391  -2.750   2.347  0.00  0.00    +0.218 C 
ATOM      2  O   UNL     1       1.936  -2.059   3.182  0.00  0.00    -0.276 OA
ATOM      3  N   UNL     1       1.493  -4.092   2.411  0.00  0.00    -0.300 N 
ATOM      4  C   UNL     1       0.908  -5.093   1.488  0.00  0.00    +0.121 C 
ATOM      5  C   UNL     1       2.001  -6.175   1.342  0.00  0.00    +0.100 C 
ATOM      6  C   UNL     1       2.854  -6.045   2.615  0.00  0.00    -0.004 C 
ATOM      7  C   UNL     1       2.220  -4.901   3.419  0.00  0.00    +0.115 C 
ATOM      8  C   UNL     1       4.294  -5.694   2.254  0.00  0.00    -0.010 C 
ATOM      9  C   UNL     1       5.134  -5.626   3.532  0.00  0.00    -0.082 C 
ATOM     10  N   UNL     1       5.084  -6.921   4.221  0.00  0.00    +0.379 N 
ATOM     11  C   UNL     1       3.709  -7.209   4.648  0.00  0.00    -0.082 C 
ATOM     12  C   UNL     1       2.808  -7.343   3.417  0.00  0.00    -0.010 C 
ATOM     13  H   UNL     1       5.399  -7.647   3.595  0.00  0.00    -0.086 HD
ATOM     14  H   UNL     1       5.687  -6.894   5.030  0.00  0.00    -0.086 HD
ENDROOT
BRANCH   5  15
ATOM     15  C   UNL     1       1.377  -7.544   1.263  0.00  0.00    +0.218 C 
ATOM     16  O   UNL     1       0.332  -7.768   1.837  0.00  0.00    -0.275 OA
ATOM     17  N   UNL     1       1.979  -8.520   0.555  0.00  0.00    -0.315 N 
ATOM     18  H   UNL     1       2.815  -8.341   0.096  0.00  0.00    +0.149 HD
BRANCH  17  19
ATOM     19  C   UNL     1       1.372  -9.851   0.478  0.00  0.00    +0.109 C 
BRANCH  19  20
ATOM     20  C   UNL     1       2.251 -10.763  -0.381  0.00  0.00    +0.056 C 
BRANCH  20  21
ATOM     21  C   UNL     1       1.626 -12.133  -0.460  0.00  0.00    -0.021 A 
ATOM     22  C   UNL     1       0.592 -12.565  -1.403  0.00  0.00    +0.004 A 
ATOM     23  C   UNL     1      -0.099 -11.936  -2.441  0.00  0.00    +0.030 A 
ATOM     24  C   UNL     1      -1.038 -12.642  -3.160  0.00  0.00    +0.042 A 
ATOM     25  C   UNL     1      -1.300 -13.972  -2.857  0.00  0.00    +0.022 A 
ATOM     26  C   UNL     1      -0.626 -14.606  -1.836  0.00  0.00    +0.027 A 
ATOM     27  C   UNL     1       0.327 -13.913  -1.098  0.00  0.00    +0.047 A 
ATOM     28  N   UNL     1       1.145 -14.259  -0.045  0.00  0.00    -0.360 N 
ATOM     29  C   UNL     1       1.916 -13.188   0.317  0.00  0.00    +0.087 A 
ATOM     30 CL   UNL     1      -1.900 -11.865  -4.451  0.00  0.00    -0.084 Cl
ATOM     31  H   UNL     1       1.174 -15.134   0.374  0.00  0.00    +0.165 HD
ENDBRANCH  20  21
ENDBRANCH  19  20
ENDBRANCH  17  19
ENDBRANCH   5  15
BRANCH   1  32
ATOM     32  C   UNL     1       0.601  -2.106   1.237  0.00  0.00    +0.124 C 
BRANCH  32  33
ATOM     33  C   UNL     1       0.645  -0.585   1.395  0.00  0.00    +0.168 C 
BRANCH  33  35
ATOM     34  C   UNL     1      -0.127   1.453   0.397  0.00  0.00    +0.194 C 
ATOM     35  O   UNL     1      -0.104   0.025   0.342  0.00  0.00    -0.382 OA
ENDBRANCH  33  35
ENDBRANCH  32  33
ENDBRANCH   1  32
TORSDOF 7
