REMARK  Name = ZINC20906210
REMARK  7 active torsions:
REMARK  status: ('A' for Active; 'I' for Inactive)
REMARK    1  A    between atoms: C_5  and  N_7
REMARK    2  A    between atoms: C_8  and  C_10
REMARK    3  A    between atoms: C_10  and  S_11
REMARK    4  A    between atoms: S_11  and  C_12
REMARK    5  A    between atoms: N_17  and  N_18
REMARK    6  A    between atoms: C_19  and  C_20
REMARK    7  A    between atoms: C_24  and  O_26
REMARK                            x       y       z     vdW  Elec       q    Type
REMARK                         _______ _______ _______ _____ _____    ______ ____
ROOT
ATOM      1  C   UNL     1      -3.952   9.649   0.052  0.00  0.00    +0.211 A 
ATOM      2  N   UNL     1      -2.612   9.388   0.029  0.00  0.00    -0.186 NA
ATOM      3  C   UNL     1      -2.446   8.031   0.012  0.00  0.00    +0.232 A 
ATOM      4  N   UNL     1      -3.635   7.477   0.018  0.00  0.00    -0.245 N 
ATOM      5  N   UNL     1      -4.589   8.502   0.049  0.00  0.00    -0.144 NA
ATOM      6  N   UNL     1      -1.233   7.357  -0.013  0.00  0.00    -0.205 N 
ATOM      7  H   UNL     1      -0.290   7.924  -0.020  0.00  0.00    +0.177 HD
ATOM      8  H   UNL     1      -3.731   6.382  -0.001  0.00  0.00    +0.192 HD
ENDROOT
BRANCH   6   9
ATOM      9  N   UNL     1      -1.210   5.957  -0.028  0.00  0.00    -0.188 NA
ATOM     10  C   UNL     1      -0.074   5.327  -0.052  0.00  0.00    +0.138 C 
BRANCH  10  11
ATOM     11  C   UNL     1      -0.049   3.853  -0.068  0.00  0.00    -0.002 A 
ATOM     12  C   UNL     1      -1.246   3.131  -0.059  0.00  0.00    +0.010 A 
ATOM     13  C   UNL     1      -1.218   1.752  -0.081  0.00  0.00    +0.004 A 
ATOM     14  C   UNL     1      -0.010   1.080  -0.100  0.00  0.00    +0.045 A 
ATOM     15  C   UNL     1       1.185   1.788  -0.109  0.00  0.00    +0.117 A 
ATOM     16  C   UNL     1       1.170   3.172  -0.093  0.00  0.00    +0.054 A 
BRANCH  15  17
ATOM     17  O   UNL     1       2.369   1.122  -0.133  0.00  0.00    -0.507 OA
ATOM     18  H   UNL     1       3.315   1.683  -0.140  0.00  0.00    +0.292 HD
ENDBRANCH  15  17
ENDBRANCH  10  11
ENDBRANCH   6   9
BRANCH   1  19
ATOM     19  S   UNL     1      -4.696  11.246   0.081  0.00  0.00    -0.075 S 
BRANCH  19  20
ATOM     20  C   UNL     1      -6.476  10.901   0.102  0.00  0.00    +0.173 C 
BRANCH  20  22
ATOM     21  N   UNL     1      -8.587  12.190   0.147  0.00  0.00    -0.284 N 
ATOM     22  C   UNL     1      -7.240  12.200   0.128  0.00  0.00    +0.228 C 
ATOM     23  O   UNL     1      -6.641  13.255   0.131  0.00  0.00    -0.275 OA
ATOM     24  H   UNL     1      -9.131  11.237   0.070  0.00  0.00    +0.155 HD
BRANCH  21  29
ATOM     25  C   UNL     1      -9.506  15.733  -0.209  0.00  0.00    +0.002 A 
ATOM     26  C   UNL     1     -10.692  15.769   0.502  0.00  0.00    +0.001 A 
ATOM     27  C   UNL     1     -11.181  14.620   1.095  0.00  0.00    +0.017 A 
ATOM     28  C   UNL     1     -10.486  13.431   0.980  0.00  0.00    +0.039 A 
ATOM     29  C   UNL     1      -9.294  13.392   0.266  0.00  0.00    +0.047 A 
ATOM     30  C   UNL     1      -8.804  14.549  -0.324  0.00  0.00    +0.024 A 
ATOM     31 BR   UNL     1     -11.155  11.860   1.792  0.00  0.00    -0.048 Br
ENDBRANCH  21  29
ENDBRANCH  20  22
ENDBRANCH  19  20
ENDBRANCH   1  19
TORSDOF 7
