REMARK  Name = ZINC04501468
REMARK  3 active torsions:
REMARK  status: ('A' for Active; 'I' for Inactive)
REMARK    1  A    between atoms: C_1  and  C_2
REMARK    2  A    between atoms: C_5  and  N_25
REMARK    3  A    between atoms: C_9  and  C_18
REMARK                            x       y       z     vdW  Elec       q    Type
REMARK                         _______ _______ _______ _____ _____    ______ ____
ROOT
ATOM      1  C   UNL     1       2.114  -4.183   1.202  0.00  0.00    +0.045 C 
ATOM      2  C   UNL     1       2.367  -3.095   0.190  0.00  0.00    -0.029 A 
ATOM      3  C   UNL     1       3.388  -3.235  -0.727  0.00  0.00    +0.007 A 
ATOM      4  C   UNL     1       3.619  -2.237  -1.655  0.00  0.00    +0.033 A 
ATOM      5  C   UNL     1       2.832  -1.103  -1.661  0.00  0.00    +0.132 A 
ATOM      6  C   UNL     1       1.803  -0.952  -0.741  0.00  0.00    +0.011 A 
ATOM      7  C   UNL     1       1.568  -1.953   0.186  0.00  0.00    +0.037 A 
ATOM      8  N   UNL     1       0.548  -1.864   1.133  0.00  0.00    -0.336 N 
ATOM      9  C   UNL     1       0.201  -0.477   1.444  0.00  0.00    +0.105 C 
ATOM     10  C   UNL     1      -0.221   0.242   0.161  0.00  0.00    +0.029 C 
ATOM     11  C   UNL     1       0.976   0.310  -0.813  0.00  0.00    +0.051 C 
ATOM     12  C   UNL     1       1.784   1.490  -0.323  0.00  0.00    -0.023 C 
ATOM     13  C   UNL     1       1.039   2.286   0.402  0.00  0.00    -0.030 C 
ATOM     14  C   UNL     1      -0.378   1.753   0.493  0.00  0.00    +0.033 C 
ATOM     15  H   UNL     1      -0.265  -2.383   0.838  0.00  0.00    +0.147 HD
ENDROOT
BRANCH   9  16
ATOM     16  C   UNL     1       1.397   0.219   2.041  0.00  0.00    -0.026 A 
ATOM     17  C   UNL     1       2.665  -0.295   1.843  0.00  0.00    +0.005 A 
ATOM     18  C   UNL     1       3.763   0.345   2.386  0.00  0.00    +0.002 A 
ATOM     19  C   UNL     1       3.592   1.494   3.136  0.00  0.00    +0.020 A 
ATOM     20  C   UNL     1       2.323   2.006   3.339  0.00  0.00    +0.041 A 
ATOM     21  C   UNL     1       1.225   1.367   2.790  0.00  0.00    +0.025 A 
ATOM     22 CL   UNL     1       2.108   3.448   4.281  0.00  0.00    -0.084 Cl
ENDBRANCH   9  16
BRANCH   5  23
ATOM     23  N   UNL     1       3.086  -0.040  -2.658  0.00  0.00    +0.057 N 
ATOM     24  O   UNL     1       3.987  -0.166  -3.467  0.00  0.00    -0.126 OA
ATOM     25  O   UNL     1       2.394   0.963  -2.669  0.00  0.00    -0.126 OA
ENDBRANCH   5  23
TORSDOF 2
