REMARK  Name = ZINC09442021
REMARK  9 active torsions:
REMARK  status: ('A' for Active; 'I' for Inactive)
REMARK    1  A    between atoms: C_1  and  C_2
REMARK    2  A    between atoms: C_2  and  C_25
REMARK    3  A    between atoms: N_5  and  C_9
REMARK    4  A    between atoms: C_9  and  C_10
REMARK    5  A    between atoms: N_12  and  C_13
REMARK    6  A    between atoms: C_13  and  C_14
REMARK    7  A    between atoms: C_14  and  C_15
REMARK    8  A    between atoms: C_18  and  S_21
REMARK    9  A    between atoms: S_21  and  N_24
REMARK                            x       y       z     vdW  Elec       q    Type
REMARK                         _______ _______ _______ _____ _____    ______ ____
ROOT
ATOM      1  C   UNL     1       4.075   0.545  -1.454  0.00  0.00    +0.231 C 
ATOM      2  O   UNL     1       3.280   0.607  -2.368  0.00  0.00    -0.274 OA
ATOM      3  N   UNL     1       5.394   0.451  -1.712  0.00  0.00    -0.314 N 
ATOM      4  H   UNL     1       6.029   0.402  -0.981  0.00  0.00    +0.149 HD
ENDROOT
BRANCH   1   5
ATOM      5  C   UNL     1       3.587   0.574  -0.028  0.00  0.00    +0.213 C 
BRANCH   5  10
ATOM      6  C   UNL     1      -0.721   2.005  -1.239  0.00  0.00    +0.047 C 
ATOM      7  C   UNL     1      -0.018   1.469   0.010  0.00  0.00    +0.135 C 
ATOM      8  C   UNL     1       1.450   1.845  -0.002  0.00  0.00    +0.251 C 
ATOM      9  O   UNL     1       1.920   2.963  -0.001  0.00  0.00    -0.272 OA
ATOM     10  N   UNL     1       2.125   0.679  -0.015  0.00  0.00    -0.215 N 
ATOM     11  C   UNL     1       1.296  -0.371  -0.012  0.00  0.00    +0.310 C 
ATOM     12  O   UNL     1       1.670  -1.528  -0.022  0.00  0.00    -0.252 OA
ATOM     13  N   UNL     1       0.002  -0.004   0.002  0.00  0.00    -0.281 N 
ATOM     14  H   UNL     1      -0.768  -0.594   0.006  0.00  0.00    +0.152 HD
BRANCH   7  15
ATOM     15  C   UNL     1      -0.687   1.983   1.259  0.00  0.00    -0.015 A 
ATOM     16  C   UNL     1      -0.282   3.182   1.815  0.00  0.00    +0.007 A 
ATOM     17  C   UNL     1      -0.899   3.657   2.957  0.00  0.00    +0.020 A 
ATOM     18  C   UNL     1      -1.914   2.927   3.550  0.00  0.00    +0.041 A 
ATOM     19  C   UNL     1      -2.315   1.724   2.995  0.00  0.00    +0.020 A 
ATOM     20  C   UNL     1      -1.701   1.253   1.850  0.00  0.00    +0.007 A 
ATOM     21 CL   UNL     1      -2.684   3.519   4.988  0.00  0.00    -0.084 Cl
ENDBRANCH   7  15
ENDBRANCH   5  10
ENDBRANCH   1   5
BRANCH   3  22
ATOM     22  C   UNL     1       5.869   0.424  -3.098  0.00  0.00    +0.109 C 
BRANCH  22  23
ATOM     23  C   UNL     1       7.395   0.314  -3.113  0.00  0.00    +0.054 C 
BRANCH  23  24
ATOM     24  C   UNL     1       7.883   0.285  -4.538  0.00  0.00    -0.046 A 
ATOM     25  C   UNL     1       8.026  -0.922  -5.196  0.00  0.00    +0.005 A 
ATOM     26  C   UNL     1       8.470  -0.948  -6.505  0.00  0.00    +0.029 A 
ATOM     27  C   UNL     1       8.779   0.233  -7.153  0.00  0.00    +0.105 A 
ATOM     28  C   UNL     1       8.641   1.440  -6.494  0.00  0.00    +0.029 A 
ATOM     29  C   UNL     1       8.193   1.466  -5.186  0.00  0.00    +0.005 A 
BRANCH  27  30
ATOM     30  S   UNL     1       9.348   0.200  -8.820  0.00  0.00    +0.056 S 
ATOM     31  O   UNL     1       8.871  -1.012  -9.388  0.00  0.00    -0.153 OA
ATOM     32  O   UNL     1       9.049   1.472  -9.377  0.00  0.00    -0.153 OA
BRANCH  30  33
ATOM     33  N   UNL     1      10.999   0.082  -8.771  0.00  0.00    -0.204 NA
ATOM     34  H   UNL     1      11.475  -0.370  -9.486  0.00  0.00    +0.144 HD
ATOM     35  H   UNL     1      11.491   0.465  -8.028  0.00  0.00    +0.144 HD
ENDBRANCH  30  33
ENDBRANCH  27  30
ENDBRANCH  23  24
ENDBRANCH  22  23
ENDBRANCH   3  22
TORSDOF 8
