REMARK  Name = ZINC36809483
REMARK  4 active torsions:
REMARK  status: ('A' for Active; 'I' for Inactive)
REMARK    1  A    between atoms: C_1  and  C_2
REMARK    2  A    between atoms: C_4  and  N_23
REMARK    3  A    between atoms: C_6  and  S_8
REMARK    4  A    between atoms: S_8  and  N_11
REMARK                            x       y       z     vdW  Elec       q    Type
REMARK                         _______ _______ _______ _____ _____    ______ ____
ROOT
ATOM      1  S   UNL     1       0.056  -2.967   2.717  0.00  0.00    +0.061 S 
ATOM      2  O   UNL     1      -0.502  -2.101   3.696  0.00  0.00    -0.153 OA
ATOM      3  O   UNL     1      -0.479  -4.256   2.447  0.00  0.00    -0.153 OA
ENDROOT
BRANCH   1   4
ATOM      4  N   UNL     1       1.643  -3.191   3.134  0.00  0.00    -0.176 NA
ATOM      5  C   UNL     1       2.375  -4.383   2.683  0.00  0.00    +0.110 C 
ATOM      6  C   UNL     1       2.989  -5.074   3.904  0.00  0.00    +0.021 C 
ATOM      7  C   UNL     1       3.846  -4.069   4.678  0.00  0.00    -0.005 C 
ATOM      8  C   UNL     1       4.474  -4.769   5.887  0.00  0.00    +0.004 C 
ATOM      9  C   UNL     1       3.366  -5.322   6.786  0.00  0.00    +0.000 C 
ATOM     10  C   UNL     1       2.478  -4.173   7.267  0.00  0.00    +0.000 C 
ATOM     11  C   UNL     1       1.855  -3.467   6.061  0.00  0.00    +0.005 C 
ATOM     12  C   UNL     1       2.968  -2.912   5.159  0.00  0.00    +0.008 C 
ATOM     13  C   UNL     1       2.349  -2.199   3.956  0.00  0.00    +0.113 C 
ENDBRANCH   1   4
BRANCH   1  19
ATOM     14  C   UNL     1      -0.018   1.503   0.010  0.00  0.00    +0.044 C 
ATOM     15  C   UNL     1       0.002  -0.004   0.002  0.00  0.00    -0.047 A 
ATOM     16  C   UNL     1       0.006  -0.687  -1.198  0.00  0.00    +0.026 A 
ATOM     17  C   UNL     1       0.025  -2.076  -1.205  0.00  0.00    +0.027 A 
ATOM     18  C   UNL     1       0.041  -2.773  -0.004  0.00  0.00    +0.051 A 
ATOM     19  C   UNL     1       0.037  -2.084   1.193  0.00  0.00    +0.107 A 
ATOM     20  C   UNL     1       0.023  -0.701   1.196  0.00  0.00    +0.032 A 
BRANCH  17  21
ATOM     21  N   UNL     1       0.028  -2.770  -2.417  0.00  0.00    -0.358 N 
ATOM     22  H   UNL     1       0.017  -2.282  -3.256  0.00  0.00    +0.142 HD
ATOM     23  H   UNL     1       0.042  -3.740  -2.421  0.00  0.00    +0.142 HD
ENDBRANCH  17  21
ENDBRANCH   1  19
TORSDOF 3
