REMARK  Name = ZINC40799983
REMARK  7 active torsions:
REMARK  status: ('A' for Active; 'I' for Inactive)
REMARK    1  A    between atoms: C_3  and  C_6
REMARK    2  A    between atoms: C_6  and  C_7
REMARK    3  A    between atoms: C_7  and  N_8
REMARK    4  A    between atoms: C_10  and  N_26
REMARK    5  A    between atoms: C_11  and  N_15
REMARK    6  A    between atoms: N_15  and  C_16
REMARK    7  A    between atoms: C_19  and  C_22
REMARK                            x       y       z     vdW  Elec       q    Type
REMARK                         _______ _______ _______ _____ _____    ______ ____
ROOT
ATOM      1  N   UNL     1       5.772   2.116   1.439  0.00  0.00    -0.327 N 
ATOM      2  C   UNL     1       6.365   2.550   2.619  0.00  0.00    +0.145 A 
ATOM      3  C   UNL     1       7.684   3.009   2.622  0.00  0.00    +0.105 A 
ATOM      4  C   UNL     1       8.230   3.433   3.834  0.00  0.00    +0.149 A 
ATOM      5  N   UNL     1       7.479   3.384   4.933  0.00  0.00    -0.219 NA
ATOM      6  C   UNL     1       6.239   2.943   4.886  0.00  0.00    +0.225 A 
ATOM      7  N   UNL     1       5.683   2.539   3.761  0.00  0.00    -0.219 NA
ATOM      8  H   UNL     1       6.276   2.127   0.610  0.00  0.00    +0.148 HD
ENDROOT
BRANCH   3   9
ATOM      9  N   UNL     1       8.439   3.043   1.439  0.00  0.00    -0.353 N 
ATOM     10  H   UNL     1       8.046   2.744   0.604  0.00  0.00    +0.143 HD
ATOM     11  H   UNL     1       9.354   3.365   1.457  0.00  0.00    +0.143 HD
ENDBRANCH   3   9
BRANCH   4  12
ATOM     12  N   UNL     1       9.539   3.899   3.894  0.00  0.00    -0.298 N 
ATOM     13  H   UNL     1      10.052   4.011   3.078  0.00  0.00    +0.154 HD
BRANCH  12  14
ATOM     14  C   UNL     1      10.115   4.207   5.129  0.00  0.00    +0.032 A 
ATOM     15  C   UNL     1      10.999   5.274   5.239  0.00  0.00    +0.024 A 
ATOM     16  C   UNL     1      11.567   5.576   6.461  0.00  0.00    +0.014 A 
ATOM     17  C   UNL     1      11.257   4.817   7.575  0.00  0.00    +0.055 A 
ATOM     18  C   UNL     1      10.378   3.755   7.470  0.00  0.00    +0.014 A 
ATOM     19  C   UNL     1       9.802   3.452   6.252  0.00  0.00    +0.024 A 
BRANCH  17  20
ATOM     20  C   UNL     1      11.879   5.149   8.907  0.00  0.00    +0.417 C 
ATOM     21  F   UNL     1      11.063   6.059   9.588  0.00  0.00    -0.166 F 
ATOM     22  F   UNL     1      12.008   3.981   9.665  0.00  0.00    -0.166 F 
ATOM     23  F   UNL     1      13.142   5.716   8.704  0.00  0.00    -0.166 F 
ENDBRANCH  17  20
ENDBRANCH  12  14
ENDBRANCH   4  12
BRANCH   1  24
ATOM     24  C   UNL     1       4.386   1.642   1.447  0.00  0.00    +0.108 C 
BRANCH  24  25
ATOM     25  C   UNL     1       3.981   1.226   0.031  0.00  0.00    +0.061 C 
BRANCH  25  28
ATOM     26  C   UNL     1       0.200   0.777  -0.097  0.00  0.00    +0.008 A 
ATOM     27  C   UNL     1       1.411   1.442  -0.147  0.00  0.00    +0.011 A 
ATOM     28  C   UNL     1       2.555   0.738   0.039  0.00  0.00    -0.009 A 
ATOM     29  S   UNL     1       1.934  -0.915   0.297  0.00  0.00    -0.102 S 
ATOM     30  C   UNL     1       0.192  -0.558   0.138  0.00  0.00    +0.045 A 
ENDBRANCH  25  28
ENDBRANCH  24  25
ENDBRANCH   1  24
TORSDOF 7
