REMARK  Name = ZINC04731173
REMARK  11 active torsions:
REMARK  status: ('A' for Active; 'I' for Inactive)
REMARK    1  A    between atoms: C_1  and  C_2
REMARK    2  A    between atoms: C_8  and  C_28
REMARK    3  A    between atoms: C_12  and  C_14
REMARK    4  A    between atoms: C_12  and  C_17
REMARK    5  A    between atoms: C_14  and  C_15
REMARK    6  A    between atoms: C_15  and  O_16
REMARK    7  A    between atoms: C_17  and  O_18
REMARK    8  A    between atoms: C_21  and  O_27
REMARK    9  A    between atoms: C_23  and  C_24
REMARK   10  A    between atoms: C_23  and  C_25
REMARK   11  A    between atoms: C_25  and  O_26
REMARK                            x       y       z     vdW  Elec       q    Type
REMARK                         _______ _______ _______ _____ _____    ______ ____
ROOT
ATOM      1  C   UNL     1      -0.149   1.323  -0.204  0.00  0.00    +0.010 C 
ATOM      2  C   UNL     1      -0.175  -0.202  -0.052  0.00  0.00    +0.018 C 
ATOM      3  C   UNL     1      -1.627  -0.644   0.145  0.00  0.00    +0.006 C 
ATOM      4  C   UNL     1      -1.687  -2.168   0.307  0.00  0.00    +0.005 C 
ATOM      5  C   UNL     1      -0.839  -2.559   1.518  0.00  0.00    +0.008 C 
ATOM      6  C   UNL     1       0.614  -2.169   1.286  0.00  0.00    +0.001 C 
ATOM      7  C   UNL     1       0.684  -0.637   1.131  0.00  0.00    +0.079 C 
ATOM      8  C   UNL     1       2.147  -0.215   0.912  0.00  0.00    +0.039 C 
ATOM      9  C   UNL     1       2.325   1.026   1.816  0.00  0.00    +0.040 C 
ATOM     10  C   UNL     1       1.193   0.902   2.851  0.00  0.00    +0.095 C 
ATOM     11  O   UNL     1       0.232  -0.022   2.339  0.00  0.00    -0.364 OA
ATOM     12  C   UNL     1       1.457  -2.590   2.490  0.00  0.00    +0.012 C 
ATOM     13  C   UNL     1       1.334  -4.101   2.699  0.00  0.00    +0.032 C 
ATOM     14  C   UNL     1      -0.112  -4.448   3.035  0.00  0.00    +0.123 C 
ATOM     15  C   UNL     1      -1.075  -3.994   1.939  0.00  0.00    +0.020 C 
ATOM     16  C   UNL     1      -1.015  -4.967   0.761  0.00  0.00    +0.016 C 
ATOM     17  C   UNL     1       1.191  -2.801   0.021  0.00  0.00    +0.014 C 
ENDROOT
BRANCH  14  18
ATOM     18  O   UNL     1      -0.231  -5.865   3.204  0.00  0.00    -0.391 OA
ATOM     19  H   UNL     1       0.323  -6.225   3.911  0.00  0.00    +0.210 HD
ENDBRANCH  14  18
BRANCH  10  20
ATOM     20  C   UNL     1       1.766   0.405   4.183  0.00  0.00    +0.065 C 
BRANCH  20  21
ATOM     21  C   UNL     1       2.723   1.455   4.750  0.00  0.00    +0.158 C 
BRANCH  21  22
ATOM     22  O   UNL     1       3.186   1.033   6.035  0.00  0.00    -0.395 OA
ATOM     23  H   UNL     1       3.799   1.652   6.455  0.00  0.00    +0.209 HD
ENDBRANCH  21  22
ENDBRANCH  20  21
ENDBRANCH  10  20
BRANCH  10  24
ATOM     24  C   UNL     1       0.544   2.273   3.075  0.00  0.00    +0.190 C 
BRANCH  24  25
ATOM     25  O   UNL     1      -0.447   2.170   4.100  0.00  0.00    -0.392 OA
ATOM     26  H   UNL     1      -0.899   3.001   4.295  0.00  0.00    +0.210 HD
ENDBRANCH  24  25
ENDBRANCH  10  24
BRANCH  15  27
ATOM     27  C   UNL     1      -2.500  -4.091   2.538  0.00  0.00    +0.165 C 
BRANCH  27  28
ATOM     28  O   UNL     1      -2.754  -5.436   2.946  0.00  0.00    -0.394 OA
ATOM     29  H   UNL     1      -3.631  -5.572   3.332  0.00  0.00    +0.209 HD
ENDBRANCH  27  28
ENDBRANCH  15  27
TORSDOF 8
