REMARK  Name = ZINC35157751
REMARK  10 active torsions:
REMARK  status: ('A' for Active; 'I' for Inactive)
REMARK    1  A    between atoms: C_1  and  C_2
REMARK    2  A    between atoms: C_2  and  C_3
REMARK    3  A    between atoms: C_3  and  C_5
REMARK    4  A    between atoms: C_3  and  S_15
REMARK    5  A    between atoms: N_7  and  C_8
REMARK    6  A    between atoms: C_11  and  C_14
REMARK    7  A    between atoms: S_15  and  C_16
REMARK    8  A    between atoms: C_22  and  C_35
REMARK    9  A    between atoms: N_26  and  C_27
REMARK   10  A    between atoms: C_27  and  C_28
REMARK                            x       y       z     vdW  Elec       q    Type
REMARK                         _______ _______ _______ _____ _____    ______ ____
ROOT
ATOM      1  C   UNL     1      -2.751   2.011   1.198  0.00  0.00    +0.212 A 
ATOM      2  N   UNL     1      -3.251   2.785   2.152  0.00  0.00    -0.201 NA
ATOM      3  C   UNL     1      -3.346   4.094   1.943  0.00  0.00    +0.165 A 
ATOM      4  C   UNL     1      -2.909   4.609   0.705  0.00  0.00    +0.138 A 
ATOM      5  C   UNL     1      -3.133   6.064   0.760  0.00  0.00    +0.029 A 
ATOM      6  C   UNL     1      -2.909   7.105  -0.139  0.00  0.00    +0.015 A 
ATOM      7  C   UNL     1      -3.234   8.397   0.215  0.00  0.00    -0.050 A 
ATOM      8  C   UNL     1      -3.783   8.663   1.460  0.00  0.00    +0.005 A 
ATOM      9  C   UNL     1      -4.010   7.642   2.358  0.00  0.00    +0.027 A 
ATOM     10  C   UNL     1      -3.689   6.332   2.020  0.00  0.00    +0.053 A 
ATOM     11  N   UNL     1      -3.806   5.136   2.710  0.00  0.00    -0.319 N 
ATOM     12  C   UNL     1      -2.991   9.524  -0.756  0.00  0.00    +0.044 C 
ATOM     13  N   UNL     1      -2.419   3.783  -0.207  0.00  0.00    -0.143 NA
ATOM     14  N   UNL     1      -2.340   2.520   0.041  0.00  0.00    -0.122 NA
ENDROOT
BRANCH   1  15
ATOM     15  S   UNL     1      -2.623   0.275   1.472  0.00  0.00    -0.072 S 
BRANCH  15  16
ATOM     16  C   UNL     1      -1.841  -0.352  -0.041  0.00  0.00    +0.140 C 
BRANCH  16  17
ATOM     17  C   UNL     1      -2.769  -0.141  -1.210  0.00  0.00    +0.231 C 
ATOM     18  O   UNL     1      -3.954   0.032  -1.020  0.00  0.00    -0.274 OA
ATOM     19  N   UNL     1      -2.281  -0.144  -2.466  0.00  0.00    -0.285 N 
ATOM     20  H   UNL     1      -1.325  -0.213  -2.615  0.00  0.00    +0.155 HD
BRANCH  19  21
ATOM     21  C   UNL     1      -3.154  -0.047  -3.556  0.00  0.00    +0.033 A 
ATOM     22  C   UNL     1      -2.752   0.608  -4.713  0.00  0.00    +0.023 A 
ATOM     23  C   UNL     1      -3.616   0.703  -5.786  0.00  0.00    +0.005 A 
ATOM     24  C   UNL     1      -4.879   0.146  -5.710  0.00  0.00    -0.050 A 
ATOM     25  C   UNL     1      -5.282  -0.507  -4.559  0.00  0.00    +0.005 A 
ATOM     26  C   UNL     1      -4.421  -0.610  -3.485  0.00  0.00    +0.023 A 
ATOM     27  C   UNL     1      -5.819   0.250  -6.883  0.00  0.00    +0.044 C 
ENDBRANCH  19  21
ENDBRANCH  16  17
BRANCH  16  29
ATOM     28  C   UNL     1      -0.496  -2.048   1.206  0.00  0.00    +0.005 C 
ATOM     29  C   UNL     1      -1.551  -1.846   0.116  0.00  0.00    +0.020 C 
ENDBRANCH  16  29
ENDBRANCH  15  16
ENDBRANCH   1  15
BRANCH  11  30
ATOM     30  C   UNL     1      -4.346   5.003   4.066  0.00  0.00    +0.162 C 
BRANCH  30  31
ATOM     31  C   UNL     1      -3.227   5.138   5.067  0.00  0.00    +0.007 A 
ATOM     32  C   UNL     1      -2.597   4.009   5.556  0.00  0.00    +0.008 A 
ATOM     33  C   UNL     1      -1.571   4.133   6.474  0.00  0.00    +0.000 A 
ATOM     34  C   UNL     1      -1.175   5.386   6.904  0.00  0.00    +0.003 A 
ATOM     35  C   UNL     1      -1.803   6.516   6.416  0.00  0.00    +0.039 A 
ATOM     36  C   UNL     1      -2.827   6.393   5.492  0.00  0.00    +0.128 A 
ATOM     37  F   UNL     1      -3.440   7.497   5.011  0.00  0.00    -0.205 F 
ENDBRANCH  30  31
ENDBRANCH  11  30
TORSDOF 7
