REMARK  Name = ZINC46792386
REMARK  8 active torsions:
REMARK  status: ('A' for Active; 'I' for Inactive)
REMARK    1  A    between atoms: C_1  and  C_2
REMARK    2  A    between atoms: C_7  and  C_10
REMARK    3  A    between atoms: C_14  and  C_17
REMARK    4  A    between atoms: C_17  and  N_18
REMARK    5  A    between atoms: C_19  and  C_21
REMARK    6  A    between atoms: C_21  and  C_22
REMARK    7  A    between atoms: C_22  and  N_23
REMARK    8  A    between atoms: N_26  and  C_27
REMARK                            x       y       z     vdW  Elec       q    Type
REMARK                         _______ _______ _______ _____ _____    ______ ____
ROOT
ATOM      1  N   UNL     1      -3.369  -5.796  -4.369  0.00  0.00    -0.311 N 
ATOM      2  C   UNL     1      -3.827  -6.645  -5.310  0.00  0.00    +0.215 C 
ATOM      3  O   UNL     1      -4.914  -7.167  -5.179  0.00  0.00    -0.276 OA
ATOM      4  H   UNL     1      -2.500  -5.378  -4.474  0.00  0.00    +0.149 HD
ENDROOT
BRANCH   1   5
ATOM      5  C   UNL     1      -4.185  -5.503  -3.188  0.00  0.00    +0.141 C 
BRANCH   5  17
ATOM      6  C   UNL     1       0.024   1.508  -0.007  0.00  0.00    +0.039 C 
ATOM      7  C   UNL     1       0.027  -0.022  -0.001  0.00  0.00    +0.133 C 
ATOM      8  C   UNL     1      -1.417  -0.537   0.001  0.00  0.00    +0.137 C 
ATOM      9  N   UNL     1      -1.389  -1.995   0.196  0.00  0.00    -0.312 N 
ATOM     10  C   UNL     1      -0.598  -2.529   1.316  0.00  0.00    +0.137 C 
ATOM     11  C   UNL     1       0.806  -1.917   1.250  0.00  0.00    +0.133 C 
ATOM     12  O   UNL     1       0.698  -0.493   1.171  0.00  0.00    -0.371 OA
ATOM     13  C   UNL     1       1.591  -2.301   2.506  0.00  0.00    +0.039 C 
ATOM     14  C   UNL     1      -2.091  -2.844  -0.652  0.00  0.00    +0.099 A 
ATOM     15  C   UNL     1      -2.927  -2.308  -1.627  0.00  0.00    +0.042 A 
ATOM     16  C   UNL     1      -3.619  -3.164  -2.464  0.00  0.00    +0.010 A 
ATOM     17  C   UNL     1      -3.451  -4.533  -2.299  0.00  0.00    -0.014 A 
ATOM     18  C   UNL     1      -2.604  -4.995  -1.311  0.00  0.00    +0.089 A 
ATOM     19  N   UNL     1      -1.953  -4.155  -0.530  0.00  0.00    -0.349 N 
ATOM     20  H   UNL     1      -1.361  -4.507   0.154  0.00  0.00    +0.167 HD
ENDBRANCH   5  17
ENDBRANCH   1   5
BRANCH   2  21
ATOM     21  C   UNL     1      -2.989  -6.946  -6.526  0.00  0.00    +0.114 C 
BRANCH  21  22
ATOM     22  C   UNL     1      -3.734  -7.931  -7.428  0.00  0.00    +0.115 C 
BRANCH  22  23
ATOM     23  N   UNL     1      -2.919  -8.224  -8.610  0.00  0.00    -0.299 N 
ATOM     24  C   UNL     1      -3.376  -9.073  -9.551  0.00  0.00    +0.300 C 
ATOM     25  O   UNL     1      -4.466  -9.596  -9.420  0.00  0.00    -0.253 OA
ATOM     26  N   UNL     1      -2.626  -9.342 -10.638  0.00  0.00    -0.294 N 
ATOM     27  H   UNL     1      -2.049  -7.806  -8.715  0.00  0.00    +0.150 HD
ATOM     28  H   UNL     1      -1.757  -8.925 -10.743  0.00  0.00    +0.151 HD
BRANCH  26  29
ATOM     29  C   UNL     1      -3.124 -10.265 -11.661  0.00  0.00    +0.037 C 
ATOM     30  C   UNL     1      -3.371 -11.638 -11.033  0.00  0.00    +0.029 C 
ATOM     31  C   UNL     1      -3.890 -12.602 -12.101  0.00  0.00    -0.008 C 
ATOM     32  C   UNL     1      -2.854 -12.732 -13.219  0.00  0.00    +0.007 C 
ATOM     33  C   UNL     1      -2.607 -11.359 -13.847  0.00  0.00    -0.008 C 
ATOM     34  C   UNL     1      -2.087 -10.395 -12.779  0.00  0.00    +0.029 C 
ATOM     35  C   UNL     1      -3.917 -10.820 -14.426  0.00  0.00    +0.007 C 
ATOM     36  C   UNL     1      -4.953 -10.691 -13.309  0.00  0.00    -0.008 C 
ATOM     37  C   UNL     1      -5.200 -12.063 -12.680  0.00  0.00    +0.007 C 
ATOM     38  C   UNL     1      -4.434  -9.727 -12.240  0.00  0.00    +0.029 C 
ENDBRANCH  26  29
ENDBRANCH  22  23
ENDBRANCH  21  22
ENDBRANCH   2  21
TORSDOF 6
