REMARK  Name = ZINC13029289
REMARK  16 active torsions:
REMARK  status: ('A' for Active; 'I' for Inactive)
REMARK    1  A    between atoms: C_1  and  C_2
REMARK    2  A    between atoms: C_5  and  C_8
REMARK    3  A    between atoms: C_8  and  N_9
REMARK    4  A    between atoms: N_9  and  C_10
REMARK    5  A    between atoms: C_10  and  C_12
REMARK    6  A    between atoms: C_10  and  C_22
REMARK    7  A    between atoms: C_16  and  O_20
REMARK    8  A    between atoms: C_17  and  O_18
REMARK    9  A    between atoms: O_18  and  C_19
REMARK   10  A    between atoms: O_20  and  C_21
REMARK   11  A    between atoms: N_24  and  C_25
REMARK   12  A    between atoms: C_25  and  C_26
REMARK   13  A    between atoms: C_25  and  C_27
REMARK   14  A    between atoms: C_25  and  C_28
REMARK   15  A    between atoms: C_29  and  C_31
REMARK   16  A    between atoms: C_31  and  N_32
REMARK                            x       y       z     vdW  Elec       q    Type
REMARK                         _______ _______ _______ _____ _____    ______ ____
ROOT
ATOM      1  N   UNL     1       4.623   1.383   0.622  0.00  0.00    -0.280 N 
ATOM      2  C   UNL     1       4.886   0.163   0.113  0.00  0.00    +0.238 C 
ATOM      3  O   UNL     1       4.456  -0.145  -0.979  0.00  0.00    -0.274 OA
ENDROOT
BRANCH   1   4
ATOM      4  C   UNL     1       5.217   1.788   1.898  0.00  0.00    +0.144 C 
BRANCH   4   9
ATOM      5  C   UNL     1      10.194   4.555   0.916  0.00  0.00    +0.044 C 
ATOM      6  C   UNL     1       8.896   3.833   1.172  0.00  0.00    -0.050 A 
ATOM      7  C   UNL     1       7.714   4.545   1.252  0.00  0.00    +0.003 A 
ATOM      8  C   UNL     1       6.523   3.883   1.487  0.00  0.00    +0.005 A 
ATOM      9  C   UNL     1       6.515   2.510   1.642  0.00  0.00    -0.030 A 
ATOM     10  C   UNL     1       7.698   1.798   1.567  0.00  0.00    +0.005 A 
ATOM     11  C   UNL     1       8.888   2.460   1.327  0.00  0.00    +0.003 A 
ENDBRANCH   4   9
ENDBRANCH   1   4
BRANCH   1  12
ATOM     12  C   UNL     1       3.744   2.304  -0.102  0.00  0.00    +0.196 C 
BRANCH  12  13
ATOM     13  C   UNL     1       2.342   1.751  -0.121  0.00  0.00    +0.027 A 
ATOM     14  C   UNL     1       2.126   0.408   0.124  0.00  0.00    +0.010 A 
ATOM     15  C   UNL     1       0.842  -0.103   0.108  0.00  0.00    +0.004 A 
ATOM     16  C   UNL     1      -0.233   0.728  -0.154  0.00  0.00    +0.049 A 
ATOM     17  C   UNL     1      -0.023   2.075  -0.400  0.00  0.00    +0.162 A 
ATOM     18  C   UNL     1       1.271   2.589  -0.383  0.00  0.00    +0.167 A 
BRANCH  18  19
ATOM     19  O   UNL     1       1.482   3.911  -0.624  0.00  0.00    -0.491 OA
ATOM     20  C   UNL     1       1.469   4.786   0.505  0.00  0.00    +0.277 C 
ENDBRANCH  18  19
BRANCH  17  21
ATOM     21  O   UNL     1      -1.078   2.892  -0.663  0.00  0.00    -0.491 OA
ATOM     22  C   UNL     1      -2.375   2.294  -0.670  0.00  0.00    +0.277 C 
ENDBRANCH  17  21
ENDBRANCH  12  13
BRANCH  12  23
ATOM     23  C   UNL     1       4.239   2.465  -1.517  0.00  0.00    +0.239 C 
ATOM     24  O   UNL     1       5.201   1.832  -1.898  0.00  0.00    -0.273 OA
ATOM     25  N   UNL     1       3.613   3.311  -2.358  0.00  0.00    -0.309 N 
ATOM     26  H   UNL     1       2.844   3.817  -2.053  0.00  0.00    +0.149 HD
BRANCH  25  27
ATOM     27  C   UNL     1       4.095   3.467  -3.733  0.00  0.00    +0.026 C 
ATOM     28  C   UNL     1       4.032   2.117  -4.451  0.00  0.00    +0.031 C 
ATOM     29  C   UNL     1       3.215   4.479  -4.470  0.00  0.00    +0.031 C 
ATOM     30  C   UNL     1       5.541   3.967  -3.713  0.00  0.00    +0.031 C 
ENDBRANCH  25  27
ENDBRANCH  12  23
ENDBRANCH   1  12
BRANCH   2  31
ATOM     31  C   UNL     1       5.713  -0.820   0.901  0.00  0.00    +0.241 C 
BRANCH  31  32
ATOM     32  N   UNL     1       5.932  -2.027   0.100  0.00  0.00    -0.235 N 
ATOM     33  C   UNL     1       6.974  -2.263  -0.764  0.00  0.00    +0.090 A 
ATOM     34  C   UNL     1       8.087  -1.528  -1.160  0.00  0.00    +0.029 A 
ATOM     35  C   UNL     1       8.964  -2.058  -2.064  0.00  0.00    +0.002 A 
ATOM     36  C   UNL     1       8.755  -3.325  -2.593  0.00  0.00    +0.002 A 
ATOM     37  C   UNL     1       7.671  -4.066  -2.221  0.00  0.00    +0.032 A 
ATOM     38  C   UNL     1       6.757  -3.546  -1.296  0.00  0.00    +0.113 A 
ATOM     39  N   UNL     1       5.622  -4.028  -0.750  0.00  0.00    -0.129 NA
ATOM     40  N   UNL     1       5.122  -3.172   0.069  0.00  0.00    -0.064 NA
ENDBRANCH  31  32
ENDBRANCH   2  31
TORSDOF 10
