REMARK  Name = ZINC05550653
REMARK  5 active torsions:
REMARK  status: ('A' for Active; 'I' for Inactive)
REMARK    1  A    between atoms: C_1  and  C_2
REMARK    2  A    between atoms: C_2  and  C_4
REMARK    3  A    between atoms: C_2  and  N_11
REMARK    4  A    between atoms: C_12  and  C_14
REMARK    5  A    between atoms: C_18  and  N_20
REMARK                            x       y       z     vdW  Elec       q    Type
REMARK                         _______ _______ _______ _____ _____    ______ ____
ROOT
ATOM      1  N   UNL     1       2.323   5.099  -0.880  0.00  0.00    -0.305 N 
ATOM      2  C   UNL     1       3.420   5.641  -1.447  0.00  0.00    +0.245 C 
ATOM      3  O   UNL     1       4.516   5.163  -1.228  0.00  0.00    -0.270 OA
ATOM      4  H   UNL     1       1.448   5.481  -1.055  0.00  0.00    +0.150 HD
ENDROOT
BRANCH   2   5
ATOM      5  C   UNL     1       3.289   6.815  -2.335  0.00  0.00    +0.039 A 
ATOM      6  C   UNL     1       2.031   7.362  -2.594  0.00  0.00    +0.014 A 
ATOM      7  C   UNL     1       1.916   8.461  -3.418  0.00  0.00    +0.023 A 
ATOM      8  C   UNL     1       3.045   9.014  -4.000  0.00  0.00    +0.071 A 
ATOM      9  C   UNL     1       4.295   8.473  -3.752  0.00  0.00    +0.145 A 
ATOM     10  C   UNL     1       4.423   7.378  -2.924  0.00  0.00    +0.047 A 
ATOM     11 CL   UNL     1       2.892  10.394  -5.043  0.00  0.00    -0.081 Cl
BRANCH   9  12
ATOM     12  N   UNL     1       5.497   9.071  -4.377  0.00  0.00    +0.058 N 
ATOM     13  O   UNL     1       6.597   8.595  -4.159  0.00  0.00    -0.126 OA
ATOM     14  O   UNL     1       5.385  10.038  -5.108  0.00  0.00    -0.126 OA
ENDBRANCH   9  12
ENDBRANCH   2   5
BRANCH   1  16
ATOM     15  C   UNL     1       2.776   4.404   1.421  0.00  0.00    +0.033 C 
ATOM     16  C   UNL     1       2.452   3.936   0.000  0.00  0.00    +0.100 C 
BRANCH  16  17
ATOM     17  C   UNL     1       1.157   3.166   0.008  0.00  0.00    -0.026 A 
ATOM     18  C   UNL     1       1.175   1.783   0.000  0.00  0.00    +0.005 A 
ATOM     19  C   UNL     1      -0.013   1.076   0.008  0.00  0.00    +0.002 A 
ATOM     20  C   UNL     1      -1.219   1.750   0.017  0.00  0.00    +0.020 A 
ATOM     21  C   UNL     1      -1.238   3.134   0.029  0.00  0.00    +0.041 A 
ATOM     22  C   UNL     1      -0.048   3.841   0.022  0.00  0.00    +0.025 A 
ATOM     23 CL   UNL     1      -2.752   3.982   0.047  0.00  0.00    -0.084 Cl
ENDBRANCH  16  17
ENDBRANCH   1  16
TORSDOF 4
