REMARK  Name = ZINC23314769
REMARK  12 active torsions:
REMARK  status: ('A' for Active; 'I' for Inactive)
REMARK    1  A    between atoms: C_1  and  C_2
REMARK    2  A    between atoms: C_3  and  C_17
REMARK    3  A    between atoms: C_4  and  C_7
REMARK    4  A    between atoms: C_10  and  C_13
REMARK    5  A    between atoms: C_13  and  C_14
REMARK    6  A    between atoms: C_13  and  C_15
REMARK    7  A    between atoms: C_13  and  C_16
REMARK    8  A    between atoms: N_19  and  C_20
REMARK    9  A    between atoms: C_20  and  C_22
REMARK   10  A    between atoms: C_20  and  C_23
REMARK   11  A    between atoms: C_26  and  O_29
REMARK   12  A    between atoms: O_29  and  C_30
REMARK                            x       y       z     vdW  Elec       q    Type
REMARK                         _______ _______ _______ _____ _____    ______ ____
ROOT
ATOM      1  C   UNL     1      -4.784   1.078  -0.870  0.00  0.00    +0.070 C 
ATOM      2  C   UNL     1      -4.645  -0.415  -1.015  0.00  0.00    +0.093 A 
ATOM      3  C   UNL     1      -3.431  -1.152  -1.134  0.00  0.00    +0.106 A 
ATOM      4  C   UNL     1      -3.868  -2.475  -1.233  0.00  0.00    +0.180 A 
ATOM      5  O   UNL     1      -5.208  -2.419  -1.174  0.00  0.00    -0.354 OA
ATOM      6  N   UNL     1      -5.608  -1.286  -1.059  0.00  0.00    -0.082 NA
ENDROOT
BRANCH   4   7
ATOM      7  C   UNL     1      -3.031  -3.683  -1.371  0.00  0.00    +0.021 A 
ATOM      8  C   UNL     1      -1.640  -3.570  -1.422  0.00  0.00    +0.012 A 
ATOM      9  C   UNL     1      -0.864  -4.704  -1.546  0.00  0.00    +0.005 A 
ATOM     10  C   UNL     1      -1.461  -5.949  -1.631  0.00  0.00    -0.042 A 
ATOM     11  C   UNL     1      -2.839  -6.068  -1.587  0.00  0.00    +0.005 A 
ATOM     12  C   UNL     1      -3.627  -4.943  -1.458  0.00  0.00    +0.012 A 
BRANCH  10  13
ATOM     13  C   UNL     1      -0.606  -7.183  -1.772  0.00  0.00    -0.013 C 
ATOM     14  C   UNL     1      -0.959  -7.901  -3.076  0.00  0.00    +0.015 C 
ATOM     15  C   UNL     1       0.870  -6.780  -1.795  0.00  0.00    +0.015 C 
ATOM     16  C   UNL     1      -0.862  -8.119  -0.589  0.00  0.00    +0.015 C 
ENDBRANCH  10  13
ENDBRANCH   4   7
BRANCH   3  17
ATOM     17  C   UNL     1      -2.051  -0.643  -1.145  0.00  0.00    +0.250 C 
ATOM     18  O   UNL     1      -1.522  -0.340  -2.198  0.00  0.00    -0.270 OA
ATOM     19  N   UNL     1      -1.372  -0.511   0.012  0.00  0.00    -0.305 N 
ATOM     20  H   UNL     1      -1.851  -0.785   0.965  0.00  0.00    +0.150 HD
BRANCH  19  21
ATOM     21  C   UNL     1       0.002  -0.004   0.002  0.00  0.00    +0.100 C 
ATOM     22  C   UNL     1      -0.019   1.526   0.010  0.00  0.00    +0.033 C 
BRANCH  21  23
ATOM     23  C   UNL     1       0.731  -0.503   1.223  0.00  0.00    -0.027 A 
ATOM     24  C   UNL     1       0.083  -0.547   2.444  0.00  0.00    +0.009 A 
ATOM     25  C   UNL     1       0.747  -1.010   3.563  0.00  0.00    +0.046 A 
ATOM     26  C   UNL     1       2.069  -1.419   3.464  0.00  0.00    +0.120 A 
ATOM     27  C   UNL     1       2.719  -1.369   2.239  0.00  0.00    +0.046 A 
ATOM     28  C   UNL     1       2.048  -0.911   1.122  0.00  0.00    +0.009 A 
BRANCH  26  29
ATOM     29  O   UNL     1       2.727  -1.869   4.565  0.00  0.00    -0.495 OA
ATOM     30  C   UNL     1       1.995  -1.893   5.793  0.00  0.00    +0.277 C 
ENDBRANCH  26  29
ENDBRANCH  21  23
ENDBRANCH  19  21
ENDBRANCH   3  17
TORSDOF 6
