REMARK  Name = ZINC28156221
REMARK  10 active torsions:
REMARK  status: ('A' for Active; 'I' for Inactive)
REMARK    1  A    between atoms: C_1  and  C_2
REMARK    2  A    between atoms: C_5  and  C_8
REMARK    3  A    between atoms: C_11  and  C_14
REMARK    4  A    between atoms: C_17  and  C_20
REMARK    5  A    between atoms: C_20  and  C_21
REMARK    6  A    between atoms: C_20  and  C_22
REMARK    7  A    between atoms: C_27  and  C_30
REMARK    8  A    between atoms: C_30  and  C_31
REMARK    9  A    between atoms: N_33  and  C_34
REMARK   10  A    between atoms: C_37  and  C_40
REMARK                            x       y       z     vdW  Elec       q    Type
REMARK                         _______ _______ _______ _____ _____    ______ ____
ROOT
ATOM      1  C   UNL     1      -5.683  -1.274   4.385  0.00  0.00    +0.069 C 
ATOM      2  N   UNL     1      -4.770  -1.034   3.509  0.00  0.00    -0.182 NA
ATOM      3  N   UNL     1      -5.130  -0.081   2.558  0.00  0.00    -0.195 N 
ATOM      4  C   UNL     1      -6.499   0.378   2.839  0.00  0.00    +0.136 C 
ATOM      5  C   UNL     1      -6.901  -0.428   4.090  0.00  0.00    +0.087 C 
ATOM      6  C   UNL     1      -4.342   0.352   1.530  0.00  0.00    +0.170 C 
ATOM      7  N   UNL     1      -4.633   1.248   0.596  0.00  0.00    -0.157 NA
ATOM      8  C   UNL     1      -3.819   1.608  -0.358  0.00  0.00    +0.252 C 
ATOM      9  O   UNL     1      -4.124   2.434  -1.196  0.00  0.00    -0.272 OA
ATOM     10  C   UNL     1      -2.459   0.921  -0.348  0.00  0.00    +0.150 C 
ATOM     11  S   UNL     1      -2.675  -0.156   1.126  0.00  0.00    -0.078 S 
ENDROOT
BRANCH   1  16
ATOM     12  C   UNL     1      -5.208  -5.004   8.737  0.00  0.00    +0.044 C 
ATOM     13  C   UNL     1      -5.333  -4.027   7.596  0.00  0.00    -0.050 A 
ATOM     14  C   UNL     1      -4.276  -3.853   6.720  0.00  0.00    +0.004 A 
ATOM     15  C   UNL     1      -4.383  -2.960   5.675  0.00  0.00    +0.010 A 
ATOM     16  C   UNL     1      -5.562  -2.231   5.501  0.00  0.00    -0.002 A 
ATOM     17  C   UNL     1      -6.623  -2.408   6.392  0.00  0.00    +0.010 A 
ATOM     18  C   UNL     1      -6.504  -3.308   7.430  0.00  0.00    +0.004 A 
ENDBRANCH   1  16
BRANCH   4  19
ATOM     19  C   UNL     1      -7.414   0.056   1.685  0.00  0.00    -0.025 A 
ATOM     20  C   UNL     1      -7.269  -1.137   1.001  0.00  0.00    +0.006 A 
ATOM     21  C   UNL     1      -8.111  -1.435  -0.054  0.00  0.00    +0.004 A 
ATOM     22  C   UNL     1      -9.090  -0.535  -0.433  0.00  0.00    -0.045 A 
ATOM     23  C   UNL     1      -9.231   0.660   0.248  0.00  0.00    +0.004 A 
ATOM     24  C   UNL     1      -8.393   0.955   1.307  0.00  0.00    +0.006 A 
BRANCH  22  25
ATOM     25  C   UNL     1     -10.004  -0.857  -1.587  0.00  0.00    +0.013 C 
ATOM     26  C   UNL     1      -9.172  -1.053  -2.856  0.00  0.00    +0.012 C 
ATOM     27  C   UNL     1     -10.779  -2.140  -1.282  0.00  0.00    +0.012 C 
ENDBRANCH  22  25
ENDBRANCH   4  19
BRANCH  10  28
ATOM     28  C   UNL     1      -1.326   1.929  -0.142  0.00  0.00    +0.120 C 
BRANCH  28  29
ATOM     29  C   UNL     1      -0.003   1.208  -0.157  0.00  0.00    +0.219 C 
ATOM     30  O   UNL     1       0.031   0.006  -0.318  0.00  0.00    -0.275 OA
ATOM     31  N   UNL     1       1.143   1.898   0.001  0.00  0.00    -0.285 N 
ATOM     32  H   UNL     1       1.120   2.997   0.060  0.00  0.00    +0.155 HD
BRANCH  31  33
ATOM     33  C   UNL     1       2.363   1.219   0.092  0.00  0.00    +0.033 A 
ATOM     34  C   UNL     1       2.421  -0.031   0.696  0.00  0.00    +0.023 A 
ATOM     35  C   UNL     1       3.625  -0.702   0.777  0.00  0.00    +0.005 A 
ATOM     36  C   UNL     1       4.775  -0.126   0.270  0.00  0.00    -0.050 A 
ATOM     37  C   UNL     1       4.722   1.121  -0.327  0.00  0.00    +0.005 A 
ATOM     38  C   UNL     1       3.520   1.794  -0.417  0.00  0.00    +0.023 A 
ATOM     39  C   UNL     1       6.089  -0.858   0.366  0.00  0.00    +0.044 C 
ENDBRANCH  31  33
ENDBRANCH  28  29
ENDBRANCH  10  28
TORSDOF 6
