REMARK  Name = ZINC58236795
REMARK  8 active torsions:
REMARK  status: ('A' for Active; 'I' for Inactive)
REMARK    1  A    between atoms: C_1  and  C_2
REMARK    2  A    between atoms: C_6  and  N_9
REMARK    3  A    between atoms: C_7  and  C_8
REMARK    4  A    between atoms: C_11  and  C_15
REMARK    5  A    between atoms: N_17  and  C_18
REMARK    6  A    between atoms: C_18  and  C_19
REMARK    7  A    between atoms: C_18  and  C_20
REMARK    8  A    between atoms: C_23  and  N_26
REMARK                            x       y       z     vdW  Elec       q    Type
REMARK                         _______ _______ _______ _____ _____    ______ ____
ROOT
ATOM      1  C   UNL     1      -1.673  -4.289   5.326  0.00  0.00    +0.219 C 
ATOM      2  O   UNL     1      -2.452  -3.393   5.574  0.00  0.00    -0.275 OA
ATOM      3  N   UNL     1      -1.325  -5.166   6.289  0.00  0.00    -0.308 N 
ATOM      4  H   UNL     1      -0.702  -5.882   6.090  0.00  0.00    +0.149 HD
ENDROOT
BRANCH   1   7
ATOM      5  N   UNL     1      -0.506  -2.956   2.136  0.00  0.00    -0.270 N 
ATOM      6  C   UNL     1      -1.631  -3.313   3.009  0.00  0.00    +0.127 C 
ATOM      7  C   UNL     1      -1.094  -4.422   3.941  0.00  0.00    +0.101 C 
ATOM      8  C   UNL     1       0.423  -4.122   3.945  0.00  0.00    +0.110 C 
ATOM      9  C   UNL     1       0.660  -3.398   2.638  0.00  0.00    +0.221 C 
ATOM     10  O   UNL     1       1.745  -3.237   2.119  0.00  0.00    -0.275 OA
BRANCH   5  16
ATOM     11  C   UNL     1      -0.603   1.334  -0.263  0.00  0.00    +0.044 C 
ATOM     12  C   UNL     1      -0.683  -0.171  -0.258  0.00  0.00    -0.046 A 
ATOM     13  C   UNL     1      -0.882  -0.856  -1.442  0.00  0.00    +0.004 A 
ATOM     14  C   UNL     1      -0.956  -2.237  -1.441  0.00  0.00    +0.002 A 
ATOM     15  C   UNL     1      -0.832  -2.936  -0.257  0.00  0.00    +0.024 A 
ATOM     16  C   UNL     1      -0.632  -2.251   0.934  0.00  0.00    +0.039 A 
ATOM     17  C   UNL     1      -0.553  -0.864   0.930  0.00  0.00    -0.026 A 
ATOM     18  C   UNL     1      -0.331  -0.117   2.219  0.00  0.00    +0.046 C 
ENDBRANCH   5  16
ENDBRANCH   1   7
BRANCH   3  19
ATOM     19  C   UNL     1      -1.888  -5.037   7.635  0.00  0.00    +0.100 C 
ATOM     20  C   UNL     1      -1.053  -4.042   8.444  0.00  0.00    +0.033 C 
BRANCH  19  21
ATOM     21  C   UNL     1      -1.870  -6.380   8.318  0.00  0.00    -0.027 A 
ATOM     22  C   UNL     1      -0.779  -7.216   8.167  0.00  0.00    +0.007 A 
ATOM     23  C   UNL     1      -0.759  -8.448   8.791  0.00  0.00    +0.023 A 
ATOM     24  C   UNL     1      -1.837  -8.846   9.572  0.00  0.00    +0.035 A 
ATOM     25  C   UNL     1      -2.931  -8.004   9.722  0.00  0.00    +0.023 A 
ATOM     26  C   UNL     1      -2.942  -6.771   9.099  0.00  0.00    +0.007 A 
BRANCH  24  27
ATOM     27  N   UNL     1      -1.820 -10.094  10.206  0.00  0.00    -0.270 N 
ATOM     28  C   UNL     1      -0.656 -10.610  10.647  0.00  0.00    +0.301 C 
ATOM     29  O   UNL     1       0.364  -9.951  10.582  0.00  0.00    -0.253 OA
ATOM     30  N   UNL     1      -0.622 -11.855  11.160  0.00  0.00    -0.313 N 
ATOM     31  H   UNL     1      -2.646 -10.587  10.328  0.00  0.00    +0.156 HD
ATOM     32  H   UNL     1      -1.436 -12.381  11.212  0.00  0.00    +0.146 HD
ATOM     33  H   UNL     1       0.215 -12.227  11.478  0.00  0.00    +0.146 HD
ENDBRANCH  24  27
ENDBRANCH  19  21
ENDBRANCH   3  19
TORSDOF 5
