REMARK  Name = ZINC03348379
REMARK  9 active torsions:
REMARK  status: ('A' for Active; 'I' for Inactive)
REMARK    1  A    between atoms: C_1  and  C_2
REMARK    2  A    between atoms: C_2  and  C_4
REMARK    3  A    between atoms: C_2  and  N_17
REMARK    4  A    between atoms: N_6  and  C_7
REMARK    5  A    between atoms: C_9  and  N_14
REMARK    6  A    between atoms: N_17  and  C_18
REMARK    7  A    between atoms: C_18  and  C_19
REMARK    8  A    between atoms: C_22  and  S_25
REMARK    9  A    between atoms: S_25  and  N_28
REMARK                            x       y       z     vdW  Elec       q    Type
REMARK                         _______ _______ _______ _____ _____    ______ ____
ROOT
ATOM      1  C   UNL     1      -0.002   1.540   0.019  0.00  0.00    -0.004 C 
ATOM      2  C   UNL     1       0.013   0.010   0.002  0.00  0.00    +0.014 C 
ENDROOT
BRANCH   2   3
ATOM      3  C   UNL     1       0.735  -0.498   1.223  0.00  0.00    +0.203 C 
ATOM      4  O   UNL     1       1.727  -1.185   1.099  0.00  0.00    -0.277 OA
ATOM      5  N   UNL     1       0.278  -0.191   2.453  0.00  0.00    -0.286 N 
ATOM      6  H   UNL     1      -0.476   0.411   2.554  0.00  0.00    +0.155 HD
BRANCH   5   7
ATOM      7  C   UNL     1       0.891  -0.739   3.585  0.00  0.00    +0.054 A 
ATOM      8  C   UNL     1       2.262  -0.963   3.594  0.00  0.00    +0.057 A 
ATOM      9  C   UNL     1       2.865  -1.504   4.713  0.00  0.00    +0.128 A 
ATOM     10  C   UNL     1       2.105  -1.822   5.824  0.00  0.00    +0.034 A 
ATOM     11  C   UNL     1       0.741  -1.601   5.819  0.00  0.00    +0.024 A 
ATOM     12  C   UNL     1       0.132  -1.055   4.705  0.00  0.00    +0.062 A 
ATOM     13 CL   UNL     1      -1.581  -0.770   4.702  0.00  0.00    -0.082 Cl
BRANCH   9  14
ATOM     14  N   UNL     1       4.325  -1.743   4.723  0.00  0.00    +0.056 N 
ATOM     15  O   UNL     1       4.990  -1.465   3.752  0.00  0.00    -0.126 OA
ATOM     16  O   UNL     1       4.854  -2.217   5.702  0.00  0.00    -0.126 OA
ENDBRANCH   9  14
ENDBRANCH   5   7
ENDBRANCH   2   3
BRANCH   2  17
ATOM     17  N   UNL     1       0.704  -0.460  -1.206  0.00  0.00    +0.389 N 
ATOM     18  H   UNL     1       1.624  -0.048  -1.249  0.00  0.00    -0.084 HD
ATOM     19  H   UNL     1       0.786  -1.465  -1.177  0.00  0.00    -0.084 HD
BRANCH  17  20
ATOM     20  C   UNL     1      -0.065  -0.065  -2.394  0.00  0.00    -0.046 C 
BRANCH  20  21
ATOM     21  C   UNL     1       0.644  -0.547  -3.634  0.00  0.00    -0.064 A 
ATOM     22  C   UNL     1       1.582   0.259  -4.252  0.00  0.00    +0.003 A 
ATOM     23  C   UNL     1       2.232  -0.183  -5.389  0.00  0.00    +0.029 A 
ATOM     24  C   UNL     1       1.944  -1.432  -5.908  0.00  0.00    +0.105 A 
ATOM     25  C   UNL     1       1.007  -2.238  -5.290  0.00  0.00    +0.029 A 
ATOM     26  C   UNL     1       0.360  -1.798  -4.150  0.00  0.00    +0.003 A 
BRANCH  24  27
ATOM     27  S   UNL     1       2.772  -1.995  -7.358  0.00  0.00    +0.056 S 
ATOM     28  O   UNL     1       1.930  -2.973  -7.952  0.00  0.00    -0.153 OA
ATOM     29  O   UNL     1       3.204  -0.835  -8.056  0.00  0.00    -0.153 OA
BRANCH  27  30
ATOM     30  N   UNL     1       4.141  -2.786  -6.864  0.00  0.00    -0.204 NA
ATOM     31  H   UNL     1       4.498  -3.514  -7.396  0.00  0.00    +0.144 HD
ATOM     32  H   UNL     1       4.584  -2.522  -6.043  0.00  0.00    +0.144 HD
ENDBRANCH  27  30
ENDBRANCH  24  27
ENDBRANCH  20  21
ENDBRANCH  17  20
ENDBRANCH   2  17
TORSDOF 8
