REMARK  Name = ZINC15868039
REMARK  8 active torsions:
REMARK  status: ('A' for Active; 'I' for Inactive)
REMARK    1  A    between atoms: C_1  and  C_2
REMARK    2  A    between atoms: C_6  and  C_8
REMARK    3  A    between atoms: C_18  and  S_21
REMARK    4  A    between atoms: S_21  and  C_22
REMARK    5  A    between atoms: C_22  and  C_23
REMARK    6  A    between atoms: N_25  and  C_26
REMARK    7  A    between atoms: C_26  and  C_27
REMARK    8  A    between atoms: C_27  and  C_28
REMARK                            x       y       z     vdW  Elec       q    Type
REMARK                         _______ _______ _______ _____ _____    ______ ____
ROOT
ATOM      1  C   UNL     1       1.893   2.962   0.001  0.00  0.00    +0.149 A 
ATOM      2  N   UNL     1       2.935   2.914   0.788  0.00  0.00    -0.228 NA
ATOM      3  C   UNL     1       3.759   1.838   0.833  0.00  0.00    +0.077 A 
ATOM      4  C   UNL     1       4.867   1.810   1.683  0.00  0.00    +0.028 A 
ATOM      5  C   UNL     1       5.684   0.701   1.706  0.00  0.00    +0.002 A 
ATOM      6  C   UNL     1       5.421  -0.392   0.891  0.00  0.00    +0.001 A 
ATOM      7  C   UNL     1       4.333  -0.388   0.044  0.00  0.00    +0.014 A 
ATOM      8  C   UNL     1       3.495   0.722   0.005  0.00  0.00    +0.045 A 
ATOM      9  C   UNL     1       2.323   0.783  -0.877  0.00  0.00    +0.173 A 
ATOM     10  N   UNL     1       1.552   1.931  -0.840  0.00  0.00    -0.253 N 
ATOM     11  C   UNL     1       0.548   1.724  -1.740  0.00  0.00    +0.198 A 
ATOM     12  N   UNL     1       0.732   0.531  -2.261  0.00  0.00    -0.122 NA
ATOM     13  N   UNL     1       1.777  -0.022  -1.752  0.00  0.00    -0.128 NA
ENDROOT
BRANCH   1  19
ATOM     14  C   UNL     1       1.445   7.915  -0.402  0.00  0.00    +0.044 C 
ATOM     15  C   UNL     1       0.829   6.559  -0.178  0.00  0.00    -0.050 A 
ATOM     16  C   UNL     1      -0.533   6.447   0.043  0.00  0.00    +0.003 A 
ATOM     17  C   UNL     1      -1.107   5.206   0.251  0.00  0.00    +0.001 A 
ATOM     18  C   UNL     1      -0.325   4.070   0.238  0.00  0.00    +0.011 A 
ATOM     19  C   UNL     1       1.049   4.175   0.015  0.00  0.00    +0.018 A 
ATOM     20  C   UNL     1       1.623   5.431  -0.188  0.00  0.00    +0.015 A 
ENDBRANCH   1  19
BRANCH  11  21
ATOM     21  S   UNL     1      -0.748   2.850  -2.137  0.00  0.00    -0.076 S 
BRANCH  21  22
ATOM     22  C   UNL     1      -1.638   1.879  -3.379  0.00  0.00    +0.173 C 
BRANCH  22  23
ATOM     23  C   UNL     1      -2.823   2.666  -3.877  0.00  0.00    +0.223 C 
ATOM     24  O   UNL     1      -3.045   3.773  -3.435  0.00  0.00    -0.275 OA
ATOM     25  N   UNL     1      -3.637   2.139  -4.812  0.00  0.00    -0.314 N 
ATOM     26  H   UNL     1      -3.460   1.253  -5.166  0.00  0.00    +0.149 HD
BRANCH  25  27
ATOM     27  C   UNL     1      -4.789   2.903  -5.296  0.00  0.00    +0.108 C 
BRANCH  27  28
ATOM     28  C   UNL     1      -5.541   2.083  -6.346  0.00  0.00    +0.049 C 
BRANCH  28  29
ATOM     29  C   UNL     1      -6.726   2.869  -6.844  0.00  0.00    -0.072 C 
ATOM     30  C   UNL     1      -6.581   3.567  -7.924  0.00  0.00    -0.028 C 
ATOM     31  C   UNL     1      -7.665   4.407  -8.535  0.00  0.00    +0.027 C 
ATOM     32  C   UNL     1      -9.029   3.997  -7.974  0.00  0.00    +0.004 C 
ATOM     33  C   UNL     1      -8.929   3.947  -6.444  0.00  0.00    +0.005 C 
ATOM     34  C   UNL     1      -8.003   2.790  -6.059  0.00  0.00    +0.030 C 
ENDBRANCH  28  29
ENDBRANCH  27  28
ENDBRANCH  25  27
ENDBRANCH  22  23
ENDBRANCH  21  22
ENDBRANCH  11  21
TORSDOF 7
