REMARK  Name = ZINC46715104
REMARK  11 active torsions:
REMARK  status: ('A' for Active; 'I' for Inactive)
REMARK    1  A    between atoms: C_1  and  C_2
REMARK    2  A    between atoms: C_2  and  C_3
REMARK    3  A    between atoms: C_3  and  C_5
REMARK    4  A    between atoms: C_3  and  C_6
REMARK    5  A    between atoms: C_6  and  C_8
REMARK    6  A    between atoms: C_6  and  N_27
REMARK    7  A    between atoms: N_10  and  C_11
REMARK    8  A    between atoms: C_11  and  C_12
REMARK    9  A    between atoms: C_17  and  C_18
REMARK   10  A    between atoms: C_18  and  N_19
REMARK   11  A    between atoms: C_24  and  C_26
REMARK                            x       y       z     vdW  Elec       q    Type
REMARK                         _______ _______ _______ _____ _____    ______ ____
ROOT
ATOM      1  C   UNL     1       1.343  -2.631   2.514  0.00  0.00    +0.234 C 
ATOM      2  O   UNL     1       0.610  -3.042   3.389  0.00  0.00    -0.274 OA
ATOM      3  N   UNL     1       2.673  -2.573   2.721  0.00  0.00    -0.310 N 
ATOM      4  H   UNL     1       3.259  -2.245   2.021  0.00  0.00    +0.149 HD
ENDROOT
BRANCH   1   5
ATOM      5  C   UNL     1       0.765  -2.185   1.195  0.00  0.00    +0.163 C 
BRANCH   5   6
ATOM      6  N   UNL     1      -0.569  -2.765   1.025  0.00  0.00    -0.288 N 
ATOM      7  C   UNL     1      -0.702  -4.030   0.580  0.00  0.00    +0.298 C 
ATOM      8  O   UNL     1       0.279  -4.659   0.235  0.00  0.00    -0.253 OA
ATOM      9  N   UNL     1      -1.923  -4.598   0.517  0.00  0.00    -0.313 N 
ATOM     10  H   UNL     1      -1.357  -2.239   1.233  0.00  0.00    +0.151 HD
ATOM     11  H   UNL     1      -2.706  -4.096   0.792  0.00  0.00    +0.146 HD
ATOM     12  H   UNL     1      -2.018  -5.508   0.196  0.00  0.00    +0.146 HD
ENDBRANCH   5   6
BRANCH   5  13
ATOM     13  C   UNL     1       0.664  -0.658   1.173  0.00  0.00    +0.015 C 
ATOM     14  C   UNL     1      -0.344  -0.199   2.229  0.00  0.00    +0.010 C 
BRANCH  13  16
ATOM     15  C   UNL     1       0.218   1.331  -0.271  0.00  0.00    +0.004 C 
ATOM     16  C   UNL     1       0.200  -0.198  -0.210  0.00  0.00    +0.002 C 
ENDBRANCH  13  16
ENDBRANCH   5  13
ENDBRANCH   1   5
BRANCH   3  17
ATOM     17  C   UNL     1       3.235  -3.007   4.002  0.00  0.00    +0.139 C 
BRANCH  17  18
ATOM     18  C   UNL     1       4.732  -2.843   3.976  0.00  0.00    -0.029 A 
ATOM     19  C   UNL     1       5.543  -3.936   3.732  0.00  0.00    +0.005 A 
ATOM     20  C   UNL     1       6.917  -3.785   3.708  0.00  0.00    +0.000 A 
ATOM     21  C   UNL     1       7.480  -2.542   3.927  0.00  0.00    +0.000 A 
ATOM     22  C   UNL     1       6.669  -1.449   4.170  0.00  0.00    +0.002 A 
ATOM     23  C   UNL     1       5.295  -1.599   4.190  0.00  0.00    -0.059 A 
BRANCH  23  24
ATOM     24  C   UNL     1       4.411  -0.407   4.449  0.00  0.00    -0.042 C 
BRANCH  24  25
ATOM     25  N   UNL     1       3.980  -0.413   5.854  0.00  0.00    +0.384 N 
ATOM     26  C   UNL     1       5.150  -0.236   6.723  0.00  0.00    -0.078 C 
ATOM     27  C   UNL     1       4.718  -0.323   8.189  0.00  0.00    -0.019 C 
ATOM     28  C   UNL     1       3.693   0.777   8.480  0.00  0.00    -0.003 C 
ATOM     29  C   UNL     1       2.512   0.628   7.517  0.00  0.00    -0.016 C 
ATOM     30  C   UNL     1       3.025   0.679   6.076  0.00  0.00    -0.071 C 
ATOM     31  C   UNL     1       1.848   0.530   5.110  0.00  0.00    -0.013 C 
ATOM     32  H   UNL     1       3.537  -1.294   6.065  0.00  0.00    -0.081 HD
ENDBRANCH  24  25
ENDBRANCH  23  24
ENDBRANCH  17  18
ENDBRANCH   3  17
TORSDOF 8
