REMARK  Name = ZINC23888522
REMARK  10 active torsions:
REMARK  status: ('A' for Active; 'I' for Inactive)
REMARK    1  A    between atoms: C_1  and  C_2
REMARK    2  A    between atoms: C_2  and  C_3
REMARK    3  A    between atoms: C_8  and  O_37
REMARK    4  A    between atoms: C_9  and  C_11
REMARK    5  A    between atoms: C_11  and  C_13
REMARK    6  A    between atoms: C_11  and  N_23
REMARK    7  A    between atoms: C_16  and  C_19
REMARK    8  A    between atoms: N_26  and  C_29
REMARK    9  A    between atoms: C_32  and  O_35
REMARK   10  A    between atoms: O_35  and  C_36
REMARK                            x       y       z     vdW  Elec       q    Type
REMARK                         _______ _______ _______ _____ _____    ______ ____
ROOT
ATOM      1  C   UNL     1       1.868  -6.128   1.013  0.00  0.00    +0.129 C 
ENDROOT
BRANCH   1   8
ATOM      2  C   UNL     1       7.316  -8.536   0.757  0.00  0.00    +0.152 A 
ATOM      3  N   UNL     1       7.115  -7.557   1.637  0.00  0.00    -0.205 NA
ATOM      4  C   UNL     1       5.877  -7.153   1.555  0.00  0.00    +0.199 A 
ATOM      5  N   UNL     1       5.223  -7.871   0.601  0.00  0.00    -0.173 N 
ATOM      6  N   UNL     1       6.208  -8.766   0.107  0.00  0.00    -0.147 NA
ATOM      7  C   UNL     1       3.900  -7.571   0.384  0.00  0.00    +0.228 A 
ATOM      8  C   UNL     1       3.293  -6.610   1.091  0.00  0.00    +0.076 A 
ATOM      9  S   UNL     1       4.620  -6.044   2.145  0.00  0.00    -0.047 S 
BRANCH   2  11
ATOM     10  C   UNL     1       8.676 -10.484   1.470  0.00  0.00    +0.012 C 
ATOM     11  C   UNL     1       8.618  -9.265   0.546  0.00  0.00    +0.075 C 
ENDBRANCH   2  11
BRANCH   7  12
ATOM     12  O   UNL     1       3.199  -8.259  -0.558  0.00  0.00    -0.492 OA
ATOM     13  H   UNL     1       2.139  -8.023  -0.736  0.00  0.00    +0.294 HD
ENDBRANCH   7  12
ENDBRANCH   1   8
BRANCH   1  14
ATOM     14  C   UNL     1       1.096  -6.647   2.199  0.00  0.00    -0.025 A 
ATOM     15  C   UNL     1       1.210  -6.021   3.426  0.00  0.00    +0.006 A 
ATOM     16  C   UNL     1       0.499  -6.495   4.512  0.00  0.00    +0.013 A 
ATOM     17  C   UNL     1      -0.319  -7.601   4.374  0.00  0.00    +0.055 A 
ATOM     18  C   UNL     1      -0.429  -8.230   3.148  0.00  0.00    +0.013 A 
ATOM     19  C   UNL     1       0.279  -7.753   2.060  0.00  0.00    +0.006 A 
BRANCH  17  20
ATOM     20  C   UNL     1      -1.089  -8.121   5.560  0.00  0.00    +0.417 C 
ATOM     21  F   UNL     1      -0.316  -9.068   6.239  0.00  0.00    -0.166 F 
ATOM     22  F   UNL     1      -1.391  -7.061   6.421  0.00  0.00    -0.166 F 
ATOM     23  F   UNL     1      -2.276  -8.717   5.120  0.00  0.00    -0.166 F 
ENDBRANCH  17  20
ENDBRANCH   1  14
BRANCH   1  24
ATOM     24  N   UNL     1       1.847  -4.659   1.020  0.00  0.00    -0.288 NA
ATOM     25  C   UNL     1       2.591  -4.116  -0.124  0.00  0.00    +0.104 C 
ATOM     26  C   UNL     1       2.613  -2.588  -0.036  0.00  0.00    +0.120 C 
ATOM     27  N   UNL     1       1.234  -2.081  -0.021  0.00  0.00    -0.327 N 
ATOM     28  C   UNL     1       0.490  -2.624   1.124  0.00  0.00    +0.120 C 
ATOM     29  C   UNL     1       0.468  -4.152   1.036  0.00  0.00    +0.104 C 
BRANCH  27  30
ATOM     30  C   UNL     1       1.214  -0.681  -0.013  0.00  0.00    +0.030 A 
ATOM     31  C   UNL     1       0.002  -0.004   0.002  0.00  0.00    +0.027 A 
ATOM     32  C   UNL     1      -0.017   1.377   0.010  0.00  0.00    +0.047 A 
ATOM     33  C   UNL     1       1.175   2.087   0.002  0.00  0.00    +0.120 A 
ATOM     34  C   UNL     1       2.386   1.411  -0.013  0.00  0.00    +0.047 A 
ATOM     35  C   UNL     1       2.406   0.030  -0.021  0.00  0.00    +0.027 A 
BRANCH  33  36
ATOM     36  O   UNL     1       1.155   3.447   0.009  0.00  0.00    -0.495 OA
ATOM     37  C   UNL     1       2.419   4.114   0.001  0.00  0.00    +0.277 C 
ENDBRANCH  33  36
ENDBRANCH  27  30
ENDBRANCH   1  24
TORSDOF 8
