REMARK  Name = ZINC03136762
REMARK  7 active torsions:
REMARK  status: ('A' for Active; 'I' for Inactive)
REMARK    1  A    between atoms: C_6  and  N_7
REMARK    2  A    between atoms: N_7  and  C_8
REMARK    3  A    between atoms: C_8  and  N_10
REMARK    4  A    between atoms: N_10  and  C_11
REMARK    5  A    between atoms: C_11  and  C_13
REMARK    6  A    between atoms: C_11  and  N_17
REMARK    7  A    between atoms: C_18  and  C_20
REMARK                            x       y       z     vdW  Elec       q    Type
REMARK                         _______ _______ _______ _____ _____    ______ ____
ROOT
ATOM      1  N   UNL     1      -0.007   1.496  -0.402  0.00  0.00    -0.305 N 
ATOM      2  H   UNL     1      -0.840   1.910  -0.128  0.00  0.00    +0.150 HD
ENDROOT
BRANCH   1   3
ATOM      3  C   UNL     1       1.136   2.211  -0.389  0.00  0.00    +0.136 C 
ATOM      4  S   UNL     1       2.606   1.483  -0.879  0.00  0.00    -0.019 S 
BRANCH   3   5
ATOM      5  N   UNL     1       1.122   3.498   0.010  0.00  0.00    -0.297 N 
ATOM      6  H   UNL     1       0.281   3.929   0.229  0.00  0.00    +0.154 HD
BRANCH   5  12
ATOM      7  C   UNL     1       2.570   5.003   1.223  0.00  0.00    +0.024 A 
ATOM      8  C   UNL     1       3.757   5.703   1.320  0.00  0.00    +0.017 A 
ATOM      9  C   UNL     1       4.691   5.628   0.302  0.00  0.00    +0.018 A 
ATOM     10  C   UNL     1       4.442   4.847  -0.812  0.00  0.00    +0.017 A 
ATOM     11  C   UNL     1       3.260   4.140  -0.912  0.00  0.00    +0.024 A 
ATOM     12  C   UNL     1       2.320   4.213   0.108  0.00  0.00    +0.033 A 
ATOM     13 BR   UNL     1       6.311   6.595   0.434  0.00  0.00    -0.050 Br
ENDBRANCH   5  12
ENDBRANCH   3   5
ENDBRANCH   1   3
BRANCH   1  14
ATOM     14  C   UNL     1       0.009   0.097  -0.835  0.00  0.00    +0.211 C 
BRANCH  14  15
ATOM     15  C   UNL     1      -0.817  -0.747   0.138  0.00  0.00    +0.225 C 
ATOM     16 CL   UNL     1      -2.516  -0.145   0.164  0.00  0.00    -0.080 Cl
ATOM     17 CL   UNL     1      -0.798  -2.469  -0.396  0.00  0.00    -0.080 Cl
ATOM     18 CL   UNL     1      -0.110  -0.623   1.791  0.00  0.00    -0.080 Cl
ENDBRANCH  14  15
BRANCH  14  19
ATOM     19  N   UNL     1      -0.566  -0.004  -2.179  0.00  0.00    -0.291 N 
ATOM     20  C   UNL     1       0.238  -0.199  -3.243  0.00  0.00    +0.245 C 
ATOM     21  O   UNL     1       1.438  -0.290  -3.088  0.00  0.00    -0.273 OA
ATOM     22  H   UNL     1      -1.525   0.069  -2.303  0.00  0.00    +0.151 HD
BRANCH  20  23
ATOM     23  C   UNL     1      -0.353  -0.303  -4.625  0.00  0.00    +0.308 C 
ATOM     24  F   UNL     1       0.672  -0.503  -5.556  0.00  0.00    -0.239 F 
ENDBRANCH  20  23
ENDBRANCH  14  19
ENDBRANCH   1  14
TORSDOF 7
