REMARK  Name = ZINC09486616
REMARK  5 active torsions:
REMARK  status: ('A' for Active; 'I' for Inactive)
REMARK    1  A    between atoms: C_1  and  C_2
REMARK    2  A    between atoms: C_4  and  C_25
REMARK    3  A    between atoms: C_6  and  N_8
REMARK    4  A    between atoms: C_11  and  C_13
REMARK    5  A    between atoms: C_14  and  C_20
REMARK                            x       y       z     vdW  Elec       q    Type
REMARK                         _______ _______ _______ _____ _____    ______ ____
ROOT
ATOM      1  N   UNL     1       0.053  -2.798   2.395  0.00  0.00    -0.218 N 
ATOM      2  C   UNL     1       0.673  -2.421   3.531  0.00  0.00    +0.133 A 
ATOM      3  C   UNL     1       0.432  -3.385   4.474  0.00  0.00    +0.023 A 
ATOM      4  C   UNL     1      -0.344  -4.373   3.887  0.00  0.00    +0.066 A 
ATOM      5  N   UNL     1      -0.580  -4.027   2.643  0.00  0.00    -0.170 NA
ATOM      6  C   UNL     1      -0.838  -5.627   4.563  0.00  0.00    +0.068 C 
ATOM      7  C   UNL     1       0.959  -3.285   5.883  0.00  0.00    +0.063 C 
ATOM      8  C   UNL     1       2.256  -2.470   5.854  0.00  0.00    +0.109 C 
ATOM      9  C   UNL     1       2.117  -1.256   4.980  0.00  0.00    +0.219 C 
ATOM     10  O   UNL     1       2.638  -0.217   5.328  0.00  0.00    -0.275 OA
ATOM     11  N   UNL     1       1.429  -1.285   3.818  0.00  0.00    -0.270 N 
ATOM     12  H   UNL     1       1.460  -0.537   3.201  0.00  0.00    +0.156 HD
ENDROOT
BRANCH   1  18
ATOM     13  C   UNL     1      -0.018   1.503   0.010  0.00  0.00    +0.044 C 
ATOM     14  C   UNL     1       0.002  -0.004   0.002  0.00  0.00    -0.048 A 
ATOM     15  C   UNL     1       0.006  -0.688  -1.200  0.00  0.00    +0.006 A 
ATOM     16  C   UNL     1       0.025  -2.071  -1.211  0.00  0.00    -0.048 A 
ATOM     17  C   UNL     1       0.040  -2.773  -0.022  0.00  0.00    +0.031 A 
ATOM     18  C   UNL     1       0.037  -2.089   1.186  0.00  0.00    +0.068 A 
ATOM     19  C   UNL     1       0.023  -0.700   1.195  0.00  0.00    +0.031 A 
ATOM     20  C   UNL     1       0.028  -2.812  -2.523  0.00  0.00    +0.044 C 
ENDBRANCH   1  18
BRANCH   7  21
ATOM     21  C   UNL     1       1.238  -4.665   6.421  0.00  0.00    -0.032 A 
ATOM     22  C   UNL     1       0.582  -5.124   7.547  0.00  0.00    +0.012 A 
ATOM     23  C   UNL     1       0.855  -6.371   8.005  0.00  0.00    +0.045 A 
ATOM     24  S   UNL     1       2.072  -6.937   6.829  0.00  0.00    -0.105 S 
ATOM     25  C   UNL     1       2.131  -5.477   5.803  0.00  0.00    +0.049 A 
ENDBRANCH   7  21
TORSDOF 2
