REMARK  Name = ZINC03162264
REMARK  6 active torsions:
REMARK  status: ('A' for Active; 'I' for Inactive)
REMARK    1  A    between atoms: C_1  and  C_2
REMARK    2  A    between atoms: C_2  and  C_4
REMARK    3  A    between atoms: C_2  and  N_10
REMARK    4  A    between atoms: C_11  and  C_13
REMARK    5  A    between atoms: N_15  and  N_16
REMARK    6  A    between atoms: C_17  and  C_18
REMARK                            x       y       z     vdW  Elec       q    Type
REMARK                         _______ _______ _______ _____ _____    ______ ____
ROOT
ATOM      1  C   UNL     1       3.118   5.827  -2.372  0.00  0.00    +0.318 C 
ATOM      2  O   UNL     1       4.087   5.140  -2.627  0.00  0.00    -0.263 OA
ATOM      3  N   UNL     1       3.003   7.057  -2.912  0.00  0.00    -0.199 N 
ATOM      4  H   UNL     1       2.230   7.606  -2.708  0.00  0.00    +0.178 HD
ENDROOT
BRANCH   1   6
ATOM      5  N   UNL     1       2.172   4.082  -0.921  0.00  0.00    -0.301 N 
ATOM      6  C   UNL     1       2.057   5.311  -1.461  0.00  0.00    +0.301 C 
ATOM      7  O   UNL     1       1.089   5.998  -1.206  0.00  0.00    -0.265 OA
ATOM      8  H   UNL     1       2.945   3.533  -1.124  0.00  0.00    +0.150 HD
BRANCH   5  10
ATOM      9  C   UNL     1       1.396   4.065   1.399  0.00  0.00    +0.033 C 
ATOM     10  C   UNL     1       1.129   3.575  -0.025  0.00  0.00    +0.101 C 
BRANCH  10  11
ATOM     11  C   UNL     1       1.137   2.068  -0.047  0.00  0.00    -0.027 A 
ATOM     12  C   UNL     1      -0.056   1.370  -0.041  0.00  0.00    +0.005 A 
ATOM     13  C   UNL     1      -0.048  -0.013  -0.061  0.00  0.00    +0.000 A 
ATOM     14  C   UNL     1       1.153  -0.697  -0.089  0.00  0.00    +0.000 A 
ATOM     15  C   UNL     1       2.346   0.001  -0.095  0.00  0.00    +0.000 A 
ATOM     16  C   UNL     1       2.338   1.383  -0.075  0.00  0.00    +0.005 A 
ENDBRANCH  10  11
ENDBRANCH   5  10
ENDBRANCH   1   6
BRANCH   3  17
ATOM     17  N   UNL     1       4.001   7.542  -3.768  0.00  0.00    -0.187 NA
ATOM     18  C   UNL     1       3.890   8.730  -4.291  0.00  0.00    +0.139 C 
BRANCH  18  19
ATOM     19  C   UNL     1       4.932   9.237  -5.186  0.00  0.00    +0.010 A 
ATOM     20  C   UNL     1       4.762  10.467  -5.855  0.00  0.00    -0.009 A 
ATOM     21  C   UNL     1       3.601  11.238  -5.672  0.00  0.00    +0.009 A 
ATOM     22  C   UNL     1       3.471  12.423  -6.328  0.00  0.00    +0.001 A 
ATOM     23  C   UNL     1       4.466  12.901  -7.179  0.00  0.00    +0.001 A 
ATOM     24  C   UNL     1       5.614  12.207  -7.394  0.00  0.00    +0.008 A 
ATOM     25  C   UNL     1       5.811  10.970  -6.744  0.00  0.00    -0.017 A 
ATOM     26  C   UNL     1       6.979  10.233  -6.943  0.00  0.00    +0.017 A 
ATOM     27  C   UNL     1       7.154   9.012  -6.289  0.00  0.00    -0.017 A 
ATOM     28  C   UNL     1       6.116   8.499  -5.393  0.00  0.00    -0.009 A 
ATOM     29  C   UNL     1       6.324   7.266  -4.750  0.00  0.00    +0.009 A 
ATOM     30  C   UNL     1       7.478   6.580  -4.971  0.00  0.00    +0.001 A 
ATOM     31  C   UNL     1       8.467   7.066  -5.823  0.00  0.00    +0.001 A 
ATOM     32  C   UNL     1       8.327   8.250  -6.475  0.00  0.00    +0.008 A 
ENDBRANCH  18  19
ENDBRANCH   3  17
TORSDOF 5
