REMARK  Name = ZINC43231296
REMARK  7 active torsions:
REMARK  status: ('A' for Active; 'I' for Inactive)
REMARK    1  A    between atoms: C_1  and  C_2
REMARK    2  A    between atoms: C_7  and  N_8
REMARK    3  A    between atoms: N_11  and  N_12
REMARK    4  A    between atoms: N_15  and  C_16
REMARK    5  A    between atoms: C_16  and  C_17
REMARK    6  A    between atoms: C_17  and  C_19
REMARK    7  A    between atoms: C_17  and  N_24
REMARK                            x       y       z     vdW  Elec       q    Type
REMARK                         _______ _______ _______ _____ _____    ______ ____
ROOT
ATOM      1  N   UNL     1      -0.468   1.362   4.744  0.00  0.00    -0.217 N 
ATOM      2  C   UNL     1      -0.460   2.034   5.912  0.00  0.00    +0.316 C 
ATOM      3  O   UNL     1      -0.420   3.249   5.914  0.00  0.00    -0.251 OA
ATOM      4  N   UNL     1      -0.497   1.359   7.078  0.00  0.00    -0.299 N 
ATOM      5  H   UNL     1      -0.441   1.848   3.905  0.00  0.00    +0.174 HD
ATOM      6  H   UNL     1      -0.530   0.390   7.076  0.00  0.00    +0.150 HD
ENDROOT
BRANCH   1  10
ATOM      7  N   UNL     1      -0.485  -0.035   2.407  0.00  0.00    -0.268 N 
ATOM      8  C   UNL     1      -0.522  -0.710   3.573  0.00  0.00    +0.320 C 
ATOM      9  O   UNL     1      -0.562  -1.925   3.571  0.00  0.00    -0.251 OA
ATOM     10  N   UNL     1      -0.514  -0.038   4.741  0.00  0.00    -0.217 N 
ATOM     11  H   UNL     1      -0.380   0.929   2.408  0.00  0.00    +0.156 HD
ATOM     12  H   UNL     1      -0.541  -0.524   5.580  0.00  0.00    +0.174 HD
BRANCH   7  19
ATOM     13  C   UNL     1      -1.839   1.240   0.254  0.00  0.00    +0.045 C 
ATOM     14  C   UNL     1      -1.249  -0.140   0.118  0.00  0.00    -0.029 A 
ATOM     15  C   UNL     1      -1.352  -0.822  -1.079  0.00  0.00    +0.005 A 
ATOM     16  C   UNL     1      -0.812  -2.088  -1.203  0.00  0.00    +0.000 A 
ATOM     17  C   UNL     1      -0.167  -2.677  -0.131  0.00  0.00    +0.002 A 
ATOM     18  C   UNL     1      -0.060  -2.000   1.068  0.00  0.00    +0.023 A 
ATOM     19  C   UNL     1      -0.597  -0.726   1.195  0.00  0.00    +0.038 A 
ENDBRANCH   7  19
ENDBRANCH   1  10
BRANCH   4  20
ATOM     20  C   UNL     1      -0.489   2.090   8.348  0.00  0.00    +0.095 C 
BRANCH  20  21
ATOM     21  C   UNL     1      -0.413   1.095   9.508  0.00  0.00    -0.013 C 
BRANCH  21  22
ATOM     22  N   UNL     1      -0.280   1.829  10.774  0.00  0.00    +0.386 N 
ATOM     23  C   UNL     1      -0.023   0.882  11.889  0.00  0.00    -0.078 C 
ATOM     24  C   UNL     1       0.634   1.778  12.970  0.00  0.00    -0.020 C 
ATOM     25  C   UNL     1       1.514   2.737  12.135  0.00  0.00    -0.020 C 
ATOM     26  C   UNL     1       0.898   2.722  10.724  0.00  0.00    -0.078 C 
ATOM     27  H   UNL     1      -1.115   2.364  10.956  0.00  0.00    -0.081 HD
ENDBRANCH  21  22
BRANCH  21  28
ATOM     28  C   UNL     1      -1.669   0.263   9.539  0.00  0.00    -0.022 A 
ATOM     29  C   UNL     1      -1.870  -0.997   9.082  0.00  0.00    +0.009 A 
ATOM     30  C   UNL     1      -3.121  -1.569   9.219  0.00  0.00    +0.008 A 
ATOM     31  C   UNL     1      -4.110  -0.852   9.808  0.00  0.00    +0.045 A 
ATOM     32  S   UNL     1      -3.276   0.678  10.196  0.00  0.00    -0.103 S 
ENDBRANCH  21  28
ENDBRANCH  20  21
ENDBRANCH   4  20
TORSDOF 6
