REMARK  Name = ZINC63661387
REMARK  9 active torsions:
REMARK  status: ('A' for Active; 'I' for Inactive)
REMARK    1  A    between atoms: C_1  and  C_2
REMARK    2  A    between atoms: C_5  and  C_8
REMARK    3  A    between atoms: C_8  and  C_9
REMARK    4  A    between atoms: C_9  and  C_10
REMARK    5  A    between atoms: C_10  and  C_11
REMARK    6  A    between atoms: C_11  and  C_12
REMARK    7  A    between atoms: N_14  and  C_15
REMARK    8  A    between atoms: C_18  and  C_21
REMARK    9  A    between atoms: C_21  and  N_22
REMARK                            x       y       z     vdW  Elec       q    Type
REMARK                         _______ _______ _______ _____ _____    ______ ____
ROOT
ATOM      1  C   UNL     1       2.997  -8.294  -0.058  0.00  0.00    +0.217 C 
ATOM      2  O   UNL     1       1.954  -8.914  -0.047  0.00  0.00    -0.275 OA
ATOM      3  N   UNL     1       4.172  -8.953  -0.070  0.00  0.00    -0.285 N 
ATOM      4  H   UNL     1       5.004  -8.460  -0.146  0.00  0.00    +0.155 HD
ENDROOT
BRANCH   3   5
ATOM      5  C   UNL     1       4.193 -10.349   0.028  0.00  0.00    +0.033 A 
ATOM      6  C   UNL     1       5.217 -10.983   0.720  0.00  0.00    +0.023 A 
ATOM      7  C   UNL     1       5.235 -12.361   0.815  0.00  0.00    +0.007 A 
ATOM      8  C   UNL     1       4.234 -13.109   0.222  0.00  0.00    -0.030 A 
ATOM      9  C   UNL     1       3.214 -12.481  -0.468  0.00  0.00    +0.007 A 
ATOM     10  C   UNL     1       3.187 -11.103  -0.562  0.00  0.00    +0.023 A 
BRANCH   8  11
ATOM     11  C   UNL     1       4.257 -14.612   0.327  0.00  0.00    +0.141 C 
BRANCH  11  12
ATOM     12  N   UNL     1       3.522 -15.029   1.524  0.00  0.00    -0.295 N 
ATOM     13  C   UNL     1       3.409 -16.338   1.824  0.00  0.00    +0.297 C 
ATOM     14  O   UNL     1       3.918 -17.173   1.101  0.00  0.00    -0.253 OA
ATOM     15  N   UNL     1       2.733 -16.721   2.925  0.00  0.00    -0.313 N 
ATOM     16  H   UNL     1       3.116 -14.362   2.100  0.00  0.00    +0.151 HD
ATOM     17  H   UNL     1       2.328 -16.055   3.502  0.00  0.00    +0.146 HD
ATOM     18  H   UNL     1       2.652 -17.663   3.141  0.00  0.00    +0.146 HD
ENDBRANCH  11  12
ENDBRANCH   8  11
ENDBRANCH   3   5
BRANCH   1  19
ATOM     19  C   UNL     1       2.977  -6.788  -0.058  0.00  0.00    +0.096 C 
BRANCH  19  20
ATOM     20  C   UNL     1       1.528  -6.296  -0.043  0.00  0.00    +0.009 C 
BRANCH  20  21
ATOM     21  C   UNL     1       1.509  -4.766  -0.044  0.00  0.00    +0.005 C 
BRANCH  21  22
ATOM     22  C   UNL     1       0.060  -4.275  -0.029  0.00  0.00    +0.035 C 
BRANCH  22  27
ATOM     23  C   UNL     1      -0.018   1.503  -0.030  0.00  0.00    +0.044 C 
ATOM     24  C   UNL     1       0.003  -0.004  -0.030  0.00  0.00    -0.050 A 
ATOM     25  C   UNL     1       0.001  -0.695  -1.227  0.00  0.00    +0.003 A 
ATOM     26  C   UNL     1       0.019  -2.077  -1.226  0.00  0.00    +0.004 A 
ATOM     27  C   UNL     1       0.041  -2.768  -0.029  0.00  0.00    -0.047 A 
ATOM     28  C   UNL     1       0.043  -2.076   1.168  0.00  0.00    +0.004 A 
ATOM     29  C   UNL     1       0.029  -0.694   1.167  0.00  0.00    +0.003 A 
ENDBRANCH  22  27
ENDBRANCH  21  22
ENDBRANCH  20  21
ENDBRANCH  19  20
ENDBRANCH   1  19
TORSDOF 8
