REMARK  Name = ZINC13640431
REMARK  8 active torsions:
REMARK  status: ('A' for Active; 'I' for Inactive)
REMARK    1  A    between atoms: C_1  and  C_2
REMARK    2  A    between atoms: C_2  and  C_3
REMARK    3  A    between atoms: C_2  and  C_4
REMARK    4  A    between atoms: C_4  and  C_5
REMARK    5  A    between atoms: N_7  and  C_8
REMARK    6  A    between atoms: C_21  and  C_24
REMARK    7  A    between atoms: C_27  and  O_31
REMARK    8  A    between atoms: C_29  and  O_30
REMARK                            x       y       z     vdW  Elec       q    Type
REMARK                         _______ _______ _______ _____ _____    ______ ____
ROOT
ATOM      1  C   UNL     1      -0.010   6.628   2.055  0.00  0.00    +0.034 A 
ATOM      2  C   UNL     1      -0.228   6.864   0.705  0.00  0.00    +0.025 A 
ATOM      3  C   UNL     1      -0.600   5.828  -0.127  0.00  0.00    +0.025 A 
ATOM      4  C   UNL     1      -0.761   4.544   0.377  0.00  0.00    +0.031 A 
ATOM      5  C   UNL     1      -0.528   4.307   1.737  0.00  0.00    -0.018 A 
ATOM      6  C   UNL     1      -0.162   5.345   2.565  0.00  0.00    +0.029 A 
ATOM      7  C   UNL     1      -0.689   2.921   2.226  0.00  0.00    +0.049 C 
ATOM      8  C   UNL     1      -1.028   2.593   3.645  0.00  0.00    -0.023 C 
ATOM      9  C   UNL     1      -1.764   1.489   3.674  0.00  0.00    -0.030 C 
ATOM     10  C   UNL     1      -1.996   0.977   2.251  0.00  0.00    +0.033 C 
ATOM     11  C   UNL     1      -1.860   2.267   1.432  0.00  0.00    +0.029 C 
ATOM     12  C   UNL     1      -1.357   2.133   0.006  0.00  0.00    +0.108 C 
ATOM     13  N   UNL     1      -1.175   3.517  -0.484  0.00  0.00    -0.336 N 
ATOM     14  H   UNL     1      -1.345   3.718  -1.417  0.00  0.00    +0.147 HD
ENDROOT
BRANCH  12  15
ATOM     15  C   UNL     1      -0.042   1.396  -0.015  0.00  0.00    +0.015 A 
ATOM     16  C   UNL     1       1.145   2.103  -0.026  0.00  0.00    +0.012 A 
ATOM     17  C   UNL     1       2.352   1.431  -0.051  0.00  0.00    +0.046 A 
ATOM     18  C   UNL     1       2.374   0.043  -0.065  0.00  0.00    +0.120 A 
ATOM     19  C   UNL     1       1.184  -0.668  -0.054  0.00  0.00    +0.091 A 
ATOM     20  C   UNL     1      -0.025   0.009  -0.029  0.00  0.00    +0.125 A 
BRANCH  20  21
ATOM     21  O   UNL     1      -1.194  -0.686  -0.017  0.00  0.00    -0.506 OA
ATOM     22  H   UNL     1      -1.546  -0.878  -0.897  0.00  0.00    +0.292 HD
ENDBRANCH  20  21
BRANCH  18  23
ATOM     23  O   UNL     1       3.561  -0.618  -0.089  0.00  0.00    -0.507 OA
ATOM     24  H   UNL     1       3.891  -0.801  -0.980  0.00  0.00    +0.292 HD
ENDBRANCH  18  23
ENDBRANCH  12  15
BRANCH   1  27
ATOM     25  C   UNL     1       1.161   8.664   2.443  0.00  0.00    +0.217 C 
ATOM     26  O   UNL     1       1.490   8.683   1.276  0.00  0.00    -0.275 OA
ATOM     27  N   UNL     1       0.362   7.681   2.902  0.00  0.00    -0.285 N 
ATOM     28  H   UNL     1       0.044   7.702   3.818  0.00  0.00    +0.155 HD
BRANCH  25  29
ATOM     29  C   UNL     1       1.645   9.741   3.380  0.00  0.00    +0.099 C 
BRANCH  29  31
ATOM     30  C   UNL     1       2.919  11.885   3.531  0.00  0.00    +0.008 C 
ATOM     31  C   UNL     1       2.529  10.725   2.612  0.00  0.00    -0.008 C 
ATOM     32  C   UNL     1       3.792  10.009   2.131  0.00  0.00    +0.008 C 
ENDBRANCH  29  31
ENDBRANCH  25  29
ENDBRANCH   1  27
TORSDOF 6
