REMARK  Name = ZINC28910650
REMARK  11 active torsions:
REMARK  status: ('A' for Active; 'I' for Inactive)
REMARK    1  A    between atoms: C_1  and  C_2
REMARK    2  A    between atoms: C_2  and  C_3
REMARK    3  A    between atoms: C_3  and  N_4
REMARK    4  A    between atoms: C_13  and  C_15
REMARK    5  A    between atoms: N_17  and  C_18
REMARK    6  A    between atoms: C_18  and  C_19
REMARK    7  A    between atoms: C_19  and  C_21
REMARK    8  A    between atoms: C_19  and  C_30
REMARK    9  A    between atoms: C_24  and  N_27
REMARK   10  A    between atoms: N_27  and  C_28
REMARK   11  A    between atoms: N_27  and  C_29
REMARK                            x       y       z     vdW  Elec       q    Type
REMARK                         _______ _______ _______ _____ _____    ______ ____
ROOT
ATOM      1  C   UNL     1       3.294  -6.572  -0.069  0.00  0.00    +0.068 C 
ENDROOT
BRANCH   1   2
ATOM      2  C   UNL     1       2.595  -6.912  -1.360  0.00  0.00    -0.013 A 
ATOM      3  C   UNL     1       3.086  -6.755  -2.600  0.00  0.00    +0.088 A 
ATOM      4  N   UNL     1       2.166  -7.172  -3.522  0.00  0.00    -0.360 N 
ATOM      5  H   UNL     1       2.399  -7.116  -4.596  0.00  0.00    +0.165 HD
ATOM      6  C   UNL     1       1.031  -7.620  -2.883  0.00  0.00    +0.047 A 
ATOM      7  C   UNL     1       1.252  -7.481  -1.500  0.00  0.00    +0.003 A 
ATOM      8  C   UNL     1       0.262  -7.866  -0.595  0.00  0.00    +0.010 A 
ATOM      9  C   UNL     1      -0.917  -8.379  -1.057  0.00  0.00    +0.001 A 
ATOM     10  C   UNL     1      -1.139  -8.520  -2.420  0.00  0.00    +0.002 A 
ATOM     11  C   UNL     1      -0.178  -8.140  -3.331  0.00  0.00    +0.026 A 
ENDBRANCH   1   2
BRANCH   1  12
ATOM     12  C   UNL     1       4.566  -7.372   0.038  0.00  0.00    -0.038 A 
ATOM     13  C   UNL     1       5.549  -7.239  -0.926  0.00  0.00    +0.006 A 
ATOM     14  C   UNL     1       6.719  -7.966  -0.827  0.00  0.00    +0.023 A 
ATOM     15  C   UNL     1       6.903  -8.842   0.235  0.00  0.00    +0.029 A 
ATOM     16  C   UNL     1       5.912  -8.978   1.199  0.00  0.00    +0.023 A 
ATOM     17  C   UNL     1       4.747  -8.243   1.097  0.00  0.00    +0.006 A 
BRANCH  15  18
ATOM     18  N   UNL     1       8.082  -9.584   0.335  0.00  0.00    -0.336 N 
ATOM     19  C   UNL     1       8.329 -10.411   1.518  0.00  0.00    +0.129 C 
ATOM     20  C   UNL     1       9.072  -9.535  -0.744  0.00  0.00    +0.129 C 
ENDBRANCH  15  18
ENDBRANCH   1  12
BRANCH   1  21
ATOM     21  C   UNL     1       3.627  -5.079  -0.047  0.00  0.00    +0.117 C 
BRANCH  21  24
ATOM     22  C   UNL     1       2.434  -2.955  -0.010  0.00  0.00    +0.265 C 
ATOM     23  O   UNL     1       3.508  -2.385  -0.005  0.00  0.00    -0.268 OA
ATOM     24  N   UNL     1       2.386  -4.302  -0.031  0.00  0.00    -0.309 N 
ATOM     25  H   UNL     1       1.414  -4.817  -0.036  0.00  0.00    +0.149 HD
BRANCH  22  35
ATOM     26  N   UNL     1      -1.107  -2.174   0.012  0.00  0.00    -0.228 N 
ATOM     27  C   UNL     1      -1.233  -0.831   0.033  0.00  0.00    +0.275 A 
ATOM     28  O   UNL     1      -2.332  -0.308   0.044  0.00  0.00    -0.266 OA
ATOM     29  C   UNL     1      -0.011  -0.014   0.043  0.00  0.00    +0.050 A 
ATOM     30  C   UNL     1      -0.033   1.377   0.064  0.00  0.00    +0.014 A 
ATOM     31  C   UNL     1       1.159   2.071   0.071  0.00  0.00    +0.001 A 
ATOM     32  C   UNL     1       2.373   1.397   0.057  0.00  0.00    +0.001 A 
ATOM     33  C   UNL     1       2.415   0.018   0.036  0.00  0.00    +0.011 A 
ATOM     34  C   UNL     1       1.225  -0.701   0.029  0.00  0.00    +0.020 A 
ATOM     35  C   UNL     1       1.182  -2.172   0.006  0.00  0.00    +0.154 A 
ATOM     36  N   UNL     1       0.020  -2.778  -0.001  0.00  0.00    -0.163 NA
BRANCH  26  37
ATOM     37  C   UNL     1      -2.328  -2.984   0.003  0.00  0.00    +0.147 C 
BRANCH  37  39
ATOM     38  C   UNL     1      -4.032  -4.090  -1.453  0.00  0.00    +0.005 C 
ATOM     39  C   UNL     1      -2.757  -3.244  -1.443  0.00  0.00    +0.020 C 
ENDBRANCH  37  39
ENDBRANCH  26  37
ENDBRANCH  22  35
ENDBRANCH  21  24
ENDBRANCH   1  21
TORSDOF 8
