REMARK  Name = ZINC23495391
REMARK  8 active torsions:
REMARK  status: ('A' for Active; 'I' for Inactive)
REMARK    1  A    between atoms: C_1  and  C_2
REMARK    2  A    between atoms: N_4  and  C_5
REMARK    3  A    between atoms: C_5  and  C_7
REMARK    4  A    between atoms: C_5  and  C_18
REMARK    5  A    between atoms: C_7  and  C_8
REMARK    6  A    between atoms: N_23  and  C_26
REMARK    7  A    between atoms: C_26  and  C_27
REMARK    8  A    between atoms: N_29  and  C_30
REMARK                            x       y       z     vdW  Elec       q    Type
REMARK                         _______ _______ _______ _____ _____    ______ ____
ROOT
ATOM      1  C   UNL     1      -5.425  -4.921   2.090  0.00  0.00    +0.236 C 
ATOM      2  O   UNL     1      -5.494  -6.107   1.845  0.00  0.00    -0.274 OA
ATOM      3  N   UNL     1      -4.698  -4.110   1.295  0.00  0.00    -0.303 N 
ATOM      4  C   UNL     1      -3.982  -4.643   0.126  0.00  0.00    +0.089 C 
ATOM      5  C   UNL     1      -2.526  -4.170   0.190  0.00  0.00    -0.059 C 
ATOM      6  N   UNL     1      -2.495  -2.707   0.324  0.00  0.00    +0.387 N 
ATOM      7  C   UNL     1      -3.120  -2.274   1.581  0.00  0.00    -0.059 C 
ATOM      8  C   UNL     1      -4.601  -2.669   1.573  0.00  0.00    +0.089 C 
ATOM      9  H   UNL     1      -3.081  -2.283  -0.505  0.00  0.00    -0.081 HD
ENDROOT
BRANCH   1  10
ATOM     10  C   UNL     1      -6.151  -4.354   3.282  0.00  0.00    +0.163 C 
BRANCH  10  14
ATOM     11  C   UNL     1      -8.001  -7.482   4.484  0.00  0.00    +0.109 C 
ATOM     12  C   UNL     1      -6.907  -6.534   4.064  0.00  0.00    +0.211 C 
ATOM     13  O   UNL     1      -5.752  -6.903   4.062  0.00  0.00    -0.276 OA
ATOM     14  N   UNL     1      -7.213  -5.276   3.691  0.00  0.00    -0.304 N 
ATOM     15  H   UNL     1      -8.261  -4.941   3.693  0.00  0.00    +0.149 HD
ENDBRANCH  10  14
BRANCH  10  16
ATOM     16  C   UNL     1      -5.165  -4.167   4.438  0.00  0.00    +0.069 C 
BRANCH  16  17
ATOM     17  C   UNL     1      -5.863  -3.487   5.588  0.00  0.00    -0.020 A 
ATOM     18  C   UNL     1      -5.865  -2.172   5.855  0.00  0.00    +0.087 A 
ATOM     19  N   UNL     1      -6.607  -1.925   6.978  0.00  0.00    -0.360 N 
ATOM     20  H   UNL     1      -6.725  -0.894   7.344  0.00  0.00    +0.165 HD
ATOM     21  C   UNL     1      -7.105  -3.107   7.479  0.00  0.00    +0.047 A 
ATOM     22  C   UNL     1      -6.661  -4.137   6.630  0.00  0.00    +0.003 A 
ATOM     23  C   UNL     1      -7.018  -5.460   6.895  0.00  0.00    +0.010 A 
ATOM     24  C   UNL     1      -7.798  -5.748   7.979  0.00  0.00    +0.001 A 
ATOM     25  C   UNL     1      -8.239  -4.736   8.820  0.00  0.00    +0.002 A 
ATOM     26  C   UNL     1      -7.898  -3.423   8.577  0.00  0.00    +0.026 A 
ENDBRANCH  16  17
ENDBRANCH  10  16
ENDBRANCH   1  10
BRANCH   6  27
ATOM     27  C   UNL     1      -1.121  -2.197   0.216  0.00  0.00    +0.019 C 
BRANCH  27  28
ATOM     28  C   UNL     1      -1.150  -0.694   0.111  0.00  0.00    +0.201 C 
ATOM     29  O   UNL     1      -2.211  -0.106   0.124  0.00  0.00    -0.278 OA
ATOM     30  N   UNL     1       0.002  -0.004   0.002  0.00  0.00    -0.287 N 
ATOM     31  H   UNL     1       0.958  -0.541  -0.087  0.00  0.00    +0.155 HD
BRANCH  30  32
ATOM     32  C   UNL     1      -0.018   1.395   0.002  0.00  0.00    +0.033 A 
ATOM     33  C   UNL     1      -1.068   2.076  -0.598  0.00  0.00    +0.023 A 
ATOM     34  C   UNL     1      -1.087   3.457  -0.592  0.00  0.00    +0.002 A 
ATOM     35  C   UNL     1      -0.056   4.162   0.002  0.00  0.00    +0.000 A 
ATOM     36  C   UNL     1       0.994   3.486   0.596  0.00  0.00    +0.002 A 
ATOM     37  C   UNL     1       1.016   2.106   0.598  0.00  0.00    +0.023 A 
ENDBRANCH  30  32
ENDBRANCH  27  28
ENDBRANCH   6  27
TORSDOF 7
