REMARK  Name = ZINC36817727
REMARK  7 active torsions:
REMARK  status: ('A' for Active; 'I' for Inactive)
REMARK    1  A    between atoms: C_1  and  C_2
REMARK    2  A    between atoms: C_2  and  N_3
REMARK    3  A    between atoms: C_7  and  C_9
REMARK    4  A    between atoms: C_9  and  C_11
REMARK    5  A    between atoms: C_9  and  S_12
REMARK    6  A    between atoms: S_12  and  C_13
REMARK    7  A    between atoms: C_23  and  C_27
REMARK                            x       y       z     vdW  Elec       q    Type
REMARK                         _______ _______ _______ _____ _____    ______ ____
ROOT
ATOM      1  C   UNL     1      -6.311  -6.117   1.177  0.00  0.00    +0.192 A 
ATOM      2  N   UNL     1      -7.207  -5.242   0.732  0.00  0.00    -0.207 NA
ATOM      3  C   UNL     1      -8.440  -5.599   0.417  0.00  0.00    +0.129 A 
ATOM      4  C   UNL     1      -8.828  -6.961   0.556  0.00  0.00    +0.051 A 
ATOM      5  C   UNL     1     -10.125  -7.578   0.268  0.00  0.00    -0.025 A 
ATOM      6  C   UNL     1     -10.234  -8.903   0.487  0.00  0.00    -0.004 A 
ATOM      7  S   UNL     1      -8.642  -9.407   1.082  0.00  0.00    -0.073 S 
ATOM      8  C   UNL     1      -7.828  -7.832   1.033  0.00  0.00    +0.115 A 
ATOM      9  N   UNL     1      -6.615  -7.399   1.322  0.00  0.00    -0.214 NA
ATOM     10  C   UNL     1     -11.443  -9.762   0.273  0.00  0.00    +0.046 C 
ATOM     11  C   UNL     1     -12.445  -8.982  -0.591  0.00  0.00    -0.009 C 
ATOM     12  C   UNL     1     -12.594  -7.571  -0.015  0.00  0.00    +0.008 C 
ATOM     13  C   UNL     1     -11.311  -6.774  -0.257  0.00  0.00    +0.037 C 
ATOM     14  C   UNL     1     -13.800  -9.693  -0.574  0.00  0.00    +0.008 C 
ATOM     15  N   UNL     1      -9.344  -4.658  -0.042  0.00  0.00    -0.343 N 
ATOM     16  H   UNL     1     -10.155  -4.944  -0.491  0.00  0.00    +0.144 HD
ATOM     17  H   UNL     1      -9.166  -3.713   0.084  0.00  0.00    +0.144 HD
ENDROOT
BRANCH   1  18
ATOM     18  S   UNL     1      -4.686  -5.563   1.575  0.00  0.00    -0.073 S 
BRANCH  18  19
ATOM     19  C   UNL     1      -4.732  -3.783   1.229  0.00  0.00    +0.137 C 
ATOM     20  C   UNL     1      -4.949  -3.560  -0.269  0.00  0.00    +0.029 C 
BRANCH  19  25
ATOM     21  N   UNL     1      -2.163   0.021   2.658  0.00  0.00    -0.299 N 
ATOM     22  C   UNL     1      -2.211  -1.288   2.339  0.00  0.00    +0.306 C 
ATOM     23  O   UNL     1      -1.201  -1.962   2.387  0.00  0.00    -0.252 OA
ATOM     24  N   UNL     1      -3.379  -1.848   1.966  0.00  0.00    -0.239 N 
ATOM     25  C   UNL     1      -3.426  -3.157   1.646  0.00  0.00    +0.233 C 
ATOM     26  O   UNL     1      -2.419  -3.830   1.694  0.00  0.00    -0.274 OA
ATOM     27  H   UNL     1      -2.969   0.559   2.620  0.00  0.00    +0.150 HD
ATOM     28  H   UNL     1      -4.184  -1.310   1.927  0.00  0.00    +0.159 HD
BRANCH  21  30
ATOM     29  C   UNL     1      -1.115   2.113   3.369  0.00  0.00    +0.024 C 
ATOM     30  C   UNL     1      -0.894   0.630   3.064  0.00  0.00    +0.102 C 
ENDBRANCH  21  30
ENDBRANCH  19  25
ENDBRANCH  18  19
ENDBRANCH   1  18
TORSDOF 4
