REMARK  Name = ZINC00392089
REMARK  12 active torsions:
REMARK  status: ('A' for Active; 'I' for Inactive)
REMARK    1  A    between atoms: C_1  and  C_2
REMARK    2  A    between atoms: C_2  and  CA_3
REMARK    3  A    between atoms: CA_3  and  C_5
REMARK    4  A    between atoms: CA_3  and  N_7
REMARK    5  A    between atoms: C_5  and  O_6
REMARK    6  A    between atoms: N_7  and  C_8
REMARK    7  A    between atoms: C_17  and  C_26
REMARK    8  A    between atoms: N_19  and  C_20
REMARK    9  A    between atoms: C_20  and  C_21
REMARK   10  A    between atoms: C_21  and  C_23
REMARK   11  A    between atoms: C_21  and  O_25
REMARK   12  A    between atoms: C_23  and  O_24
REMARK                            x       y       z     vdW  Elec       q    Type
REMARK                         _______ _______ _______ _____ _____    ______ ____
ROOT
ATOM      1  C   UNL     1       0.308   1.142   2.854  0.00  0.00    +0.049 A 
ATOM      2  C   UNL     1       1.630   1.488   3.210  0.00  0.00    +0.020 A 
ATOM      3  C   UNL     1       2.665   0.541   3.162  0.00  0.00    +0.012 A 
ATOM      4  C   UNL     1       3.929   0.906   3.511  0.00  0.00    +0.001 A 
ATOM      5  C   UNL     1       4.209   2.209   3.917  0.00  0.00    +0.002 A 
ATOM      6  C   UNL     1       3.233   3.156   3.965  0.00  0.00    +0.026 A 
ATOM      7  C   UNL     1       1.912   2.817   3.617  0.00  0.00    +0.050 A 
ATOM      8  C   UNL     1      -0.311   3.441   3.353  0.00  0.00    +0.139 A 
ATOM      9  C   UNL     1      -0.670   2.140   2.933  0.00  0.00    +0.061 A 
ATOM     10  C   UNL     1      -2.104   2.173   2.664  0.00  0.00    +0.071 A 
ATOM     11  N   UNL     1      -2.524   3.381   2.908  0.00  0.00    -0.174 NA
ATOM     12  N   UNL     1      -1.463   4.186   3.331  0.00  0.00    -0.245 N 
ATOM     13  C   UNL     1      -2.947   1.018   2.189  0.00  0.00    +0.068 C 
ATOM     14  N   UNL     1       0.957   3.806   3.698  0.00  0.00    -0.339 N 
ATOM     15  H   UNL     1       1.186   4.760   4.000  0.00  0.00    +0.167 HD
ENDROOT
BRANCH   1  16
ATOM     16  N   UNL     1      -0.010  -0.139   2.447  0.00  0.00    -0.338 N 
ATOM     17  H   UNL     1       0.146  -0.804   3.190  0.00  0.00    +0.146 HD
BRANCH  16  18
ATOM     18  CA  UNL     1       0.742  -0.511   1.242  0.00  0.00    +0.095 C 
BRANCH  18  20
ATOM     19  C   UNL     1      -0.019   1.526   0.010  0.00  0.00    +0.006 C 
ATOM     20  C   UNL     1       0.002  -0.004   0.002  0.00  0.00    +0.021 C 
ENDBRANCH  18  20
BRANCH  18  21
ATOM     21  C   UNL     1       0.872  -2.034   1.171  0.00  0.00    +0.178 C 
BRANCH  21  22
ATOM     22  O   UNL     1      -0.423  -2.615   1.003  0.00  0.00    -0.393 OA
ATOM     23  H   UNL     1      -0.416  -3.580   0.950  0.00  0.00    +0.209 HD
ENDBRANCH  21  22
ENDBRANCH  18  21
ENDBRANCH  16  18
ENDBRANCH   1  16
BRANCH  12  24
ATOM     24  C   UNL     1      -1.564   5.601   3.693  0.00  0.00    +0.179 C 
BRANCH  24  25
ATOM     25  C   UNL     1      -1.334   6.463   2.450  0.00  0.00    +0.161 C 
BRANCH  25  26
ATOM     26  O   UNL     1      -2.387   6.237   1.511  0.00  0.00    -0.388 OA
ATOM     27  H   UNL     1      -3.268   6.452   1.848  0.00  0.00    +0.210 HD
ENDBRANCH  25  26
BRANCH  25  28
ATOM     28  C   UNL     1      -1.316   7.940   2.849  0.00  0.00    +0.189 C 
BRANCH  28  29
ATOM     29  O   UNL     1      -0.986   8.738   1.711  0.00  0.00    -0.392 OA
ATOM     30  H   UNL     1      -0.956   9.688   1.891  0.00  0.00    +0.210 HD
ENDBRANCH  28  29
ENDBRANCH  25  28
ENDBRANCH  24  25
ENDBRANCH  12  24
TORSDOF 10
