REMARK  Name = ZINC63386184
REMARK  7 active torsions:
REMARK  status: ('A' for Active; 'I' for Inactive)
REMARK    1  A    between atoms: C_1  and  C_2
REMARK    2  A    between atoms: C_2  and  C_3
REMARK    3  A    between atoms: C_16  and  C_19
REMARK    4  A    between atoms: N_25  and  C_28
REMARK    5  A    between atoms: C_28  and  C_29
REMARK    6  A    between atoms: C_32  and  O_35
REMARK    7  A    between atoms: O_35  and  C_36
REMARK                            x       y       z     vdW  Elec       q    Type
REMARK                         _______ _______ _______ _____ _____    ______ ____
ROOT
ATOM      1  C   UNL     1      -1.808  -0.303   3.739  0.00  0.00    +0.070 A 
ATOM      2  C   UNL     1      -3.160  -0.530   4.049  0.00  0.00    +0.259 A 
ATOM      3  N   UNL     1      -3.653  -0.100   5.227  0.00  0.00    -0.275 N 
ATOM      4  H   UNL     1      -4.585  -0.255   5.445  0.00  0.00    +0.173 HD
ATOM      5  C   UNL     1      -2.861   0.544   6.104  0.00  0.00    +0.332 A 
ATOM      6  O   UNL     1      -3.324   0.924   7.162  0.00  0.00    -0.246 OA
ATOM      7  N   UNL     1      -1.564   0.772   5.828  0.00  0.00    -0.256 N 
ATOM      8  C   UNL     1      -1.020   0.346   4.642  0.00  0.00    +0.262 A 
ATOM      9  O   UNL     1       0.282   0.572   4.371  0.00  0.00    -0.267 OA
ATOM     10  O   UNL     1      -3.882  -1.113   3.258  0.00  0.00    -0.267 OA
ENDROOT
BRANCH   1  22
ATOM     11  C   UNL     1      -1.433  -0.534   0.013  0.00  0.00    -0.067 C 
ATOM     12  C   UNL     1      -1.419  -2.050  -0.257  0.00  0.00    +0.018 C 
ATOM     13  C   UNL     1      -0.808  -2.686   0.967  0.00  0.00    -0.041 C 
ATOM     14  C   UNL     1       0.156  -3.581   1.125  0.00  0.00    -0.001 A 
ATOM     15  C   UNL     1       0.902  -4.402   0.158  0.00  0.00    +0.010 A 
ATOM     16  C   UNL     1       1.863  -5.212   0.675  0.00  0.00    +0.001 A 
ATOM     17  C   UNL     1       2.153  -5.288   2.040  0.00  0.00    +0.002 A 
ATOM     18  C   UNL     1       1.510  -4.578   3.001  0.00  0.00    +0.026 A 
ATOM     19  C   UNL     1       0.471  -3.698   2.582  0.00  0.00    +0.043 A 
ATOM     20  N   UNL     1      -0.318  -2.934   3.281  0.00  0.00    -0.379 N 
ATOM     21  C   UNL     1      -1.271  -2.305   2.371  0.00  0.00    +0.097 C 
ATOM     22  C   UNL     1      -1.235  -0.776   2.427  0.00  0.00    -0.003 C 
ATOM     23  N   UNL     1      -2.042  -0.257   1.316  0.00  0.00    +0.387 N 
ATOM     24  H   UNL     1      -2.141   0.741   1.427  0.00  0.00    -0.085 HD
ATOM     25  H   UNL     1      -0.279  -2.805   4.242  0.00  0.00    +0.160 HD
ATOM     26  H   UNL     1      -2.957  -0.682   1.347  0.00  0.00    -0.085 HD
BRANCH  11  28
ATOM     27  C   UNL     1      -0.014   1.516   0.178  0.00  0.00    +0.002 C 
ATOM     28  C   UNL     1       0.002  -0.004   0.002  0.00  0.00    -0.019 C 
ENDBRANCH  11  28
ENDBRANCH   1  22
BRANCH   7  29
ATOM     29  C   UNL     1      -0.725   1.474   6.802  0.00  0.00    +0.165 C 
BRANCH  29  30
ATOM     30  C   UNL     1      -0.092   0.474   7.735  0.00  0.00    -0.027 A 
ATOM     31  C   UNL     1      -0.743   0.107   8.898  0.00  0.00    +0.009 A 
ATOM     32  C   UNL     1      -0.164  -0.810   9.755  0.00  0.00    +0.046 A 
ATOM     33  C   UNL     1       1.071  -1.362   9.446  0.00  0.00    +0.120 A 
ATOM     34  C   UNL     1       1.721  -0.992   8.278  0.00  0.00    +0.046 A 
ATOM     35  C   UNL     1       1.136  -0.079   7.422  0.00  0.00    +0.009 A 
BRANCH  33  36
ATOM     36  O   UNL     1       1.642  -2.264  10.288  0.00  0.00    -0.495 OA
ATOM     37  C   UNL     1       2.914  -2.791   9.906  0.00  0.00    +0.277 C 
ENDBRANCH  33  36
ENDBRANCH  29  30
ENDBRANCH   7  29
TORSDOF 5
