REMARK  Name = ZINC04753512
REMARK  9 active torsions:
REMARK  status: ('A' for Active; 'I' for Inactive)
REMARK    1  A    between atoms: C_1  and  C_2
REMARK    2  A    between atoms: C_2  and  C_3
REMARK    3  A    between atoms: C_7  and  N_9
REMARK    4  A    between atoms: N_12  and  C_13
REMARK    5  A    between atoms: C_13  and  C_15
REMARK    6  A    between atoms: C_13  and  C_18
REMARK    7  A    between atoms: C_15  and  C_16
REMARK    8  A    between atoms: C_15  and  C_17
REMARK    9  A    between atoms: C_24  and  C_26
REMARK                            x       y       z     vdW  Elec       q    Type
REMARK                         _______ _______ _______ _____ _____    ______ ____
ROOT
ATOM      1  C   UNL     1       0.222   1.427   0.158  0.00  0.00    +0.163 C 
ENDROOT
BRANCH   1   2
ATOM      2  C   UNL     1      -0.588   1.452  -1.112  0.00  0.00    +0.239 C 
ATOM      3  O   UNL     1      -1.713   1.907  -1.105  0.00  0.00    -0.273 OA
ATOM      4  N   UNL     1      -0.063   0.970  -2.256  0.00  0.00    -0.262 N 
ATOM      5  C   UNL     1      -0.842   0.905  -3.405  0.00  0.00    +0.188 A 
ATOM      6  N   UNL     1      -2.105   1.256  -3.587  0.00  0.00    -0.125 NA
ATOM      7  N   UNL     1      -2.677   1.139  -4.706  0.00  0.00    -0.140 NA
ATOM      8  C   UNL     1      -2.019   0.642  -5.747  0.00  0.00    +0.134 A 
ATOM      9  S   UNL     1      -0.425   0.336  -4.994  0.00  0.00    -0.030 S 
ATOM     10  H   UNL     1       0.858   0.667  -2.277  0.00  0.00    +0.157 HD
BRANCH   8  11
ATOM     11  C   UNL     1      -2.474   0.408  -7.133  0.00  0.00    +0.009 A 
ATOM     12  C   UNL     1      -1.597  -0.127  -8.078  0.00  0.00    +0.010 A 
ATOM     13  C   UNL     1      -2.030  -0.348  -9.369  0.00  0.00    +0.001 A 
ATOM     14  C   UNL     1      -3.327  -0.030  -9.731  0.00  0.00    +0.000 A 
ATOM     15  C   UNL     1      -4.200   0.506  -8.801  0.00  0.00    +0.001 A 
ATOM     16  C   UNL     1      -3.781   0.727  -7.505  0.00  0.00    +0.010 A 
ENDBRANCH   8  11
ENDBRANCH   1   2
BRANCH   1  20
ATOM     17  N   UNL     1      -1.125   1.442   3.579  0.00  0.00    -0.269 N 
ATOM     18  C   UNL     1      -0.315   1.217   2.525  0.00  0.00    +0.304 C 
ATOM     19  O   UNL     1       0.724   0.605   2.677  0.00  0.00    -0.252 OA
ATOM     20  N   UNL     1      -0.658   1.671   1.304  0.00  0.00    -0.288 N 
ATOM     21  H   UNL     1      -1.985   1.871   3.447  0.00  0.00    +0.156 HD
ATOM     22  H   UNL     1      -1.487   2.159   1.183  0.00  0.00    +0.151 HD
BRANCH  17  27
ATOM     23  C   UNL     1      -0.656   1.462   7.226  0.00  0.00    -0.046 A 
ATOM     24  C   UNL     1       0.067   0.296   7.404  0.00  0.00    +0.004 A 
ATOM     25  C   UNL     1       0.394  -0.490   6.314  0.00  0.00    +0.002 A 
ATOM     26  C   UNL     1      -0.004  -0.116   5.046  0.00  0.00    +0.023 A 
ATOM     27  C   UNL     1      -0.725   1.057   4.864  0.00  0.00    +0.035 A 
ATOM     28  C   UNL     1      -1.052   1.844   5.960  0.00  0.00    +0.027 A 
BRANCH  23  30
ATOM     29  C   UNL     1      -2.361   1.866   8.981  0.00  0.00    +0.009 C 
ATOM     30  C   UNL     1      -1.011   2.315   8.416  0.00  0.00    +0.032 C 
ENDBRANCH  23  30
ENDBRANCH  17  27
ENDBRANCH   1  20
BRANCH   1  31
ATOM     31  C   UNL     1       1.297   2.514   0.099  0.00  0.00    +0.012 C 
ATOM     32  C   UNL     1       0.629   3.891   0.102  0.00  0.00    +0.009 C 
ATOM     33  C   UNL     1       2.215   2.390   1.317  0.00  0.00    +0.009 C 
ENDBRANCH   1  31
TORSDOF 6
