REMARK  Name = ZINC43262590
REMARK  7 active torsions:
REMARK  status: ('A' for Active; 'I' for Inactive)
REMARK    1  A    between atoms: C_1  and  C_2
REMARK    2  A    between atoms: C_2  and  C_4
REMARK    3  A    between atoms: C_2  and  N_22
REMARK    4  A    between atoms: C_4  and  C_6
REMARK    5  A    between atoms: C_4  and  N_12
REMARK    6  A    between atoms: C_15  and  C_18
REMARK    7  A    between atoms: C_18  and  C_19
REMARK                            x       y       z     vdW  Elec       q    Type
REMARK                         _______ _______ _______ _____ _____    ______ ____
ROOT
ATOM      1  C   UNL     1       0.713  -0.402   1.297  0.00  0.00    +0.079 C 
ENDROOT
BRANCH   1   2
ATOM      2  C   UNL     1       0.849  -1.902   1.328  0.00  0.00    +0.006 A 
ATOM      3  C   UNL     1       0.096  -2.813   1.992  0.00  0.00    +0.014 A 
ATOM      4  C   UNL     1       0.408  -4.155   1.873  0.00  0.00    +0.023 A 
ATOM      5  C   UNL     1       1.457  -4.519   1.095  0.00  0.00    +0.055 A 
ATOM      6  S   UNL     1       2.037  -2.941   0.494  0.00  0.00    -0.085 S 
ATOM      7 BR   UNL     1       2.127  -6.250   0.734  0.00  0.00    -0.043 Br
ENDBRANCH   1   2
BRANCH   1   8
ATOM      8  N   UNL     1       2.048   0.211   1.331  0.00  0.00    -0.296 NA
ATOM      9  C   UNL     1       1.955   1.676   1.294  0.00  0.00    +0.085 C 
ATOM     10  C   UNL     1       3.359   2.275   1.183  0.00  0.00    +0.019 C 
ATOM     11  C   UNL     1       4.195   1.828   2.386  0.00  0.00    +0.000 C 
ATOM     12  C   UNL     1       4.236   0.298   2.429  0.00  0.00    +0.019 C 
ATOM     13  C   UNL     1       2.806  -0.243   2.503  0.00  0.00    +0.085 C 
BRANCH  11  14
ATOM     14  C   UNL     1       5.618   2.373   2.251  0.00  0.00    +0.099 C 
BRANCH  14  15
ATOM     15  C   UNL     1       6.405   2.038   3.491  0.00  0.00    +0.211 C 
ATOM     16  O   UNL     1       5.880   1.423   4.395  0.00  0.00    -0.276 OA
ATOM     17  N   UNL     1       7.693   2.421   3.597  0.00  0.00    -0.329 N 
ATOM     18  H   UNL     1       8.114   2.912   2.874  0.00  0.00    +0.145 HD
ATOM     19  H   UNL     1       8.200   2.205   4.395  0.00  0.00    +0.145 HD
ENDBRANCH  14  15
ENDBRANCH  11  14
ENDBRANCH   1   8
BRANCH   1  21
ATOM     20  C   UNL     1      -1.395  -0.626  -0.024  0.00  0.00    -0.012 C 
ATOM     21  C   UNL     1      -0.009   0.019   0.015  0.00  0.00    -0.056 C 
BRANCH  21  22
ATOM     22  N   UNL     1       0.769  -0.420  -1.151  0.00  0.00    +0.381 N 
ATOM     23  H   UNL     1       0.293  -0.143  -1.996  0.00  0.00    -0.090 HD
ATOM     24  H   UNL     1       1.683   0.005  -1.125  0.00  0.00    -0.090 HD
ATOM     25  H   UNL     1       0.865  -1.424  -1.133  0.00  0.00    -0.090 HD
ENDBRANCH  21  22
ENDBRANCH   1  21
TORSDOF 6
