REMARK  Name = ZINC16646133
REMARK  14 active torsions:
REMARK  status: ('A' for Active; 'I' for Inactive)
REMARK    1  A    between atoms: C_1  and  C_2
REMARK    2  A    between atoms: C_2  and  N_61
REMARK    3  A    between atoms: C_3  and  C_4
REMARK    4  A    between atoms: C_3  and  N_61
REMARK    5  A    between atoms: C_5  and  C_6
REMARK    6  A    between atoms: C_5  and  N_61
REMARK    7  A    between atoms: C_6  and  C_7
REMARK    8  A    between atoms: C_7  and  C_8
REMARK    9  A    between atoms: C_8  and  C_10
REMARK   10  A    between atoms: C_8  and  N_11
REMARK   11  A    between atoms: N_11  and  C_12
REMARK   12  A    between atoms: C_12  and  C_13
REMARK   13  A    between atoms: C_18  and  C_21
REMARK   14  A    between atoms: C_22  and  C_24
REMARK                            x       y       z     vdW  Elec       q    Type
REMARK                         _______ _______ _______ _____ _____    ______ ____
ROOT
ATOM      1  N   UNL     1       2.445   3.287   0.776  0.00  0.00    -0.286 N 
ATOM      2  C   UNL     1       1.486   2.622   1.452  0.00  0.00    +0.247 C 
ATOM      3  O   UNL     1       1.794   1.763   2.255  0.00  0.00    -0.270 OA
ENDROOT
BRANCH   2   4
ATOM      4  C   UNL     1       0.062   2.938   1.215  0.00  0.00    +0.038 A 
ATOM      5  C   UNL     1      -0.372   3.303  -0.060  0.00  0.00    +0.014 A 
ATOM      6  C   UNL     1      -1.703   3.596  -0.275  0.00  0.00    +0.022 A 
ATOM      7  C   UNL     1      -2.608   3.529   0.771  0.00  0.00    +0.059 A 
ATOM      8  C   UNL     1      -2.183   3.166   2.039  0.00  0.00    +0.060 A 
ATOM      9  C   UNL     1      -0.854   2.870   2.267  0.00  0.00    +0.034 A 
ATOM     10 CL   UNL     1      -3.324   3.083   3.345  0.00  0.00    -0.082 Cl
ATOM     11 CL   UNL     1      -4.281   3.900   0.492  0.00  0.00    -0.082 Cl
ENDBRANCH   2   4
BRANCH   1  12
ATOM     12  C   UNL     1       2.088   4.431  -0.067  0.00  0.00    +0.074 C 
ATOM     13  C   UNL     1       2.352   4.085  -1.534  0.00  0.00    +0.028 C 
BRANCH  12  14
ATOM     14  C   UNL     1       2.933   5.642   0.333  0.00  0.00    +0.020 C 
BRANCH  14  15
ATOM     15  C   UNL     1       3.294   5.545   1.816  0.00  0.00    -0.017 C 
BRANCH  15  16
ATOM     16  C   UNL     1       4.010   6.825   2.252  0.00  0.00    -0.079 C 
BRANCH  16  17
ATOM     17  N   UNL     1       4.221   6.777   3.714  0.00  0.00    +0.379 N 
ATOM     18  H   UNL     1       3.345   6.494   4.168  0.00  0.00    -0.082 HD
BRANCH  17  20
ATOM     19  C   UNL     1       6.556   6.098   3.265  0.00  0.00    -0.017 C 
ATOM     20  C   UNL     1       5.273   5.792   4.041  0.00  0.00    -0.082 C 
ENDBRANCH  17  20
BRANCH  17  21
ATOM     21  C   UNL     1       4.609   8.114   4.212  0.00  0.00    -0.082 C 
ATOM     22  C   UNL     1       4.459   8.134   5.734  0.00  0.00    -0.017 C 
ENDBRANCH  17  21
ENDBRANCH  16  17
ENDBRANCH  15  16
ENDBRANCH  14  15
ENDBRANCH  12  14
ENDBRANCH   1  12
BRANCH   1  23
ATOM     23  C   UNL     1       3.844   2.865   0.885  0.00  0.00    +0.204 C 
BRANCH  23  24
ATOM     24  C   UNL     1       4.171   1.917  -0.240  0.00  0.00    +0.236 C 
ATOM     25  O   UNL     1       3.330   1.648  -1.071  0.00  0.00    -0.274 OA
ATOM     26  N   UNL     1       5.399   1.367  -0.321  0.00  0.00    -0.266 N 
ATOM     27  C   UNL     1       5.742   0.586  -1.425  0.00  0.00    +0.168 A 
ATOM     28  C   UNL     1       4.966   0.379  -2.597  0.00  0.00    +0.091 A 
ATOM     29  C   UNL     1       5.729  -0.444  -3.352  0.00  0.00    +0.136 A 
ATOM     30  O   UNL     1       6.848  -0.679  -2.652  0.00  0.00    -0.358 OA
ATOM     31  N   UNL     1       6.843  -0.099  -1.591  0.00  0.00    -0.063 NA
ATOM     32  C   UNL     1       5.388  -0.990  -4.715  0.00  0.00    +0.089 C 
ATOM     33  H   UNL     1       6.045   1.514   0.388  0.00  0.00    +0.156 HD
ENDBRANCH  23  24
ENDBRANCH   1  23
TORSDOF 10
