REMARK  Name = ZINC20347402
REMARK  12 active torsions:
REMARK  status: ('A' for Active; 'I' for Inactive)
REMARK    1  A    between atoms: C_1  and  C_2
REMARK    2  A    between atoms: C_2  and  C_3
REMARK    3  A    between atoms: C_3  and  C_5
REMARK    4  A    between atoms: C_3  and  O_11
REMARK    5  A    between atoms: O_11  and  C_12
REMARK    6  A    between atoms: C_12  and  C_13
REMARK    7  A    between atoms: C_13  and  C_15
REMARK    8  A    between atoms: C_13  and  O_39
REMARK    9  A    between atoms: C_15  and  N_16
REMARK   10  A    between atoms: N_19  and  C_22
REMARK   11  A    between atoms: C_22  and  C_23
REMARK   12  A    between atoms: C_23  and  N_24
REMARK                            x       y       z     vdW  Elec       q    Type
REMARK                         _______ _______ _______ _____ _____    ______ ____
ROOT
ATOM      1  N   UNL     1       5.621   3.123   2.454  0.00  0.00    -0.303 NA
ATOM      2  C   UNL     1       6.469   2.068   3.028  0.00  0.00    +0.066 C 
ATOM      3  C   UNL     1       7.941   2.446   2.848  0.00  0.00    -0.063 C 
ATOM      4  N   UNL     1       8.203   3.727   3.517  0.00  0.00    +0.382 N 
ATOM      5  C   UNL     1       7.367   4.775   2.916  0.00  0.00    -0.063 C 
ATOM      6  C   UNL     1       5.891   4.417   3.097  0.00  0.00    +0.066 C 
ATOM      7  H   UNL     1       7.984   3.645   4.498  0.00  0.00    -0.082 HD
ENDROOT
BRANCH   1   8
ATOM      8  C   UNL     1       4.199   2.769   2.557  0.00  0.00    +0.117 C 
BRANCH   8   9
ATOM      9  C   UNL     1       3.910   1.555   1.672  0.00  0.00    +0.154 C 
BRANCH   9  10
ATOM     10  O   UNL     1       4.226   1.870   0.314  0.00  0.00    -0.388 OA
ATOM     11  H   UNL     1       3.720   2.612  -0.046  0.00  0.00    +0.210 HD
ENDBRANCH   9  10
BRANCH   9  12
ATOM     12  C   UNL     1       2.429   1.188   1.779  0.00  0.00    +0.193 C 
BRANCH  12  13
ATOM     13  O   UNL     1       2.182  -0.014   1.045  0.00  0.00    -0.369 OA
BRANCH  13  14
ATOM     14  C   UNL     1       0.844  -0.502   1.162  0.00  0.00    +0.148 C 
BRANCH  14  15
ATOM     15  C   UNL     1       0.872  -1.961   1.538  0.00  0.00    -0.019 A 
ATOM     16  C   UNL     1       1.873  -2.781   1.052  0.00  0.00    +0.006 A 
ATOM     17  C   UNL     1       1.899  -4.119   1.397  0.00  0.00    +0.000 A 
ATOM     18  C   UNL     1       0.923  -4.637   2.229  0.00  0.00    +0.000 A 
ATOM     19  C   UNL     1      -0.077  -3.817   2.716  0.00  0.00    +0.000 A 
ATOM     20  C   UNL     1      -0.100  -2.478   2.374  0.00  0.00    +0.006 A 
ENDBRANCH  14  15
BRANCH  14  22
ATOM     21  C   UNL     1      -0.022   1.156  -0.495  0.00  0.00    +0.007 C 
ATOM     22  C   UNL     1       0.121  -0.334  -0.176  0.00  0.00    +0.033 C 
ENDBRANCH  14  22
ENDBRANCH  13  14
ENDBRANCH  12  13
ENDBRANCH   9  12
ENDBRANCH   8   9
ENDBRANCH   1   8
BRANCH   4  23
ATOM     23  C   UNL     1       9.620   4.081   3.359  0.00  0.00    -0.059 C 
BRANCH  23  24
ATOM     24  C   UNL     1       9.921   5.349   4.159  0.00  0.00    +0.098 C 
BRANCH  24  25
ATOM     25  N   UNL     1      11.334   5.702   4.002  0.00  0.00    -0.236 N 
ATOM     26  C   UNL     1      12.230   5.195   4.871  0.00  0.00    +0.254 C 
ATOM     27  O   UNL     1      11.856   4.460   5.765  0.00  0.00    -0.270 OA
ATOM     28  C   UNL     1      13.657   5.526   4.745  0.00  0.00    +0.046 A 
ATOM     29  C   UNL     1      14.613   5.027   5.617  0.00  0.00    +0.014 A 
ATOM     30  C   UNL     1      15.950   5.368   5.457  0.00  0.00    +0.001 A 
ATOM     31  C   UNL     1      16.363   6.194   4.451  0.00  0.00    +0.008 A 
ATOM     32  C   UNL     1      15.426   6.721   3.545  0.00  0.00    -0.016 A 
ATOM     33  C   UNL     1      14.065   6.382   3.697  0.00  0.00    +0.006 A 
ATOM     34  C   UNL     1      13.099   6.896   2.803  0.00  0.00    +0.046 A 
ATOM     35  C   UNL     1      13.509   7.736   1.778  0.00  0.00    +0.014 A 
ATOM     36  C   UNL     1      14.853   8.062   1.639  0.00  0.00    +0.001 A 
ATOM     37  C   UNL     1      15.800   7.575   2.493  0.00  0.00    +0.008 A 
ATOM     38  C   UNL     1      11.691   6.516   2.990  0.00  0.00    +0.254 C 
ATOM     39  O   UNL     1      10.843   6.943   2.230  0.00  0.00    -0.270 OA
ENDBRANCH  24  25
ENDBRANCH  23  24
ENDBRANCH   4  23
TORSDOF 11
