REMARK  Name = ZINC33018596
REMARK  8 active torsions:
REMARK  status: ('A' for Active; 'I' for Inactive)
REMARK    1  A    between atoms: C_1  and  C_2
REMARK    2  A    between atoms: C_2  and  C_4
REMARK    3  A    between atoms: C_2  and  N_30
REMARK    4  A    between atoms: C_4  and  C_5
REMARK    5  A    between atoms: C_5  and  N_6
REMARK    6  A    between atoms: C_7  and  C_9
REMARK    7  A    between atoms: C_13  and  C_15
REMARK    8  A    between atoms: C_15  and  N_16
REMARK                            x       y       z     vdW  Elec       q    Type
REMARK                         _______ _______ _______ _____ _____    ______ ____
ROOT
ATOM      1  C   UNL     1      -1.316   1.636  -0.164  0.00  0.00    +0.037 A 
ATOM      2  C   UNL     1      -1.411   3.021  -0.018  0.00  0.00    +0.013 A 
ATOM      3  C   UNL     1      -2.651   3.626   0.006  0.00  0.00    +0.001 A 
ATOM      4  C   UNL     1      -3.799   2.861  -0.104  0.00  0.00    +0.005 A 
ATOM      5  C   UNL     1      -3.712   1.488  -0.243  0.00  0.00    -0.027 A 
ATOM      6  C   UNL     1      -2.478   0.871  -0.274  0.00  0.00    +0.018 A 
ENDROOT
BRANCH   1   8
ATOM      7  N   UNL     1       1.130   1.725  -0.094  0.00  0.00    -0.311 N 
ATOM      8  C   UNL     1       0.010   0.982  -0.195  0.00  0.00    +0.244 C 
ATOM      9  O   UNL     1       0.089  -0.224  -0.317  0.00  0.00    -0.270 OA
ATOM     10  H   UNL     1       1.058   2.817   0.017  0.00  0.00    +0.149 HD
BRANCH   7  11
ATOM     11  C   UNL     1       2.444   1.077  -0.131  0.00  0.00    +0.103 C 
BRANCH  11  12
ATOM     12  C   UNL     1       3.539   2.138   0.002  0.00  0.00    +0.003 C 
BRANCH  12  14
ATOM     13  C   UNL     1       5.991   2.507   0.306  0.00  0.00    -0.013 C 
ATOM     14  C   UNL     1       4.904   1.452   0.089  0.00  0.00    -0.070 C 
BRANCH  14  15
ATOM     15  N   UNL     1       5.168   0.727  -1.161  0.00  0.00    +0.381 N 
ATOM     16  C   UNL     1       6.264  -0.251  -0.985  0.00  0.00    -0.078 C 
ATOM     17  C   UNL     1       6.753  -0.821  -2.289  0.00  0.00    -0.019 C 
ATOM     18  C   UNL     1       7.955   0.019  -2.770  0.00  0.00    -0.002 C 
ATOM     19  C   UNL     1       7.539   1.276  -3.382  0.00  0.00    -0.002 C 
ATOM     20  C   UNL     1       6.766   2.177  -2.397  0.00  0.00    -0.019 C 
ATOM     21  C   UNL     1       5.355   1.666  -2.290  0.00  0.00    -0.078 C 
ATOM     22  H   UNL     1       4.281   0.130  -1.420  0.00  0.00    -0.081 HD
ENDBRANCH  14  15
ENDBRANCH  12  14
ENDBRANCH  11  12
ENDBRANCH   7  11
ENDBRANCH   1   8
BRANCH   5  23
ATOM     23  C   UNL     1      -4.967   0.663  -0.362  0.00  0.00    +0.162 C 
BRANCH  23  24
ATOM     24  N   UNL     1      -5.411   0.254   0.973  0.00  0.00    -0.286 N 
ATOM     25  C   UNL     1      -4.957  -0.945   1.512  0.00  0.00    +0.161 A 
ATOM     26  C   UNL     1      -5.367  -1.347   2.784  0.00  0.00    +0.090 A 
ATOM     27  C   UNL     1      -4.896  -2.546   3.304  0.00  0.00    +0.031 A 
ATOM     28  C   UNL     1      -4.025  -3.302   2.533  0.00  0.00    +0.022 A 
ATOM     29  C   UNL     1      -3.657  -2.841   1.283  0.00  0.00    +0.113 A 
ATOM     30  N   UNL     1      -4.119  -1.700   0.814  0.00  0.00    -0.236 NA
ATOM     31  N   UNL     1      -6.246  -0.557   3.530  0.00  0.00    -0.309 N 
ATOM     32  C   UNL     1      -6.793  -0.713   4.762  0.00  0.00    +0.092 A 
ATOM     33  C   UNL     1      -7.591   0.351   5.026  0.00  0.00    +0.020 A 
ATOM     34  C   UNL     1      -7.545   1.208   3.923  0.00  0.00    +0.033 A 
ATOM     35  C   UNL     1      -6.704   0.631   2.998  0.00  0.00    +0.112 A 
ATOM     36  C   UNL     1      -6.260   1.040   1.664  0.00  0.00    +0.277 A 
ATOM     37  O   UNL     1      -6.655   2.085   1.182  0.00  0.00    -0.265 OA
ENDBRANCH  23  24
ENDBRANCH   5  23
TORSDOF 7
