REMARK  Name = ZINC33777953
REMARK  14 active torsions:
REMARK  status: ('A' for Active; 'I' for Inactive)
REMARK    1  A    between atoms: C_1  and  C_2
REMARK    2  A    between atoms: C_2  and  C_4
REMARK    3  A    between atoms: C_2  and  N_27
REMARK    4  A    between atoms: C_7  and  S_18
REMARK    5  A    between atoms: N_8  and  C_9
REMARK    6  A    between atoms: C_12  and  N_15
REMARK    7  A    between atoms: S_18  and  C_19
REMARK    8  A    between atoms: C_19  and  C_20
REMARK    9  A    between atoms: C_28  and  C_30
REMARK   10  A    between atoms: C_30  and  C_31
REMARK   11  A    between atoms: C_31  and  C_32
REMARK   12  A    between atoms: C_32  and  C_33
REMARK   13  A    between atoms: C_33  and  C_34
REMARK   14  A    between atoms: C_34  and  N_35
REMARK                            x       y       z     vdW  Elec       q    Type
REMARK                         _______ _______ _______ _____ _____    ______ ____
ROOT
ATOM      1  C   UNL     1       1.269  -6.684  -1.721  0.00  0.00    +0.159 A 
ATOM      2  N   UNL     1       1.277  -6.397  -0.450  0.00  0.00    -0.131 NA
ATOM      3  N   UNL     1       1.268  -5.123  -0.284  0.00  0.00    -0.122 NA
ATOM      4  C   UNL     1       1.244  -4.520  -1.450  0.00  0.00    +0.196 A 
ATOM      5  N   UNL     1       1.248  -5.498  -2.406  0.00  0.00    -0.273 N 
ENDROOT
BRANCH   5   6
ATOM      6  C   UNL     1       1.234  -5.324  -3.798  0.00  0.00    +0.050 A 
ATOM      7  C   UNL     1       0.146  -5.760  -4.542  0.00  0.00    +0.028 A 
ATOM      8  C   UNL     1       0.133  -5.581  -5.912  0.00  0.00    +0.035 A 
ATOM      9  C   UNL     1       1.206  -4.979  -6.543  0.00  0.00    +0.126 A 
ATOM     10  C   UNL     1       2.293  -4.549  -5.804  0.00  0.00    +0.035 A 
ATOM     11  C   UNL     1       2.309  -4.719  -4.434  0.00  0.00    +0.028 A 
BRANCH   9  12
ATOM     12  N   UNL     1       1.191  -4.795  -8.012  0.00  0.00    +0.056 N 
ATOM     13  O   UNL     1       2.136  -4.265  -8.569  0.00  0.00    -0.126 OA
ATOM     14  O   UNL     1       0.234  -5.174  -8.663  0.00  0.00    -0.126 OA
ENDBRANCH   9  12
ENDBRANCH   5   6
BRANCH   1  16
ATOM     15  C   UNL     1      -0.103  -8.699  -2.175  0.00  0.00    +0.036 C 
ATOM     16  C   UNL     1       1.281  -8.065  -2.325  0.00  0.00    +0.138 C 
BRANCH  16  17
ATOM     17  N   UNL     1       2.275  -8.891  -1.635  0.00  0.00    -0.306 N 
ATOM     18  C   UNL     1       2.831  -9.944  -2.266  0.00  0.00    +0.214 C 
ATOM     19  O   UNL     1       2.509 -10.207  -3.406  0.00  0.00    -0.276 OA
ATOM     20  H   UNL     1       2.566  -8.652  -0.602  0.00  0.00    +0.149 HD
BRANCH  18  21
ATOM     21  C   UNL     1       3.853 -10.794  -1.556  0.00  0.00    +0.096 C 
BRANCH  21  22
ATOM     22  C   UNL     1       4.322 -11.913  -2.489  0.00  0.00    +0.009 C 
BRANCH  22  23
ATOM     23  C   UNL     1       5.359 -12.776  -1.768  0.00  0.00    -0.001 C 
BRANCH  23  24
ATOM     24  C   UNL     1       5.828 -13.895  -2.700  0.00  0.00    -0.020 C 
BRANCH  24  25
ATOM     25  C   UNL     1       6.866 -14.758  -1.979  0.00  0.00    -0.086 C 
BRANCH  25  26
ATOM     26  N   UNL     1       7.316 -15.832  -2.874  0.00  0.00    +0.378 N 
ATOM     27  H   UNL     1       8.062 -16.453  -2.356  0.00  0.00    -0.090 HD
ATOM     28  H   UNL     1       7.767 -15.393  -3.776  0.00  0.00    -0.090 HD
ATOM     29  H   UNL     1       6.456 -16.456  -3.160  0.00  0.00    -0.090 HD
ENDBRANCH  25  26
ENDBRANCH  24  25
ENDBRANCH  23  24
ENDBRANCH  22  23
ENDBRANCH  21  22
ENDBRANCH  18  21
ENDBRANCH  16  17
ENDBRANCH   1  16
BRANCH   4  30
ATOM     30  S   UNL     1       1.219  -2.780  -1.731  0.00  0.00    -0.081 S 
BRANCH  30  31
ATOM     31  C   UNL     1       1.227  -2.186  -0.021  0.00  0.00    +0.112 C 
BRANCH  31  32
ATOM     32  C   UNL     1       1.208  -0.679  -0.013  0.00  0.00    -0.037 A 
ATOM     33  C   UNL     1       0.002  -0.004   0.002  0.00  0.00    +0.007 A 
ATOM     34  C   UNL     1      -0.017   1.378   0.010  0.00  0.00    +0.038 A 
ATOM     35  C   UNL     1       1.173   2.086   0.002  0.00  0.00    +0.123 A 
ATOM     36  C   UNL     1       2.381   1.408  -0.013  0.00  0.00    +0.038 A 
ATOM     37  C   UNL     1       2.397   0.026  -0.020  0.00  0.00    +0.007 A 
ATOM     38  F   UNL     1       1.156   3.437   0.009  0.00  0.00    -0.205 F 
ENDBRANCH  31  32
ENDBRANCH  30  31
ENDBRANCH   4  30
TORSDOF 13
