REMARK  Name = ZINC33813593
REMARK  15 active torsions:
REMARK  status: ('A' for Active; 'I' for Inactive)
REMARK    1  A    between atoms: C_1  and  C_2
REMARK    2  A    between atoms: C_2  and  C_3
REMARK    3  A    between atoms: C_3  and  O_4
REMARK    4  A    between atoms: O_4  and  C_5
REMARK    5  A    between atoms: C_8  and  C_11
REMARK    6  A    between atoms: C_13  and  C_25
REMARK    7  A    between atoms: N_17  and  C_18
REMARK    8  A    between atoms: C_18  and  C_19
REMARK    9  A    between atoms: C_19  and  C_20
REMARK   10  A    between atoms: C_20  and  N_21
REMARK   11  A    between atoms: N_21  and  C_22
REMARK   12  A    between atoms: N_21  and  C_23
REMARK   13  A    between atoms: C_25  and  C_27
REMARK   14  A    between atoms: C_28  and  C_38
REMARK   15  A    between atoms: C_30  and  C_32
REMARK                            x       y       z     vdW  Elec       q    Type
REMARK                         _______ _______ _______ _____ _____    ______ ____
ROOT
ATOM      1  C   UNL     1       3.235  -4.433  -5.642  0.00  0.00    +0.145 C 
ATOM      2  C   UNL     1       2.202  -5.043  -6.560  0.00  0.00    +0.077 C 
ATOM      3  C   UNL     1       2.456  -6.371  -6.604  0.00  0.00    +0.249 C 
ATOM      4  C   UNL     1       3.622  -6.672  -5.749  0.00  0.00    +0.288 C 
ATOM      5  O   UNL     1       4.096  -7.778  -5.582  0.00  0.00    -0.266 OA
ATOM      6  N   UNL     1       4.082  -5.540  -5.184  0.00  0.00    -0.284 N 
ATOM      7  O   UNL     1       1.753  -7.280  -7.320  0.00  0.00    -0.282 OA
ENDROOT
BRANCH   1  11
ATOM      8  C   UNL     1       1.318  -2.571  -2.307  0.00  0.00    +0.121 A 
ATOM      9  C   UNL     1       1.962  -1.795  -3.260  0.00  0.00    +0.046 A 
ATOM     10  C   UNL     1       2.581  -2.399  -4.337  0.00  0.00    +0.009 A 
ATOM     11  C   UNL     1       2.559  -3.776  -4.465  0.00  0.00    -0.022 A 
ATOM     12  C   UNL     1       1.918  -4.551  -3.517  0.00  0.00    +0.009 A 
ATOM     13  C   UNL     1       1.303  -3.952  -2.434  0.00  0.00    +0.046 A 
BRANCH   8  14
ATOM     14  O   UNL     1       0.709  -1.979  -1.246  0.00  0.00    -0.492 OA
BRANCH  14  15
ATOM     15  C   UNL     1       0.765  -0.552  -1.179  0.00  0.00    +0.229 C 
BRANCH  15  17
ATOM     16  C   UNL     1       0.090   1.455   0.146  0.00  0.00    +0.007 C 
ATOM     17  C   UNL     1       0.030  -0.072   0.074  0.00  0.00    +0.038 C 
ENDBRANCH  15  17
ENDBRANCH  14  15
ENDBRANCH   8  14
ENDBRANCH   1  11
BRANCH   2  18
ATOM     18  C   UNL     1       1.130  -4.333  -7.268  0.00  0.00    +0.203 C 
ATOM     19  O   UNL     1      -0.035  -4.551  -6.986  0.00  0.00    -0.286 OA
BRANCH  18  20
ATOM     20  C   UNL     1       1.461  -3.361  -8.313  0.00  0.00    +0.082 A 
ATOM     21  C   UNL     1       0.626  -2.513  -9.036  0.00  0.00    +0.057 A 
ATOM     22  N   UNL     1       1.206  -1.743  -9.917  0.00  0.00    -0.244 NA
ATOM     23  C   UNL     1       2.515  -1.772 -10.107  0.00  0.00    +0.109 A 
ATOM     24  S   UNL     1       3.049  -2.930  -9.008  0.00  0.00    -0.064 S 
ATOM     25  C   UNL     1      -0.864  -2.486  -8.815  0.00  0.00    +0.067 C 
BRANCH  23  26
ATOM     26  C   UNL     1       3.319  -0.974 -11.055  0.00  0.00    +0.007 A 
ATOM     27  C   UNL     1       4.703  -1.146 -11.120  0.00  0.00    +0.010 A 
ATOM     28  C   UNL     1       5.447  -0.397 -12.008  0.00  0.00    +0.001 A 
ATOM     29  C   UNL     1       4.825   0.523 -12.833  0.00  0.00    +0.000 A 
ATOM     30  C   UNL     1       3.454   0.699 -12.774  0.00  0.00    +0.001 A 
ATOM     31  C   UNL     1       2.697  -0.047 -11.895  0.00  0.00    +0.010 A 
ENDBRANCH  23  26
ENDBRANCH  18  20
ENDBRANCH   2  18
BRANCH   6  32
ATOM     32  C   UNL     1       5.225  -5.432  -4.273  0.00  0.00    +0.107 C 
BRANCH  32  33
ATOM     33  C   UNL     1       4.745  -5.601  -2.830  0.00  0.00    +0.000 C 
BRANCH  33  34
ATOM     34  C   UNL     1       5.938  -5.488  -1.879  0.00  0.00    -0.078 C 
BRANCH  34  35
ATOM     35  N   UNL     1       5.477  -5.650  -0.494  0.00  0.00    +0.376 N 
ATOM     36  C   UNL     1       4.957  -7.011  -0.306  0.00  0.00    -0.097 C 
ATOM     37  C   UNL     1       6.600  -5.423   0.426  0.00  0.00    -0.097 C 
ATOM     38  H   UNL     1       4.745  -4.981  -0.302  0.00  0.00    -0.083 HD
ENDBRANCH  34  35
ENDBRANCH  33  34
ENDBRANCH  32  33
ENDBRANCH   6  32
TORSDOF 11
