REMARK  Name = ZINC36283995
REMARK  5 active torsions:
REMARK  status: ('A' for Active; 'I' for Inactive)
REMARK    1  A    between atoms: C_3  and  N_21
REMARK    2  A    between atoms: C_5  and  N_7
REMARK    3  A    between atoms: N_7  and  S_8
REMARK    4  A    between atoms: S_8  and  C_11
REMARK    5  A    between atoms: C_15  and  N_17
REMARK                            x       y       z     vdW  Elec       q    Type
REMARK                         _______ _______ _______ _____ _____    ______ ____
ROOT
ATOM      1  S   UNL     1       0.151  -2.842   0.975  0.00  0.00    +0.072 S 
ATOM      2  O   UNL     1       0.350  -4.237   0.796  0.00  0.00    -0.150 OA
ATOM      3  O   UNL     1       0.254  -2.214   2.246  0.00  0.00    -0.150 OA
ENDROOT
BRANCH   1   4
ATOM      4  C   UNL     1      -1.463  -2.481   0.365  0.00  0.00    +0.111 A 
ATOM      5  C   UNL     1      -2.096  -1.310   0.737  0.00  0.00    +0.033 A 
ATOM      6  C   UNL     1      -3.360  -1.025   0.261  0.00  0.00    +0.055 A 
ATOM      7  C   UNL     1      -3.995  -1.915  -0.593  0.00  0.00    +0.209 A 
ATOM      8  C   UNL     1      -3.358  -3.090  -0.965  0.00  0.00    +0.174 A 
ATOM      9  C   UNL     1      -2.091  -3.368  -0.489  0.00  0.00    +0.065 A 
ATOM     10  O   UNL     1      -5.240  -1.638  -1.063  0.00  0.00    -0.285 OA
BRANCH   8  11
ATOM     11  N   UNL     1      -4.033  -4.043  -1.875  0.00  0.00    +0.060 N 
ATOM     12  O   UNL     1      -3.477  -5.066  -2.199  0.00  0.00    -0.126 OA
ATOM     13  O   UNL     1      -5.140  -3.797  -2.294  0.00  0.00    -0.126 OA
ENDBRANCH   8  11
ENDBRANCH   1   4
BRANCH   1  14
ATOM     14  N   UNL     1       1.232  -2.077  -0.019  0.00  0.00    -0.216 N 
ATOM     15  H   UNL     1       1.821  -1.395   0.339  0.00  0.00    +0.174 HD
BRANCH  14  20
ATOM     16  C   UNL     1       1.379  -4.085  -3.095  0.00  0.00    +0.004 A 
ATOM     17  C   UNL     1       1.422  -3.094  -4.057  0.00  0.00    +0.023 A 
ATOM     18  C   UNL     1       1.402  -1.757  -3.680  0.00  0.00    +0.026 A 
ATOM     19  C   UNL     1       1.339  -1.417  -2.336  0.00  0.00    +0.047 A 
ATOM     20  C   UNL     1       1.296  -2.415  -1.373  0.00  0.00    +0.050 A 
ATOM     21  C   UNL     1       1.316  -3.751  -1.756  0.00  0.00    +0.024 A 
BRANCH  18  22
ATOM     22  N   UNL     1       1.447  -0.756  -4.653  0.00  0.00    -0.358 N 
ATOM     23  H   UNL     1       1.491  -0.994  -5.592  0.00  0.00    +0.142 HD
ATOM     24  H   UNL     1       1.433   0.177  -4.389  0.00  0.00    +0.142 HD
ENDBRANCH  18  22
ENDBRANCH  14  20
ENDBRANCH   1  14
TORSDOF 5
