REMARK  Name = ZINC39710964
REMARK  9 active torsions:
REMARK  status: ('A' for Active; 'I' for Inactive)
REMARK    1  A    between atoms: C_1  and  C_2
REMARK    2  A    between atoms: C_8  and  C_14
REMARK    3  A    between atoms: C_14  and  C_16
REMARK    4  A    between atoms: C_14  and  N_28
REMARK    5  A    between atoms: N_21  and  C_22
REMARK    6  A    between atoms: N_28  and  C_29
REMARK    7  A    between atoms: N_28  and  C_35
REMARK    8  A    between atoms: C_29  and  C_30
REMARK    9  A    between atoms: C_35  and  C_36
REMARK                            x       y       z     vdW  Elec       q    Type
REMARK                         _______ _______ _______ _____ _____    ______ ____
ROOT
ATOM      1  C   UNL     1       0.526  -2.521   5.247  0.00  0.00    -0.009 C 
ENDROOT
BRANCH   1   9
ATOM      2  C   UNL     1       0.040   0.886   0.166  0.00  0.00    +0.045 C 
ATOM      3  C   UNL     1      -0.716  -0.334   0.624  0.00  0.00    -0.029 A 
ATOM      4  C   UNL     1      -1.466  -1.037  -0.265  0.00  0.00    +0.005 A 
ATOM      5  C   UNL     1      -2.189  -2.174   0.093  0.00  0.00    +0.001 A 
ATOM      6  C   UNL     1      -2.182  -2.645   1.367  0.00  0.00    +0.009 A 
ATOM      7  C   UNL     1      -1.395  -1.936   2.377  0.00  0.00    -0.007 A 
ATOM      8  C   UNL     1      -1.357  -2.372   3.668  0.00  0.00    -0.006 C 
ATOM      9  C   UNL     1      -0.516  -1.576   4.646  0.00  0.00    +0.088 C 
ATOM     10  C   UNL     1       0.212  -0.364   4.111  0.00  0.00    +0.223 C 
ATOM     11  O   UNL     1       0.902   0.311   4.852  0.00  0.00    -0.275 OA
ATOM     12  N   UNL     1       0.098  -0.040   2.834  0.00  0.00    -0.284 N 
ATOM     13  C   UNL     1      -0.636  -0.741   1.969  0.00  0.00    +0.043 A 
ATOM     14  H   UNL     1       0.573   0.741   2.510  0.00  0.00    +0.155 HD
ENDBRANCH   1   9
BRANCH   1  15
ATOM     15  C   UNL     1       1.539  -2.914   4.171  0.00  0.00    +0.205 C 
ATOM     16  N   UNL     1       2.203  -1.720   3.631  0.00  0.00    -0.152 NA
ATOM     17  N   UNL     1       1.957  -1.638   2.425  0.00  0.00    -0.070 NA
ATOM     18  N   UNL     1       1.149  -2.677   1.964  0.00  0.00    -0.179 N 
ATOM     19  N   UNL     1       0.851  -3.516   3.010  0.00  0.00    -0.185 NA
ATOM     20  H   UNL     1       0.846  -2.790   1.050  0.00  0.00    +0.191 HD
BRANCH  19  21
ATOM     21  C   UNL     1       1.343  -4.876   2.753  0.00  0.00    +0.080 C 
ATOM     22  C   UNL     1       2.792  -4.811   2.267  0.00  0.00    +0.021 C 
ATOM     23  C   UNL     1       3.304  -6.228   2.000  0.00  0.00    +0.002 C 
ATOM     24  C   UNL     1       2.436  -6.890   0.928  0.00  0.00    +0.000 C 
ATOM     25  C   UNL     1       0.987  -6.955   1.414  0.00  0.00    +0.002 C 
ATOM     26  C   UNL     1       0.475  -5.539   1.681  0.00  0.00    +0.021 C 
ENDBRANCH  19  21
ENDBRANCH   1  15
BRANCH   1  27
ATOM     27  N   UNL     1       1.221  -1.846   6.351  0.00  0.00    +0.389 N 
ATOM     28  H   UNL     1       1.308  -0.862   6.142  0.00  0.00    -0.081 HD
BRANCH  27  29
ATOM     29  C   UNL     1       2.558  -2.430   6.519  0.00  0.00    -0.035 C 
BRANCH  29  30
ATOM     30  C   UNL     1       3.602  -1.422   6.112  0.00  0.00    -0.027 A 
ATOM     31  C   UNL     1       4.046  -0.334   6.786  0.00  0.00    +0.009 A 
ATOM     32  C   UNL     1       5.023   0.458   6.212  0.00  0.00    +0.008 A 
ATOM     33  C   UNL     1       5.508   0.123   4.992  0.00  0.00    +0.045 A 
ATOM     34  S   UNL     1       4.579  -1.356   4.619  0.00  0.00    -0.103 S 
ENDBRANCH  29  30
ENDBRANCH  27  29
BRANCH  27  35
ATOM     35  C   UNL     1       0.453  -2.017   7.592  0.00  0.00    -0.046 C 
BRANCH  35  36
ATOM     36  C   UNL     1      -0.934  -1.393   7.423  0.00  0.00    +0.102 C 
ATOM     37  C   UNL     1      -1.550  -1.103   8.809  0.00  0.00    +0.032 C 
ATOM     38  C   UNL     1      -3.040  -1.484   8.593  0.00  0.00    +0.030 C 
ATOM     39  C   UNL     1      -2.901  -2.666   7.601  0.00  0.00    +0.160 C 
ATOM     40  O   UNL     1      -1.800  -2.312   6.746  0.00  0.00    -0.378 OA
ENDBRANCH  35  36
ENDBRANCH  27  35
ENDBRANCH   1  27
TORSDOF 8
