REMARK  Name = ZINC50321366
REMARK  7 active torsions:
REMARK  status: ('A' for Active; 'I' for Inactive)
REMARK    1  A    between atoms: C_1  and  C_2
REMARK    2  A    between atoms: C_2  and  C_3
REMARK    3  A    between atoms: C_2  and  C_4
REMARK    4  A    between atoms: C_5  and  N_21
REMARK    5  A    between atoms: C_6  and  C_10
REMARK    6  A    between atoms: N_12  and  C_13
REMARK    7  A    between atoms: C_13  and  C_14
REMARK                            x       y       z     vdW  Elec       q    Type
REMARK                         _______ _______ _______ _____ _____    ______ ____
ROOT
ATOM      1  C   UNL     1       0.731  -0.503   1.223  0.00  0.00    +0.060 A 
ATOM      2  C   UNL     1       0.223  -1.305   2.196  0.00  0.00    +0.078 A 
ATOM      3  C   UNL     1       1.282  -1.495   3.120  0.00  0.00    +0.168 A 
ATOM      4  N   UNL     1       2.321  -0.823   2.662  0.00  0.00    -0.167 NA
ATOM      5  N   UNL     1       2.022  -0.242   1.556  0.00  0.00    -0.279 N 
ATOM      6  H   UNL     1       2.630   0.305   1.035  0.00  0.00    +0.189 HD
ENDROOT
BRANCH   3   7
ATOM      7  C   UNL     1       1.232  -2.294   4.359  0.00  0.00    +0.266 C 
ATOM      8  O   UNL     1       0.207  -2.869   4.670  0.00  0.00    -0.268 OA
ATOM      9  N   UNL     1       2.323  -2.387   5.145  0.00  0.00    -0.306 N 
ATOM     10  H   UNL     1       3.140  -1.928   4.896  0.00  0.00    +0.149 HD
BRANCH   9  11
ATOM     11  C   UNL     1       2.273  -3.180   6.376  0.00  0.00    +0.141 C 
BRANCH  11  12
ATOM     12  C   UNL     1       3.611  -3.121   7.066  0.00  0.00    -0.016 A 
ATOM     13  C   UNL     1       4.506  -4.165   6.930  0.00  0.00    +0.006 A 
ATOM     14  C   UNL     1       5.734  -4.111   7.563  0.00  0.00    +0.000 A 
ATOM     15  C   UNL     1       6.067  -3.012   8.332  0.00  0.00    +0.001 A 
ATOM     16  C   UNL     1       5.173  -1.967   8.469  0.00  0.00    +0.015 A 
ATOM     17  C   UNL     1       3.946  -2.018   7.831  0.00  0.00    +0.023 A 
ATOM     18 BR   UNL     1       2.726  -0.586   8.012  0.00  0.00    -0.050 Br
ENDBRANCH  11  12
ENDBRANCH   9  11
ENDBRANCH   3   7
BRANCH   1  20
ATOM     19  C   UNL     1      -0.019   1.526   0.010  0.00  0.00    +0.014 C 
ATOM     20  C   UNL     1       0.002  -0.004   0.002  0.00  0.00    +0.033 C 
ATOM     21  C   UNL     1       0.718  -0.497  -1.257  0.00  0.00    +0.014 C 
ENDBRANCH   1  20
BRANCH   2  22
ATOM     22  N   UNL     1      -1.075  -1.832   2.271  0.00  0.00    -0.355 N 
ATOM     23  H   UNL     1      -1.721  -1.632   1.575  0.00  0.00    +0.142 HD
ATOM     24  H   UNL     1      -1.327  -2.396   3.019  0.00  0.00    +0.142 HD
ENDBRANCH   2  22
TORSDOF 5
