REMARK  Name = ZINC02247863
REMARK  14 active torsions:
REMARK  status: ('A' for Active; 'I' for Inactive)
REMARK    1  A    between atoms: C_1  and  C_2
REMARK    2  A    between atoms: C_2  and  O_3
REMARK    3  A    between atoms: O_3  and  C_4
REMARK    4  A    between atoms: C_7  and  C_13
REMARK    5  A    between atoms: C_9  and  O_10
REMARK    6  A    between atoms: O_10  and  C_11
REMARK    7  A    between atoms: C_11  and  C_12
REMARK    8  A    between atoms: C_13  and  C_14
REMARK    9  A    between atoms: C_14  and  N_15
REMARK   10  A    between atoms: C_16  and  C_18
REMARK   11  A    between atoms: N_29  and  C_32
REMARK   12  A    between atoms: C_30  and  N_31
REMARK   13  A    between atoms: C_34  and  C_39
REMARK   14  A    between atoms: C_36  and  C_38
REMARK                            x       y       z     vdW  Elec       q    Type
REMARK                         _______ _______ _______ _____ _____    ______ ____
ROOT
ATOM      1  C   UNL     1       7.639  -1.002   3.797  0.00  0.00    +0.104 A 
ATOM      2  C   UNL     1       8.338  -1.481   5.001  0.00  0.00    +0.123 A 
ATOM      3  C   UNL     1       9.474  -2.263   4.507  0.00  0.00    +0.166 A 
ATOM      4  N   UNL     1      10.295  -2.826   5.367  0.00  0.00    -0.225 NA
ATOM      5  C   UNL     1      10.087  -2.680   6.682  0.00  0.00    +0.092 A 
ATOM      6  C   UNL     1      10.960  -3.279   7.609  0.00  0.00    +0.030 A 
ATOM      7  C   UNL     1      10.741  -3.125   8.943  0.00  0.00    +0.002 A 
ATOM      8  C   UNL     1       9.659  -2.380   9.411  0.00  0.00    +0.002 A 
ATOM      9  C   UNL     1       8.793  -1.786   8.545  0.00  0.00    +0.030 A 
ATOM     10  C   UNL     1       8.987  -1.923   7.158  0.00  0.00    +0.090 A 
ATOM     11  N   UNL     1       8.142  -1.343   6.297  0.00  0.00    -0.241 NA
ATOM     12  N   UNL     1       9.418  -2.228   3.127  0.00  0.00    -0.280 N 
ATOM     13  C   UNL     1       8.347  -1.497   2.707  0.00  0.00    +0.117 A 
ENDROOT
BRANCH  12  14
ATOM     14  C   UNL     1      10.335  -2.859   2.276  0.00  0.00    +0.050 A 
ATOM     15  C   UNL     1      11.660  -2.446   2.251  0.00  0.00    +0.029 A 
ATOM     16  C   UNL     1      12.562  -3.074   1.414  0.00  0.00    -0.048 A 
ATOM     17  C   UNL     1      12.144  -4.106   0.595  0.00  0.00    +0.006 A 
ATOM     18  C   UNL     1      10.824  -4.516   0.614  0.00  0.00    -0.048 A 
ATOM     19  C   UNL     1       9.918  -3.896   1.452  0.00  0.00    +0.029 A 
ATOM     20  C   UNL     1      10.373  -5.642  -0.281  0.00  0.00    +0.044 C 
ATOM     21  C   UNL     1      14.002  -2.629   1.391  0.00  0.00    +0.044 C 
ENDBRANCH  12  14
BRANCH   1  23
ATOM     22  N   UNL     1       5.219  -0.755   3.737  0.00  0.00    -0.311 N 
ATOM     23  C   UNL     1       6.436  -0.175   3.755  0.00  0.00    +0.250 C 
ATOM     24  O   UNL     1       6.532   1.039   3.736  0.00  0.00    -0.270 OA
ATOM     25  H   UNL     1       5.143  -1.722   3.752  0.00  0.00    +0.149 HD
BRANCH  22  26
ATOM     26  C   UNL     1       4.013   0.074   3.695  0.00  0.00    +0.109 C 
BRANCH  26  27
ATOM     27  C   UNL     1       2.775  -0.826   3.682  0.00  0.00    +0.054 C 
BRANCH  27  31
ATOM     28  C   UNL     1      -0.745   1.600   3.566  0.00  0.00    +0.162 A 
ATOM     29  C   UNL     1      -0.201   1.221   4.783  0.00  0.00    +0.050 A 
ATOM     30  C   UNL     1       0.938   0.438   4.817  0.00  0.00    +0.007 A 
ATOM     31  C   UNL     1       1.534   0.028   3.639  0.00  0.00    -0.042 A 
ATOM     32  C   UNL     1       0.993   0.398   2.422  0.00  0.00    +0.053 A 
ATOM     33  C   UNL     1      -0.148   1.182   2.380  0.00  0.00    +0.162 A 
BRANCH  28  34
ATOM     34  O   UNL     1      -1.862   2.374   3.531  0.00  0.00    -0.489 OA
BRANCH  34  36
ATOM     35  C   UNL     1      -3.663   3.626   4.546  0.00  0.00    +0.048 C 
ATOM     36  C   UNL     1      -2.420   2.766   4.787  0.00  0.00    +0.226 C 
ENDBRANCH  34  36
ENDBRANCH  28  34
BRANCH  33  37
ATOM     37  O   UNL     1      -0.682   1.547   1.184  0.00  0.00    -0.489 OA
BRANCH  37  38
ATOM     38  C   UNL     1      -0.013   1.086   0.008  0.00  0.00    +0.226 C 
ATOM     39  C   UNL     1      -0.753   1.593  -1.232  0.00  0.00    +0.048 C 
ENDBRANCH  37  38
ENDBRANCH  33  37
ENDBRANCH  27  31
ENDBRANCH  26  27
ENDBRANCH  22  26
ENDBRANCH   1  23
BRANCH  13  40
ATOM     40  N   UNL     1       8.015  -1.279   1.395  0.00  0.00    -0.343 N 
ATOM     41  H   UNL     1       7.237  -0.744   1.174  0.00  0.00    +0.144 HD
ATOM     42  H   UNL     1       8.559  -1.659   0.688  0.00  0.00    +0.144 HD
ENDBRANCH  13  40
TORSDOF 10
