REMARK  Name = ZINC43554280
REMARK  11 active torsions:
REMARK  status: ('A' for Active; 'I' for Inactive)
REMARK    1  A    between atoms: C_1  and  C_2
REMARK    2  A    between atoms: C_5  and  O_32
REMARK    3  A    between atoms: C_7  and  C_29
REMARK    4  A    between atoms: C_7  and  C_30
REMARK    5  A    between atoms: N_16  and  C_17
REMARK    6  A    between atoms: C_17  and  O_19
REMARK    7  A    between atoms: O_19  and  C_20
REMARK    8  A    between atoms: C_20  and  C_21
REMARK    9  A    between atoms: C_23  and  C_25
REMARK   10  A    between atoms: C_25  and  C_26
REMARK   11  A    between atoms: C_30  and  O_31
REMARK                            x       y       z     vdW  Elec       q    Type
REMARK                         _______ _______ _______ _____ _____    ______ ____
ROOT
ATOM      1  C   UNL     1       0.362   1.687  -0.104  0.00  0.00    +0.012 C 
ATOM      2  C   UNL     1       0.191   0.161  -0.055  0.00  0.00    -0.020 C 
ATOM      3  C   UNL     1      -1.294  -0.161   0.061  0.00  0.00    +0.010 C 
ATOM      4  C   UNL     1      -1.851   0.495   1.325  0.00  0.00    +0.032 C 
ATOM      5  C   UNL     1      -1.130   0.022   2.574  0.00  0.00    +0.123 C 
ATOM      6  C   UNL     1       0.386   0.038   2.483  0.00  0.00    +0.021 C 
ATOM      7  C   UNL     1       0.926  -0.443   1.137  0.00  0.00    +0.011 C 
ATOM      8  C   UNL     1       0.792  -1.978   1.122  0.00  0.00    +0.049 C 
ATOM      9  C   UNL     1       0.809  -2.527  -0.263  0.00  0.00    +0.013 A 
ATOM     10  C   UNL     1       0.786  -1.849  -1.418  0.00  0.00    +0.032 A 
ATOM     11  N   UNL     1       0.795  -2.617  -2.551  0.00  0.00    -0.339 N 
ATOM     12  C   UNL     1       0.828  -3.973  -2.442  0.00  0.00    +0.167 A 
ATOM     13  S   UNL     1       0.863  -4.223  -0.778  0.00  0.00    -0.057 S 
ATOM     14  N   UNL     1       0.833  -4.881  -3.416  0.00  0.00    -0.119 NA
ATOM     15  C   UNL     1       0.782  -0.334  -1.378  0.00  0.00    +0.053 C 
ATOM     16  C   UNL     1       0.926   1.424   2.857  0.00  0.00    +0.016 C 
ATOM     17  H   UNL     1       0.787  -2.212  -3.432  0.00  0.00    +0.167 HD
ENDROOT
BRANCH  14  18
ATOM     18  C   UNL     1       0.868  -6.180  -3.118  0.00  0.00    +0.427 C 
ATOM     19  O   UNL     1       0.896  -6.537  -1.953  0.00  0.00    -0.224 OA
BRANCH  18  20
ATOM     20  O   UNL     1       0.873  -7.100  -4.106  0.00  0.00    -0.445 OA
BRANCH  20  21
ATOM     21  C   UNL     1       0.911  -8.474  -3.713  0.00  0.00    +0.261 C 
BRANCH  21  22
ATOM     22  C   UNL     1       0.911  -9.347  -4.941  0.00  0.00    +0.006 C 
ATOM     23  C   UNL     1       1.736 -10.362  -5.024  0.00  0.00    +0.007 C 
ENDBRANCH  21  22
ENDBRANCH  20  21
ENDBRANCH  18  20
ENDBRANCH  14  18
BRANCH   5  24
ATOM     24  O   UNL     1      -1.589  -1.288   2.930  0.00  0.00    -0.391 OA
ATOM     25  H   UNL     1      -2.537  -1.336   3.115  0.00  0.00    +0.210 HD
ENDBRANCH   5  24
BRANCH  15  26
ATOM     26  C   UNL     1       0.005   0.242  -2.558  0.00  0.00    +0.135 C 
BRANCH  26  27
ATOM     27  C   UNL     1       0.729  -0.077  -3.841  0.00  0.00    +0.357 C 
ATOM     28  O   UNL     1       1.844  -0.570  -3.805  0.00  0.00    -0.246 OA
ATOM     29  O   UNL     1       0.201   0.158  -4.914  0.00  0.00    -0.246 OA
ENDBRANCH  26  27
ENDBRANCH  15  26
BRANCH   6  30
ATOM     30  C   UNL     1       0.916  -0.916   3.587  0.00  0.00    +0.165 C 
BRANCH  30  31
ATOM     31  O   UNL     1       0.481  -0.452   4.866  0.00  0.00    -0.394 OA
ATOM     32  H   UNL     1       0.776  -1.002   5.605  0.00  0.00    +0.209 HD
ENDBRANCH  30  31
ENDBRANCH   6  30
TORSDOF 9
