REMARK  Name = ZINC08016498
REMARK  11 active torsions:
REMARK  status: ('A' for Active; 'I' for Inactive)
REMARK    1  A    between atoms: C_1  and  C_2
REMARK    2  A    between atoms: C_2  and  C_3
REMARK    3  A    between atoms: C_3  and  C_5
REMARK    4  A    between atoms: C_3  and  C_6
REMARK    5  A    between atoms: C_6  and  C_8
REMARK    6  A    between atoms: C_6  and  N_20
REMARK    7  A    between atoms: N_10  and  N_11
REMARK    8  A    between atoms: N_11  and  C_12
REMARK    9  A    between atoms: C_12  and  N_14
REMARK   10  A    between atoms: N_14  and  C_15
REMARK   11  A    between atoms: C_21  and  C_23
REMARK                            x       y       z     vdW  Elec       q    Type
REMARK                         _______ _______ _______ _____ _____    ______ ____
ROOT
ATOM      1  C   UNL     1       3.975   3.220   4.146  0.00  0.00    +0.163 C 
ENDROOT
BRANCH   1   2
ATOM      2  C   UNL     1       2.522   2.958   4.447  0.00  0.00    +0.250 C 
ATOM      3  O   UNL     1       2.065   3.253   5.531  0.00  0.00    -0.272 OA
ATOM      4  N   UNL     1       1.732   2.394   3.512  0.00  0.00    -0.234 N 
ATOM      5  H   UNL     1       2.078   2.225   2.622  0.00  0.00    +0.173 HD
BRANCH   4   6
ATOM      6  N   UNL     1       0.409   2.054   3.826  0.00  0.00    -0.246 N 
ATOM      7  H   UNL     1       0.063   2.223   4.716  0.00  0.00    +0.172 HD
BRANCH   6   8
ATOM      8  C   UNL     1      -0.381   1.490   2.891  0.00  0.00    +0.147 C 
ATOM      9  S   UNL     1      -1.997   1.074   3.275  0.00  0.00    -0.017 S 
BRANCH   8  10
ATOM     10  N   UNL     1       0.100   1.255   1.655  0.00  0.00    -0.323 N 
ATOM     11  H   UNL     1       1.015   1.491   1.437  0.00  0.00    +0.148 HD
BRANCH  10  12
ATOM     12  C   UNL     1      -0.760   0.643   0.638  0.00  0.00    +0.072 C 
ATOM     13  C   UNL     1       0.092  -0.085  -0.422  0.00  0.00    +0.022 C 
ATOM     14  C   UNL     1      -0.597   0.150  -1.778  0.00  0.00    +0.002 C 
ATOM     15  C   UNL     1      -1.844   1.012  -1.495  0.00  0.00    +0.002 C 
ATOM     16  C   UNL     1      -1.513   1.733  -0.165  0.00  0.00    +0.022 C 
ENDBRANCH  10  12
ENDBRANCH   8  10
ENDBRANCH   6   8
ENDBRANCH   4   6
ENDBRANCH   1   2
BRANCH   1  17
ATOM     17  N   UNL     1       4.599   3.886   5.292  0.00  0.00    -0.300 N 
ATOM     18  C   UNL     1       5.588   4.780   5.096  0.00  0.00    +0.245 C 
ATOM     19  O   UNL     1       5.905   5.098   3.966  0.00  0.00    -0.270 OA
ATOM     20  H   UNL     1       4.300   3.684   6.193  0.00  0.00    +0.150 HD
BRANCH  18  21
ATOM     21  C   UNL     1       6.288   5.375   6.255  0.00  0.00    +0.037 A 
ATOM     22  C   UNL     1       5.923   5.017   7.553  0.00  0.00    +0.013 A 
ATOM     23  C   UNL     1       6.583   5.572   8.630  0.00  0.00    +0.001 A 
ATOM     24  C   UNL     1       7.598   6.489   8.425  0.00  0.00    +0.000 A 
ATOM     25  C   UNL     1       7.962   6.853   7.140  0.00  0.00    +0.001 A 
ATOM     26  C   UNL     1       7.313   6.301   6.055  0.00  0.00    +0.013 A 
ENDBRANCH  18  21
ENDBRANCH   1  17
BRANCH   1  27
ATOM     27  C   UNL     1       4.689   1.894   3.877  0.00  0.00    +0.015 C 
ATOM     28  C   UNL     1       6.120   2.169   3.412  0.00  0.00    +0.010 C 
BRANCH  27  30
ATOM     29  C   UNL     1       3.301   0.619   5.519  0.00  0.00    +0.004 C 
ATOM     30  C   UNL     1       4.721   1.063   5.162  0.00  0.00    +0.002 C 
ENDBRANCH  27  30
ENDBRANCH   1  27
TORSDOF 9
