REMARK  Name = ZINC14241419
REMARK  13 active torsions:
REMARK  status: ('A' for Active; 'I' for Inactive)
REMARK    1  A    between atoms: C_1  and  C_2
REMARK    2  A    between atoms: C_2  and  C_3
REMARK    3  A    between atoms: C_3  and  C_5
REMARK    4  A    between atoms: C_3  and  C_6
REMARK    5  A    between atoms: C_6  and  C_7
REMARK    6  A    between atoms: C_8  and  C_36
REMARK    7  A    between atoms: C_16  and  S_18
REMARK    8  A    between atoms: S_18  and  C_19
REMARK    9  A    between atoms: C_19  and  C_20
REMARK   10  A    between atoms: N_22  and  C_23
REMARK   11  A    between atoms: C_24  and  C_35
REMARK   12  A    between atoms: N_26  and  C_29
REMARK   13  A    between atoms: C_27  and  C_28
REMARK                            x       y       z     vdW  Elec       q    Type
REMARK                         _______ _______ _______ _____ _____    ______ ____
ROOT
ATOM      1  S   UNL     1      -0.621   1.524  -1.417  0.00  0.00    -0.078 S 
ENDROOT
BRANCH   1  11
ATOM      2  C   UNL     1       3.513  -0.148  -5.362  0.00  0.00    -0.023 A 
ATOM      3  C   UNL     1       4.652  -0.554  -4.783  0.00  0.00    -0.007 A 
ATOM      4  S   UNL     1       4.318  -0.374  -3.041  0.00  0.00    -0.073 S 
ATOM      5  C   UNL     1       2.657   0.243  -3.141  0.00  0.00    +0.117 A 
ATOM      6  C   UNL     1       2.409   0.291  -4.526  0.00  0.00    +0.075 A 
ATOM      7  C   UNL     1       1.114   0.762  -4.910  0.00  0.00    +0.261 A 
ATOM      8  O   UNL     1       0.809   0.838  -6.088  0.00  0.00    -0.267 OA
ATOM      9  N   UNL     1       0.235   1.116  -3.954  0.00  0.00    -0.301 N 
ATOM     10  H   UNL     1      -0.645   1.432  -4.211  0.00  0.00    +0.171 HD
ATOM     11  C   UNL     1       0.561   1.043  -2.631  0.00  0.00    +0.170 A 
ATOM     12  N   UNL     1       1.747   0.612  -2.249  0.00  0.00    -0.216 NA
ATOM     13  C   UNL     1       5.913  -1.046  -5.446  0.00  0.00    +0.052 C 
BRANCH   2  14
ATOM     14  C   UNL     1       3.380  -0.147  -6.863  0.00  0.00    +0.040 C 
BRANCH  14  15
ATOM     15  C   UNL     1       2.831  -1.498  -7.327  0.00  0.00    -0.010 C 
ATOM     16  C   UNL     1       1.408  -1.681  -6.795  0.00  0.00    +0.008 C 
BRANCH  15  18
ATOM     17  C   UNL     1       2.382  -2.936  -9.321  0.00  0.00    +0.004 C 
ATOM     18  C   UNL     1       2.812  -1.543  -8.856  0.00  0.00    +0.000 C 
ENDBRANCH  15  18
ENDBRANCH  14  15
ENDBRANCH   2  14
ENDBRANCH   1  11
BRANCH   1  19
ATOM     19  C   UNL     1       0.333   1.216   0.090  0.00  0.00    +0.173 C 
BRANCH  19  20
ATOM     20  C   UNL     1      -0.503   1.568   1.294  0.00  0.00    +0.228 C 
ATOM     21  O   UNL     1      -1.632   1.985   1.148  0.00  0.00    -0.275 OA
ATOM     22  N   UNL     1       0.005   1.418   2.534  0.00  0.00    -0.282 N 
ATOM     23  H   UNL     1       0.874   1.004   2.655  0.00  0.00    +0.155 HD
BRANCH  22  24
ATOM     24  C   UNL     1      -0.725   1.862   3.652  0.00  0.00    +0.078 A 
ATOM     25  C   UNL     1      -1.616   2.946   3.679  0.00  0.00    +0.082 A 
ATOM     26  N   UNL     1      -2.104   3.048   4.889  0.00  0.00    -0.170 NA
ATOM     27  N   UNL     1      -1.536   2.042   5.681  0.00  0.00    -0.235 N 
ATOM     28  C   UNL     1      -0.689   1.322   4.897  0.00  0.00    +0.063 A 
ATOM     29  C   UNL     1       0.139   0.140   5.331  0.00  0.00    +0.068 C 
ATOM     30  C   UNL     1      -1.957   3.838   2.513  0.00  0.00    +0.069 C 
BRANCH  27  31
ATOM     31  C   UNL     1      -1.796   1.816   7.040  0.00  0.00    +0.066 A 
ATOM     32  C   UNL     1      -3.095   1.899   7.523  0.00  0.00    +0.028 A 
ATOM     33  C   UNL     1      -3.349   1.671   8.861  0.00  0.00    +0.002 A 
ATOM     34  C   UNL     1      -2.309   1.369   9.722  0.00  0.00    +0.000 A 
ATOM     35  C   UNL     1      -1.013   1.290   9.244  0.00  0.00    +0.002 A 
ATOM     36  C   UNL     1      -0.754   1.513   7.906  0.00  0.00    +0.028 A 
ENDBRANCH  27  31
ENDBRANCH  22  24
ENDBRANCH  19  20
ENDBRANCH   1  19
TORSDOF 8
