REMARK  Name = ZINC32978393
REMARK  10 active torsions:
REMARK  status: ('A' for Active; 'I' for Inactive)
REMARK    1  A    between atoms: C_1  and  C_2
REMARK    2  A    between atoms: C_2  and  C_3
REMARK    3  A    between atoms: C_3  and  C_5
REMARK    4  A    between atoms: C_3  and  C_6
REMARK    5  A    between atoms: C_6  and  C_8
REMARK    6  A    between atoms: C_6  and  N_26
REMARK    7  A    between atoms: N_10  and  C_11
REMARK    8  A    between atoms: C_11  and  C_13
REMARK    9  A    between atoms: C_11  and  C_14
REMARK   10  A    between atoms: C_17  and  C_20
REMARK                            x       y       z     vdW  Elec       q    Type
REMARK                         _______ _______ _______ _____ _____    ______ ____
ROOT
ATOM      1  C   UNL     1      -0.690  -0.523   1.236  0.00  0.00    +0.234 C 
ATOM      2  O   UNL     1      -1.455   0.192   1.848  0.00  0.00    -0.274 OA
ATOM      3  N   UNL     1      -0.458  -1.781   1.661  0.00  0.00    -0.307 N 
ATOM      4  H   UNL     1       0.237  -2.429   1.106  0.00  0.00    +0.149 HD
ENDROOT
BRANCH   3   5
ATOM      5  C   UNL     1      -1.130  -2.285   2.861  0.00  0.00    +0.100 C 
ATOM      6  C   UNL     1      -2.511  -2.824   2.483  0.00  0.00    +0.033 C 
BRANCH   5   7
ATOM      7  C   UNL     1      -0.308  -3.392   3.469  0.00  0.00    -0.027 A 
ATOM      8  C   UNL     1       0.309  -4.321   2.652  0.00  0.00    +0.006 A 
ATOM      9  C   UNL     1       1.066  -5.334   3.204  0.00  0.00    +0.009 A 
ATOM     10  C   UNL     1       1.200  -5.426   4.588  0.00  0.00    -0.018 A 
ATOM     11  C   UNL     1       0.572  -4.490   5.407  0.00  0.00    +0.009 A 
ATOM     12  C   UNL     1      -0.179  -3.478   4.844  0.00  0.00    +0.006 A 
BRANCH  10  13
ATOM     13  C   UNL     1       2.009  -6.516   5.187  0.00  0.00    -0.018 A 
ATOM     14  C   UNL     1       2.147  -6.605   6.571  0.00  0.00    +0.008 A 
ATOM     15  C   UNL     1       2.896  -7.624   7.123  0.00  0.00    +0.001 A 
ATOM     16  C   UNL     1       3.517  -8.550   6.305  0.00  0.00    +0.000 A 
ATOM     17  C   UNL     1       3.388  -8.464   4.931  0.00  0.00    +0.001 A 
ATOM     18  C   UNL     1       2.637  -7.452   4.368  0.00  0.00    +0.008 A 
ENDBRANCH  10  13
ENDBRANCH   5   7
ENDBRANCH   3   5
BRANCH   1  19
ATOM     19  C   UNL     1       0.002  -0.004   0.002  0.00  0.00    +0.163 C 
BRANCH  19  20
ATOM     20  N   UNL     1      -0.018   1.461   0.010  0.00  0.00    -0.288 N 
ATOM     21  C   UNL     1      -1.194   2.119   0.019  0.00  0.00    +0.298 C 
ATOM     22  O   UNL     1      -2.239   1.496   0.021  0.00  0.00    -0.253 OA
ATOM     23  N   UNL     1      -1.212   3.466   0.027  0.00  0.00    -0.313 N 
ATOM     24  H   UNL     1       0.927   2.024   0.009  0.00  0.00    +0.151 HD
ATOM     25  H   UNL     1      -2.172   4.003   0.034  0.00  0.00    +0.146 HD
ATOM     26  H   UNL     1      -0.267   4.029   0.025  0.00  0.00    +0.146 HD
ENDBRANCH  19  20
BRANCH  19  27
ATOM     27  C   UNL     1      -0.724  -0.517  -1.243  0.00  0.00    +0.015 C 
ATOM     28  C   UNL     1      -0.703  -2.047  -1.252  0.00  0.00    +0.010 C 
BRANCH  27  30
ATOM     29  C   UNL     1      -0.818  -0.399  -3.737  0.00  0.00    +0.004 C 
ATOM     30  C   UNL     1      -0.022   0.009  -2.496  0.00  0.00    +0.002 C 
ENDBRANCH  27  30
ENDBRANCH  19  27
ENDBRANCH   1  19
TORSDOF 7
