REMARK  Name = ZINC63993293
REMARK  11 active torsions:
REMARK  status: ('A' for Active; 'I' for Inactive)
REMARK    1  A    between atoms: C_1  and  C_2
REMARK    2  A    between atoms: C_2  and  C_3
REMARK    3  A    between atoms: C_2  and  N_13
REMARK    4  A    between atoms: C_6  and  S_9
REMARK    5  A    between atoms: S_9  and  N_12
REMARK    6  A    between atoms: N_13  and  C_14
REMARK    7  A    between atoms: N_13  and  C_15
REMARK    8  A    between atoms: C_15  and  C_16
REMARK    9  A    between atoms: C_20  and  O_22
REMARK   10  A    between atoms: O_22  and  C_23
REMARK   11  A    between atoms: C_23  and  C_24
REMARK                            x       y       z     vdW  Elec       q    Type
REMARK                         _______ _______ _______ _____ _____    ______ ____
ROOT
ATOM      1  N   UNL     1       0.713  -0.491   1.192  0.00  0.00    +0.385 N 
ATOM      2  C   UNL     1       0.025  -0.017   2.401  0.00  0.00    -0.095 C 
ATOM      3  H   UNL     1       1.659  -0.141   1.185  0.00  0.00    -0.081 HD
ENDROOT
BRANCH   1   5
ATOM      4  C   UNL     1      -0.019   1.526   0.010  0.00  0.00    -0.008 C 
ATOM      5  C   UNL     1       0.002  -0.004   0.002  0.00  0.00    -0.041 C 
BRANCH   5   6
ATOM      6  C   UNL     1       0.707  -0.490  -1.238  0.00  0.00    -0.061 A 
ATOM      7  C   UNL     1       2.089  -0.511  -1.284  0.00  0.00    +0.004 A 
ATOM      8  C   UNL     1       2.736  -0.957  -2.421  0.00  0.00    +0.029 A 
ATOM      9  C   UNL     1       2.002  -1.382  -3.512  0.00  0.00    +0.105 A 
ATOM     10  C   UNL     1       0.620  -1.362  -3.466  0.00  0.00    +0.029 A 
ATOM     11  C   UNL     1      -0.027  -0.920  -2.327  0.00  0.00    +0.004 A 
BRANCH   9  12
ATOM     12  S   UNL     1       2.826  -1.949  -4.962  0.00  0.00    +0.056 S 
ATOM     13  O   UNL     1       1.916  -1.778  -6.040  0.00  0.00    -0.153 OA
ATOM     14  O   UNL     1       4.117  -1.356  -4.954  0.00  0.00    -0.153 OA
BRANCH  12  15
ATOM     15  N   UNL     1       3.054  -3.580  -4.790  0.00  0.00    -0.204 NA
ATOM     16  H   UNL     1       3.075  -4.153  -5.573  0.00  0.00    +0.144 HD
ATOM     17  H   UNL     1       3.167  -3.963  -3.906  0.00  0.00    +0.144 HD
ENDBRANCH  12  15
ENDBRANCH   9  12
ENDBRANCH   5   6
ENDBRANCH   1   5
BRANCH   1  18
ATOM     18  C   UNL     1       0.733  -1.960   1.184  0.00  0.00    -0.042 C 
BRANCH  18  19
ATOM     19  C   UNL     1       1.565  -2.457   2.337  0.00  0.00    -0.060 A 
ATOM     20  C   UNL     1       2.923  -2.663   2.171  0.00  0.00    +0.002 A 
ATOM     21  C   UNL     1       3.689  -3.119   3.227  0.00  0.00    +0.004 A 
ATOM     22  C   UNL     1       3.101  -3.371   4.452  0.00  0.00    +0.045 A 
ATOM     23  C   UNL     1       1.739  -3.166   4.621  0.00  0.00    +0.121 A 
ATOM     24  C   UNL     1       0.973  -2.702   3.561  0.00  0.00    +0.047 A 
BRANCH  23  25
ATOM     25  O   UNL     1       1.158  -3.413   5.824  0.00  0.00    -0.483 OA
BRANCH  25  26
ATOM     26  C   UNL     1       2.009  -3.883   6.871  0.00  0.00    +0.324 C 
BRANCH  26  27
ATOM     27  C   UNL     1       1.195  -4.100   8.121  0.00  0.00    +0.248 C 
ATOM     28  O   UNL     1       0.003  -3.875   8.115  0.00  0.00    -0.272 OA
ATOM     29  N   UNL     1       1.791  -4.545   9.245  0.00  0.00    -0.327 N 
ATOM     30  H   UNL     1       2.744  -4.725   9.249  0.00  0.00    +0.145 HD
ATOM     31  H   UNL     1       1.267  -4.685  10.049  0.00  0.00    +0.145 HD
ENDBRANCH  26  27
ENDBRANCH  25  26
ENDBRANCH  23  25
ENDBRANCH  18  19
ENDBRANCH   1  18
TORSDOF 9
