REMARK  Name = ZINC01762026
REMARK  0 active torsions:
REMARK  status: ('A' for Active; 'I' for Inactive)
REMARK                            x       y       z     vdW  Elec       q    Type
REMARK                         _______ _______ _______ _____ _____    ______ ____
ROOT
ATOM      1  C   UNL     1      -0.730   3.119  -1.226  0.00  0.00    +0.000 C 
ATOM      2  C   UNL     1      -0.742   1.587  -1.237  0.00  0.00    +0.000 C 
ATOM      3  C   UNL     1      -0.013   1.086   0.008  0.00  0.00    +0.005 C 
ATOM      4  C   UNL     1      -0.720   1.575   1.277  0.00  0.00    +0.013 C 
ATOM      5  C   UNL     1       0.107   1.082   2.473  0.00  0.00    +0.169 C 
ATOM      6  S   UNL     1      -0.717   1.558   4.018  0.00  0.00    -0.031 S 
ATOM      7  O   UNL     1      -2.005   0.959   4.049  0.00  0.00    -0.174 OA
ATOM      8  O   UNL     1       0.181   1.337   5.097  0.00  0.00    -0.174 OA
ATOM      9  C   UNL     1      -0.917   3.351   3.789  0.00  0.00    +0.166 C 
ATOM     10  C   UNL     1      -1.648   3.588   2.470  0.00  0.00    +0.026 C 
ATOM     11  C   UNL     1      -0.809   3.098   1.286  0.00  0.00    -0.005 C 
ATOM     12  C   UNL     1      -1.487   3.603   0.008  0.00  0.00    +0.004 C 
ENDROOT
TORSDOF 0
