REMARK  Name = ZINC40756147
REMARK  7 active torsions:
REMARK  status: ('A' for Active; 'I' for Inactive)
REMARK    1  A    between atoms: C_6  and  C_7
REMARK    2  A    between atoms: C_7  and  N_8
REMARK    3  A    between atoms: C_10  and  N_24
REMARK    4  A    between atoms: C_11  and  N_15
REMARK    5  A    between atoms: N_15  and  C_16
REMARK    6  A    between atoms: C_16  and  C_17
REMARK    7  A    between atoms: C_17  and  C_18
REMARK                            x       y       z     vdW  Elec       q    Type
REMARK                         _______ _______ _______ _____ _____    ______ ____
ROOT
ATOM      1  N   UNL     1      -1.726  -1.017  -1.368  0.00  0.00    -0.323 N 
ATOM      2  C   UNL     1      -2.902  -1.714  -1.615  0.00  0.00    +0.145 A 
ATOM      3  C   UNL     1      -3.322  -1.956  -2.924  0.00  0.00    +0.105 A 
ATOM      4  C   UNL     1      -4.511  -2.662  -3.115  0.00  0.00    +0.145 A 
ATOM      5  N   UNL     1      -5.195  -3.074  -2.050  0.00  0.00    -0.219 NA
ATOM      6  C   UNL     1      -4.763  -2.825  -0.831  0.00  0.00    +0.225 A 
ATOM      7  N   UNL     1      -3.644  -2.167  -0.606  0.00  0.00    -0.219 NA
ATOM      8  H   UNL     1      -1.191  -0.691  -2.109  0.00  0.00    +0.148 HD
ENDROOT
BRANCH   3   9
ATOM      9  N   UNL     1      -2.569  -1.502  -4.019  0.00  0.00    -0.353 N 
ATOM     10  H   UNL     1      -1.744  -1.012  -3.871  0.00  0.00    +0.143 HD
ATOM     11  H   UNL     1      -2.873  -1.677  -4.923  0.00  0.00    +0.143 HD
ENDBRANCH   3   9
BRANCH   4  12
ATOM     12  N   UNL     1      -4.974  -2.929  -4.398  0.00  0.00    -0.327 N 
ATOM     13  H   UNL     1      -4.470  -2.625  -5.169  0.00  0.00    +0.148 HD
BRANCH  12  14
ATOM     14  C   UNL     1      -6.224  -3.671  -4.586  0.00  0.00    +0.107 C 
BRANCH  14  15
ATOM     15  C   UNL     1      -6.503  -3.828  -6.082  0.00  0.00    +0.049 C 
BRANCH  15  16
ATOM     16  C   UNL     1      -7.789  -4.591  -6.275  0.00  0.00    -0.072 C 
ATOM     17  C   UNL     1      -8.877  -3.912  -6.451  0.00  0.00    -0.028 C 
ATOM     18  C   UNL     1     -10.231  -4.529  -6.645  0.00  0.00    +0.027 C 
ATOM     19  C   UNL     1     -10.088  -6.004  -7.028  0.00  0.00    +0.004 C 
ATOM     20  C   UNL     1      -9.127  -6.671  -6.036  0.00  0.00    +0.005 C 
ATOM     21  C   UNL     1      -7.727  -6.090  -6.258  0.00  0.00    +0.030 C 
ENDBRANCH  15  16
ENDBRANCH  14  15
ENDBRANCH  12  14
ENDBRANCH   4  12
BRANCH   1  22
ATOM     22  C   UNL     1      -1.293  -0.775   0.010  0.00  0.00    +0.138 C 
BRANCH  22  28
ATOM     23  C   UNL     1      -0.017   1.378   0.010  0.00  0.00    +0.008 A 
ATOM     24  C   UNL     1       1.170   2.086   0.002  0.00  0.00    +0.038 A 
ATOM     25  C   UNL     1       2.379   1.410  -0.013  0.00  0.00    +0.123 A 
ATOM     26  C   UNL     1       2.396   0.026  -0.021  0.00  0.00    +0.038 A 
ATOM     27  C   UNL     1       1.208  -0.680  -0.013  0.00  0.00    +0.008 A 
ATOM     28  C   UNL     1       0.002  -0.004   0.002  0.00  0.00    -0.030 A 
ATOM     29  F   UNL     1       3.540   2.101  -0.021  0.00  0.00    -0.205 F 
ENDBRANCH  22  28
ENDBRANCH   1  22
TORSDOF 7
