REMARK  Name = ZINC44109814
REMARK  9 active torsions:
REMARK  status: ('A' for Active; 'I' for Inactive)
REMARK    1  A    between atoms: C_1  and  C_2
REMARK    2  A    between atoms: C_2  and  C_4
REMARK    3  A    between atoms: C_2  and  S_13
REMARK    4  A    between atoms: C_6  and  C_9
REMARK    5  A    between atoms: C_9  and  C_10
REMARK    6  A    between atoms: C_9  and  C_11
REMARK    7  A    between atoms: C_9  and  C_12
REMARK    8  A    between atoms: S_13  and  C_14
REMARK    9  A    between atoms: C_17  and  C_20
REMARK                            x       y       z     vdW  Elec       q    Type
REMARK                         _______ _______ _______ _____ _____    ______ ____
ROOT
ATOM      1  C   UNL     1       2.533  -0.042   1.241  0.00  0.00    +0.185 A 
ATOM      2  N   UNL     1       2.977   0.653   0.216  0.00  0.00    -0.201 NA
ATOM      3  H   UNL     1       3.540  -0.723   2.932  0.00  0.00    +0.191 HD
ATOM      4  C   UNL     1       4.284   0.906   0.375  0.00  0.00    +0.183 A 
ATOM      5  N   UNL     1       4.686   0.372   1.506  0.00  0.00    -0.152 NA
ATOM      6  N   UNL     1       3.566  -0.244   2.088  0.00  0.00    -0.253 N 
ENDROOT
BRANCH   4   7
ATOM      7  C   UNL     1       5.137   1.665  -0.572  0.00  0.00    +0.035 A 
ATOM      8  C   UNL     1       4.590   2.188  -1.741  0.00  0.00    +0.013 A 
ATOM      9  C   UNL     1       5.388   2.894  -2.619  0.00  0.00    +0.001 A 
ATOM     10  C   UNL     1       6.730   3.081  -2.340  0.00  0.00    +0.001 A 
ATOM     11  C   UNL     1       7.280   2.564  -1.181  0.00  0.00    +0.016 A 
ATOM     12  C   UNL     1       6.489   1.861  -0.293  0.00  0.00    +0.029 A 
ATOM     13 BR   UNL     1       7.240   1.161   1.295  0.00  0.00    -0.050 Br
ENDBRANCH   4   7
BRANCH   1  14
ATOM     14  S   UNL     1       0.879  -0.605   1.472  0.00  0.00    -0.074 S 
BRANCH  14  16
ATOM     15  C   UNL     1      -0.019   1.526   0.010  0.00  0.00    +0.029 C 
ATOM     16  C   UNL     1       0.002  -0.004   0.002  0.00  0.00    +0.140 C 
BRANCH  16  17
ATOM     17  C   UNL     1      -1.412  -0.526   0.013  0.00  0.00    +0.241 A 
ATOM     18  N   UNL     1      -2.042  -1.046  -1.004  0.00  0.00    -0.195 NA
ATOM     19  C   UNL     1      -3.280  -1.403  -0.642  0.00  0.00    +0.177 A 
ATOM     20  N   UNL     1      -3.452  -1.113   0.615  0.00  0.00    -0.061 NA
ATOM     21  O   UNL     1      -2.235  -0.540   1.069  0.00  0.00    -0.337 OA
BRANCH  19  22
ATOM     22  C   UNL     1      -4.307  -2.038  -1.544  0.00  0.00    +0.025 C 
ATOM     23  C   UNL     1      -3.765  -3.366  -2.078  0.00  0.00    +0.019 C 
ATOM     24  C   UNL     1      -5.592  -2.292  -0.753  0.00  0.00    +0.019 C 
ATOM     25  C   UNL     1      -4.606  -1.101  -2.716  0.00  0.00    +0.019 C 
ENDBRANCH  19  22
ENDBRANCH  16  17
ENDBRANCH  14  16
ENDBRANCH   1  14
TORSDOF 5
