REMARK  Name = ZINC04998067
REMARK  8 active torsions:
REMARK  status: ('A' for Active; 'I' for Inactive)
REMARK    1  A    between atoms: C_1  and  O_2
REMARK    2  A    between atoms: O_2  and  C_3
REMARK    3  A    between atoms: C_4  and  C_11
REMARK    4  A    between atoms: C_11  and  N_37
REMARK    5  A    between atoms: C_12  and  C_13
REMARK    6  A    between atoms: C_12  and  N_37
REMARK    7  A    between atoms: C_13  and  N_14
REMARK    8  A    between atoms: C_15  and  C_17
REMARK                            x       y       z     vdW  Elec       q    Type
REMARK                         _______ _______ _______ _____ _____    ______ ____
ROOT
ATOM      1  C   UNL     1       1.451  -0.494  -0.015  0.00  0.00    -0.063 C 
ENDROOT
BRANCH   1   2
ATOM      2  N   UNL     1       1.462  -1.969  -0.022  0.00  0.00    +0.383 N 
ATOM      3  H   UNL     1       0.987  -2.316   0.819  0.00  0.00    -0.085 HD
ATOM      4  H   UNL     1       0.971  -2.307  -0.858  0.00  0.00    -0.085 HD
BRANCH   2   5
ATOM      5  C   UNL     1       2.850  -2.471  -0.038  0.00  0.00    -0.043 C 
BRANCH   5   7
ATOM      6  C   UNL     1       2.595  -4.662  -1.230  0.00  0.00    +0.140 A 
ATOM      7  C   UNL     1       2.830  -3.978  -0.046  0.00  0.00    -0.020 A 
ATOM      8  C   UNL     1       3.040  -4.678   1.126  0.00  0.00    +0.025 A 
ATOM      9  C   UNL     1       3.022  -6.061   1.120  0.00  0.00    +0.043 A 
ATOM     10  C   UNL     1       2.793  -6.747  -0.060  0.00  0.00    +0.043 A 
ATOM     11  C   UNL     1       2.583  -6.050  -1.235  0.00  0.00    +0.084 A 
ATOM     12 CL   UNL     1       2.297  -6.911  -2.716  0.00  0.00    -0.080 Cl
ATOM     13 CL   UNL     1       3.286  -6.938   2.595  0.00  0.00    -0.083 Cl
BRANCH   6  15
ATOM     14  C   UNL     1       3.531  -3.662  -3.173  0.00  0.00    +0.277 C 
ATOM     15  O   UNL     1       2.383  -3.975  -2.383  0.00  0.00    -0.493 OA
ENDBRANCH   6  15
ENDBRANCH   5   7
ENDBRANCH   2   5
ENDBRANCH   1   2
BRANCH   1  16
ATOM     16  C   UNL     1       0.002  -0.004   0.002  0.00  0.00    +0.085 C 
BRANCH  16  17
ATOM     17  N   UNL     1      -0.018   1.461   0.010  0.00  0.00    -0.312 N 
ATOM     18  C   UNL     1      -1.194   2.119   0.019  0.00  0.00    +0.269 C 
ATOM     19  O   UNL     1      -2.238   1.497   0.021  0.00  0.00    -0.268 OA
ATOM     20  H   UNL     1       0.816   1.957   0.005  0.00  0.00    +0.149 HD
BRANCH  18  21
ATOM     21  C   UNL     1      -1.214   3.600   0.027  0.00  0.00    +0.209 A 
ATOM     22  C   UNL     1      -2.381   4.511   0.038  0.00  0.00    +0.192 A 
ATOM     23  N   UNL     1      -1.818   5.697   0.042  0.00  0.00    -0.033 NA
ATOM     24  O   UNL     1      -0.616   5.571   0.036  0.00  0.00    -0.240 OA
ATOM     25  N   UNL     1      -0.199   4.437   0.033  0.00  0.00    -0.042 NA
ATOM     26  N   UNL     1      -3.732   4.191   0.043  0.00  0.00    -0.339 N 
ATOM     27  H   UNL     1      -4.011   3.262   0.039  0.00  0.00    +0.144 HD
ATOM     28  H   UNL     1      -4.397   4.897   0.050  0.00  0.00    +0.144 HD
ENDBRANCH  18  21
ENDBRANCH  16  17
ENDBRANCH   1  16
TORSDOF 7
