REMARK  Name = ZINC58418135
REMARK  5 active torsions:
REMARK  status: ('A' for Active; 'I' for Inactive)
REMARK    1  A    between atoms: C_1  and  C_2
REMARK    2  A    between atoms: C_2  and  N_3
REMARK    3  A    between atoms: C_9  and  C_15
REMARK    4  A    between atoms: N_17  and  C_18
REMARK    5  A    between atoms: C_18  and  C_19
REMARK                            x       y       z     vdW  Elec       q    Type
REMARK                         _______ _______ _______ _____ _____    ______ ____
ROOT
ATOM      1  N   UNL     1       0.688  -0.476  -1.203  0.00  0.00    -0.287 N 
ATOM      2  C   UNL     1      -0.023  -0.697  -2.331  0.00  0.00    +0.262 A 
ATOM      3  O   UNL     1      -1.350  -0.487  -2.361  0.00  0.00    -0.267 OA
ATOM      4  C   UNL     1       0.664  -1.152  -3.476  0.00  0.00    +0.065 A 
ATOM      5  C   UNL     1      -0.005  -1.402  -4.683  0.00  0.00    +0.016 A 
ATOM      6  C   UNL     1       0.693  -1.840  -5.767  0.00  0.00    +0.014 A 
ATOM      7  C   UNL     1       2.079  -2.045  -5.695  0.00  0.00    +0.039 A 
ATOM      8  C   UNL     1       2.767  -1.807  -4.516  0.00  0.00    +0.041 A 
ATOM      9  C   UNL     1       2.066  -1.355  -3.389  0.00  0.00    +0.080 A 
ATOM     10  N   UNL     1       2.691  -1.111  -2.228  0.00  0.00    -0.222 NA
ATOM     11  C   UNL     1       2.015  -0.679  -1.174  0.00  0.00    +0.183 A 
ATOM     12  S   UNL     1       2.864  -0.376   0.282  0.00  0.00    -0.011 S 
ENDROOT
BRANCH   7  13
ATOM     13  C   UNL     1       2.813  -2.523  -6.889  0.00  0.00    +0.244 C 
ATOM     14  O   UNL     1       4.014  -2.703  -6.833  0.00  0.00    -0.270 OA
ATOM     15  N   UNL     1       2.150  -2.757  -8.039  0.00  0.00    -0.307 N 
ATOM     16  H   UNL     1       1.192  -2.614  -8.084  0.00  0.00    +0.149 HD
BRANCH  15  17
ATOM     17  C   UNL     1       2.876  -3.229  -9.220  0.00  0.00    +0.146 C 
BRANCH  17  18
ATOM     18  C   UNL     1       1.911  -3.413 -10.363  0.00  0.00    +0.006 C 
ATOM     19  C   UNL     1       2.012  -2.661 -11.434  0.00  0.00    +0.021 C 
ATOM     20 BR   UNL     1       0.555  -4.725 -10.254  0.00  0.00    -0.054 Br
ENDBRANCH  17  18
ENDBRANCH  15  17
ENDBRANCH   7  13
BRANCH   1  22
ATOM     21  C   UNL     1      -0.019   1.526   0.010  0.00  0.00    +0.027 C 
ATOM     22  C   UNL     1       0.002  -0.004   0.002  0.00  0.00    +0.124 C 
ENDBRANCH   1  22
TORSDOF 4
