REMARK  Name = ZINC09721560
REMARK  6 active torsions:
REMARK  status: ('A' for Active; 'I' for Inactive)
REMARK    1  A    between atoms: C_4  and  C_7
REMARK    2  A    between atoms: C_16  and  C_18
REMARK    3  A    between atoms: C_18  and  N_57
REMARK    4  A    between atoms: C_21  and  C_24
REMARK    5  A    between atoms: N_26  and  C_27
REMARK    6  A    between atoms: C_32  and  O_33
REMARK                            x       y       z     vdW  Elec       q    Type
REMARK                         _______ _______ _______ _____ _____    ______ ____
ROOT
ATOM      1  C   UNL     1       1.574   5.886  -1.243  0.00  0.00    -0.078 C 
ATOM      2  C   UNL     1       1.184   7.362  -1.135  0.00  0.00    -0.006 C 
ATOM      3  C   UNL     1       2.441   8.201  -0.891  0.00  0.00    +0.072 C 
ATOM      4  C   UNL     1       3.137   7.706   0.380  0.00  0.00    -0.006 C 
ATOM      5  C   UNL     1       3.471   6.220   0.227  0.00  0.00    -0.078 C 
ATOM      6  N   UNL     1       2.217   5.465   0.020  0.00  0.00    +0.384 N 
ATOM      7  H   UNL     1       1.579   5.661   0.800  0.00  0.00    -0.081 HD
ENDROOT
BRANCH   3   8
ATOM      8  C   UNL     1       2.056   9.648  -0.724  0.00  0.00    +0.220 C 
ATOM      9  O   UNL     1       2.313  10.228   0.310  0.00  0.00    -0.275 OA
ATOM     10  N   UNL     1       1.427  10.298  -1.722  0.00  0.00    -0.282 N 
ATOM     11  H   UNL     1       1.279   9.854  -2.572  0.00  0.00    +0.155 HD
BRANCH  10  12
ATOM     12  C   UNL     1       0.985  11.614  -1.533  0.00  0.00    +0.075 A 
ATOM     13  C   UNL     1       1.719  12.487  -0.743  0.00  0.00    +0.027 A 
ATOM     14  C   UNL     1       1.282  13.785  -0.558  0.00  0.00    +0.002 A 
ATOM     15  C   UNL     1       0.114  14.217  -1.159  0.00  0.00    +0.004 A 
ATOM     16  C   UNL     1      -0.623  13.353  -1.948  0.00  0.00    +0.047 A 
ATOM     17  C   UNL     1      -0.189  12.052  -2.143  0.00  0.00    +0.138 A 
BRANCH  17  18
ATOM     18  O   UNL     1      -0.909  11.203  -2.923  0.00  0.00    -0.505 OA
ATOM     19  H   UNL     1      -1.580  10.700  -2.442  0.00  0.00    +0.292 HD
ENDBRANCH  17  18
ENDBRANCH  10  12
ENDBRANCH   3   8
BRANCH   6  20
ATOM     20  C   UNL     1       2.501   4.016  -0.017  0.00  0.00    -0.003 C 
BRANCH  20  30
ATOM     21  C   UNL     1      -2.546   1.366   0.019  0.00  0.00    +0.004 A 
ATOM     22  C   UNL     1      -3.587   2.233   0.037  0.00  0.00    +0.056 A 
ATOM     23  S   UNL     1      -2.794   3.830   0.039  0.00  0.00    -0.076 S 
ATOM     24  C   UNL     1      -1.100   3.301   0.017  0.00  0.00    +0.116 A 
ATOM     25  C   UNL     1      -1.189   1.900   0.003  0.00  0.00    +0.080 A 
ATOM     26  C   UNL     1       0.060   1.200  -0.011  0.00  0.00    +0.260 A 
ATOM     27  O   UNL     1       0.086  -0.019  -0.020  0.00  0.00    -0.267 OA
ATOM     28  N   UNL     1       1.204   1.908  -0.018  0.00  0.00    -0.312 N 
ATOM     29  H   UNL     1       2.054   1.439  -0.031  0.00  0.00    +0.170 HD
ATOM     30  C   UNL     1       1.194   3.265  -0.008  0.00  0.00    +0.094 A 
ATOM     31  N   UNL     1       0.071   3.932   0.009  0.00  0.00    -0.229 NA
BRANCH  21  35
ATOM     32  C   UNL     1      -3.223  -2.831  -0.004  0.00  0.00    +0.000 A 
ATOM     33  C   UNL     1      -3.864  -2.034   0.928  0.00  0.00    +0.001 A 
ATOM     34  C   UNL     1      -3.648  -0.672   0.941  0.00  0.00    +0.008 A 
ATOM     35  C   UNL     1      -2.782  -0.097   0.011  0.00  0.00    -0.017 A 
ATOM     36  C   UNL     1      -2.143  -0.904  -0.929  0.00  0.00    +0.008 A 
ATOM     37  C   UNL     1      -2.362  -2.267  -0.928  0.00  0.00    +0.001 A 
ENDBRANCH  21  35
ENDBRANCH  20  30
ENDBRANCH   6  20
TORSDOF 6
