REMARK  Name = ZINC14436083
REMARK  7 active torsions:
REMARK  status: ('A' for Active; 'I' for Inactive)
REMARK    1  A    between atoms: C_3  and  O_25
REMARK    2  A    between atoms: C_4  and  O_24
REMARK    3  A    between atoms: C_6  and  C_7
REMARK    4  A    between atoms: C_9  and  O_23
REMARK    5  A    between atoms: C_11  and  O_22
REMARK    6  A    between atoms: C_16  and  O_21
REMARK    7  A    between atoms: C_17  and  O_20
REMARK                            x       y       z     vdW  Elec       q    Type
REMARK                         _______ _______ _______ _____ _____    ______ ____
ROOT
ATOM      1  C   UNL     1       0.002   4.143  -0.330  0.00  0.00    +0.235 C 
ATOM      2  C   UNL     1      -1.160   3.539   0.469  0.00  0.00    +0.192 C 
ATOM      3  C   UNL     1      -1.349   2.088   0.020  0.00  0.00    +0.180 C 
ATOM      4  C   UNL     1      -0.017   1.382   0.010  0.00  0.00    +0.029 A 
ATOM      5  C   UNL     1       0.002  -0.004   0.002  0.00  0.00    +0.013 A 
ATOM      6  C   UNL     1       1.201  -0.688  -0.017  0.00  0.00    +0.050 A 
ATOM      7  C   UNL     1       2.398   0.013  -0.028  0.00  0.00    +0.162 A 
ATOM      8  C   UNL     1       2.385   1.401  -0.019  0.00  0.00    +0.201 A 
ATOM      9  C   UNL     1       1.173   2.088   0.002  0.00  0.00    +0.172 A 
ATOM     10  O   UNL     1       1.199   3.447   0.020  0.00  0.00    -0.477 OA
ENDROOT
BRANCH   1  16
ATOM     11  C   UNL     1       0.865   5.985   1.126  0.00  0.00    +0.011 A 
ATOM     12  C   UNL     1       1.001   7.325   1.441  0.00  0.00    +0.049 A 
ATOM     13  C   UNL     1       0.414   8.288   0.637  0.00  0.00    +0.158 A 
ATOM     14  C   UNL     1      -0.311   7.905  -0.488  0.00  0.00    +0.159 A 
ATOM     15  C   UNL     1      -0.437   6.561  -0.801  0.00  0.00    +0.056 A 
ATOM     16  C   UNL     1       0.146   5.604   0.009  0.00  0.00    -0.001 A 
BRANCH  14  17
ATOM     17  O   UNL     1      -0.888   8.847  -1.280  0.00  0.00    -0.503 OA
ATOM     18  H   UNL     1      -0.320   9.160  -1.998  0.00  0.00    +0.292 HD
ENDBRANCH  14  17
BRANCH  13  19
ATOM     19  O   UNL     1       0.546   9.606   0.946  0.00  0.00    -0.503 OA
ATOM     20  H   UNL     1       1.320  10.028   0.547  0.00  0.00    +0.292 HD
ENDBRANCH  13  19
ENDBRANCH   1  16
BRANCH   8  21
ATOM     21  O   UNL     1       3.558   2.091  -0.030  0.00  0.00    -0.501 OA
ATOM     22  H   UNL     1       3.885   2.297  -0.916  0.00  0.00    +0.292 HD
ENDBRANCH   8  21
BRANCH   7  23
ATOM     23  O   UNL     1       3.581  -0.658  -0.048  0.00  0.00    -0.503 OA
ATOM     24  H   UNL     1       3.911  -0.846  -0.938  0.00  0.00    +0.292 HD
ENDBRANCH   7  23
BRANCH   3  25
ATOM     25  O   UNL     1      -1.909   2.066  -1.295  0.00  0.00    -0.384 OA
ATOM     26  H   UNL     1      -2.060   1.176  -1.643  0.00  0.00    +0.210 HD
ENDBRANCH   3  25
BRANCH   2  27
ATOM     27  O   UNL     1      -2.355   4.281   0.217  0.00  0.00    -0.385 OA
ATOM     28  H   UNL     1      -3.130   3.951   0.692  0.00  0.00    +0.210 HD
ENDBRANCH   2  27
TORSDOF 7
