REMARK  Name = ZINC39361830
REMARK  10 active torsions:
REMARK  status: ('A' for Active; 'I' for Inactive)
REMARK    1  A    between atoms: C_1  and  C_2
REMARK    2  A    between atoms: C_2  and  C_3
REMARK    3  A    between atoms: C_3  and  C_5
REMARK    4  A    between atoms: C_3  and  S_6
REMARK    5  A    between atoms: S_6  and  C_7
REMARK    6  A    between atoms: C_11  and  C_22
REMARK    7  A    between atoms: N_13  and  C_14
REMARK    8  A    between atoms: C_16  and  C_21
REMARK    9  A    between atoms: C_19  and  C_20
REMARK   10  A    between atoms: C_22  and  C_23
REMARK                            x       y       z     vdW  Elec       q    Type
REMARK                         _______ _______ _______ _____ _____    ______ ____
ROOT
ATOM      1  C   UNL     1       0.819  -0.932   4.469  0.00  0.00    +0.217 C 
ATOM      2  N   UNL     1       0.952  -2.361   4.108  0.00  0.00    -0.226 NA
ATOM      3  N   UNL     1       2.393  -2.636   4.228  0.00  0.00    -0.234 NA
ATOM      4  C   UNL     1       3.014  -1.384   3.720  0.00  0.00    +0.163 C 
ATOM      5  N   UNL     1       2.132  -0.310   4.222  0.00  0.00    -0.287 N 
ATOM      6  H   UNL     1       0.420  -2.944   4.736  0.00  0.00    +0.143 HD
ATOM      7  H   UNL     1       2.650  -2.804   5.189  0.00  0.00    +0.143 HD
ENDROOT
BRANCH   5   8
ATOM      8  C   UNL     1       2.474   1.029   4.423  0.00  0.00    +0.036 A 
ATOM      9  C   UNL     1       2.843   1.471   5.687  0.00  0.00    +0.026 A 
ATOM     10  C   UNL     1       3.182   2.796   5.882  0.00  0.00    -0.049 A 
ATOM     11  C   UNL     1       3.152   3.682   4.821  0.00  0.00    +0.004 A 
ATOM     12  C   UNL     1       2.785   3.245   3.561  0.00  0.00    +0.005 A 
ATOM     13  C   UNL     1       2.451   1.920   3.358  0.00  0.00    -0.029 A 
ATOM     14  C   UNL     1       2.057   1.444   1.984  0.00  0.00    +0.045 C 
ATOM     15  C   UNL     1       3.582   3.276   7.253  0.00  0.00    +0.044 C 
ENDBRANCH   5   8
BRANCH   1  16
ATOM     16  S   UNL     1      -0.445  -0.145   3.433  0.00  0.00    -0.119 S 
BRANCH  16  17
ATOM     17  C   UNL     1      -2.013  -0.660   4.186  0.00  0.00    +0.046 C 
ATOM     18  C   UNL     1      -2.151  -0.017   5.567  0.00  0.00    +0.019 C 
BRANCH  17  20
ATOM     19  C   UNL     1      -3.106  -0.950   1.958  0.00  0.00    +0.005 C 
ATOM     20  C   UNL     1      -3.176  -0.214   3.298  0.00  0.00    +0.010 C 
ENDBRANCH  17  20
ENDBRANCH  16  17
ENDBRANCH   1  16
BRANCH   4  21
ATOM     21  C   UNL     1       4.429  -1.224   4.281  0.00  0.00    +0.093 C 
BRANCH  21  22
ATOM     22  C   UNL     1       5.315  -2.311   3.729  0.00  0.00    +0.029 A 
ATOM     23  N   UNL     1       5.353  -3.539   4.331  0.00  0.00    -0.311 N 
ATOM     24  C   UNL     1       6.140  -4.516   3.845  0.00  0.00    +0.327 A 
ATOM     25  O   UNL     1       6.158  -5.600   4.395  0.00  0.00    -0.247 OA
ATOM     26  N   UNL     1       6.907  -4.311   2.759  0.00  0.00    -0.275 N 
ATOM     27  C   UNL     1       6.898  -3.114   2.137  0.00  0.00    +0.254 A 
ATOM     28  O   UNL     1       7.592  -2.927   1.154  0.00  0.00    -0.268 OA
ATOM     29  C   UNL     1       6.071  -2.079   2.635  0.00  0.00    +0.091 A 
ATOM     30  H   UNL     1       7.469  -5.026   2.422  0.00  0.00    +0.173 HD
ATOM     31  H   UNL     1       4.807  -3.707   5.115  0.00  0.00    +0.170 HD
ENDBRANCH  21  22
ENDBRANCH   4  21
TORSDOF 6
