REMARK  Name = ZINC50310011
REMARK  5 active torsions:
REMARK  status: ('A' for Active; 'I' for Inactive)
REMARK    1  A    between atoms: C_1  and  C_2
REMARK    2  A    between atoms: C_2  and  C_3
REMARK    3  A    between atoms: C_2  and  C_4
REMARK    4  A    between atoms: C_5  and  N_19
REMARK    5  A    between atoms: C_6  and  C_10
REMARK                            x       y       z     vdW  Elec       q    Type
REMARK                         _______ _______ _______ _____ _____    ______ ____
ROOT
ATOM      1  C   UNL     1      -1.412  -0.526   0.013  0.00  0.00    +0.060 A 
ATOM      2  C   UNL     1      -1.988  -1.318  -0.930  0.00  0.00    +0.078 A 
ATOM      3  C   UNL     1      -3.315  -1.538  -0.478  0.00  0.00    +0.168 A 
ATOM      4  N   UNL     1      -3.448  -0.889   0.663  0.00  0.00    -0.167 NA
ATOM      5  N   UNL     1      -2.349  -0.298   0.970  0.00  0.00    -0.279 N 
ATOM      6  H   UNL     1      -2.210   0.236   1.767  0.00  0.00    +0.189 HD
ENDROOT
BRANCH   3   7
ATOM      7  C   UNL     1      -4.350  -2.339  -1.157  0.00  0.00    +0.272 C 
ATOM      8  O   UNL     1      -4.099  -2.889  -2.212  0.00  0.00    -0.268 OA
ATOM      9  N   UNL     1      -5.575  -2.461  -0.608  0.00  0.00    -0.259 N 
ATOM     10  C   UNL     1      -6.550  -3.216  -1.247  0.00  0.00    +0.166 A 
ATOM     11  N   UNL     1      -6.458  -3.881  -2.379  0.00  0.00    -0.232 NA
ATOM     12  C   UNL     1      -7.486  -4.557  -2.859  0.00  0.00    +0.136 A 
ATOM     13  C   UNL     1      -8.632  -4.533  -2.133  0.00  0.00    +0.076 A 
ATOM     14  S   UNL     1      -8.133  -3.509  -0.758  0.00  0.00    -0.045 S 
ATOM     15 BR   UNL     1     -10.296  -5.362  -2.479  0.00  0.00    -0.041 Br
ATOM     16  H   UNL     1      -5.775  -2.022   0.234  0.00  0.00    +0.157 HD
ENDBRANCH   3   7
BRANCH   1  18
ATOM     17  C   UNL     1      -0.019   1.526   0.010  0.00  0.00    +0.014 C 
ATOM     18  C   UNL     1       0.002  -0.004   0.002  0.00  0.00    +0.033 C 
ATOM     19  C   UNL     1       0.742  -0.511   1.242  0.00  0.00    +0.014 C 
ENDBRANCH   1  18
BRANCH   2  20
ATOM     20  N   UNL     1      -1.396  -1.812  -2.102  0.00  0.00    -0.355 N 
ATOM     21  H   UNL     1      -0.474  -1.593  -2.309  0.00  0.00    +0.142 HD
ATOM     22  H   UNL     1      -1.909  -2.373  -2.705  0.00  0.00    +0.142 HD
ENDBRANCH   2  20
TORSDOF 3
