REMARK  Name = ZINC12437714
REMARK  10 active torsions:
REMARK  status: ('A' for Active; 'I' for Inactive)
REMARK    1  A    between atoms: C_1  and  C_2
REMARK    2  A    between atoms: C_5  and  S_8
REMARK    3  A    between atoms: S_8  and  N_11
REMARK    4  A    between atoms: N_11  and  N_12
REMARK    5  A    between atoms: C_14  and  C_23
REMARK    6  A    between atoms: N_25  and  C_26
REMARK    7  A    between atoms: C_29  and  O_34
REMARK    8  A    between atoms: C_30  and  O_32
REMARK    9  A    between atoms: O_32  and  C_33
REMARK   10  A    between atoms: O_34  and  C_35
REMARK                            x       y       z     vdW  Elec       q    Type
REMARK                         _______ _______ _______ _____ _____    ______ ____
ROOT
ATOM      1  N   UNL     1      -2.164   1.756   3.555  0.00  0.00    -0.127 NA
ATOM      2  C   UNL     1      -3.125   1.696   4.433  0.00  0.00    +0.249 A 
ATOM      3  C   UNL     1      -3.989   2.869   4.702  0.00  0.00    +0.101 A 
ATOM      4  C   UNL     1      -5.261   2.616   5.164  0.00  0.00    +0.030 A 
ATOM      5  C   UNL     1      -5.649   1.214   5.361  0.00  0.00    +0.018 A 
ATOM      6  C   UNL     1      -6.987   0.866   5.568  0.00  0.00    +0.011 A 
ATOM      7  C   UNL     1      -7.327  -0.458   5.745  0.00  0.00    +0.001 A 
ATOM      8  C   UNL     1      -6.352  -1.442   5.718  0.00  0.00    +0.004 A 
ATOM      9  C   UNL     1      -5.025  -1.111   5.514  0.00  0.00    +0.047 A 
ATOM     10  C   UNL     1      -4.662   0.213   5.336  0.00  0.00    +0.138 A 
ATOM     11  O   UNL     1      -3.362   0.553   5.140  0.00  0.00    -0.436 OA
ENDROOT
BRANCH   3  12
ATOM     12  C   UNL     1      -3.509   4.243   4.479  0.00  0.00    +0.253 C 
ATOM     13  O   UNL     1      -2.417   4.431   3.975  0.00  0.00    -0.270 OA
ATOM     14  N   UNL     1      -4.278   5.291   4.832  0.00  0.00    -0.281 N 
ATOM     15  H   UNL     1      -5.104   5.144   5.319  0.00  0.00    +0.155 HD
BRANCH  14  16
ATOM     16  C   UNL     1      -3.885   6.593   4.496  0.00  0.00    +0.037 A 
ATOM     17  C   UNL     1      -3.177   6.823   3.324  0.00  0.00    +0.027 A 
ATOM     18  C   UNL     1      -2.789   8.107   2.991  0.00  0.00    +0.051 A 
ATOM     19  C   UNL     1      -3.106   9.167   3.825  0.00  0.00    +0.162 A 
ATOM     20  C   UNL     1      -3.816   8.939   5.001  0.00  0.00    +0.163 A 
ATOM     21  C   UNL     1      -4.209   7.653   5.332  0.00  0.00    +0.072 A 
BRANCH  20  22
ATOM     22  O   UNL     1      -4.127   9.978   5.820  0.00  0.00    -0.491 OA
ATOM     23  C   UNL     1      -4.770   9.660   7.056  0.00  0.00    +0.277 C 
ENDBRANCH  20  22
BRANCH  19  24
ATOM     24  O   UNL     1      -2.724  10.430   3.495  0.00  0.00    -0.491 OA
ATOM     25  C   UNL     1      -2.000  10.591   2.274  0.00  0.00    +0.277 C 
ENDBRANCH  19  24
ENDBRANCH  14  16
ENDBRANCH   3  12
BRANCH   1  26
ATOM     26  N   UNL     1      -1.425   0.607   3.245  0.00  0.00    -0.133 N 
ATOM     27  H   UNL     1      -1.579  -0.215   3.736  0.00  0.00    +0.197 HD
BRANCH  26  28
ATOM     28  S   UNL     1      -0.290   0.652   2.040  0.00  0.00    +0.087 S 
ATOM     29  O   UNL     1      -0.975   1.019   0.851  0.00  0.00    -0.149 OA
ATOM     30  O   UNL     1       0.462  -0.549   2.146  0.00  0.00    -0.149 OA
BRANCH  28  35
ATOM     31  C   UNL     1       3.497   5.174   3.310  0.00  0.00    +0.044 C 
ATOM     32  C   UNL     1       2.550   4.045   2.996  0.00  0.00    -0.050 A 
ATOM     33  C   UNL     1       2.858   2.755   3.386  0.00  0.00    +0.005 A 
ATOM     34  C   UNL     1       1.989   1.720   3.097  0.00  0.00    +0.029 A 
ATOM     35  C   UNL     1       0.814   1.973   2.414  0.00  0.00    +0.110 A 
ATOM     36  C   UNL     1       0.503   3.264   2.029  0.00  0.00    +0.029 A 
ATOM     37  C   UNL     1       1.373   4.299   2.317  0.00  0.00    +0.005 A 
ENDBRANCH  28  35
ENDBRANCH  26  28
ENDBRANCH   1  26
TORSDOF 7
