REMARK  Name = ZINC41001304
REMARK  15 active torsions:
REMARK  status: ('A' for Active; 'I' for Inactive)
REMARK    1  A    between atoms: C_1  and  C_2
REMARK    2  A    between atoms: C_2  and  C_3
REMARK    3  A    between atoms: C_3  and  C_4
REMARK    4  A    between atoms: C_4  and  O_5
REMARK    5  A    between atoms: O_5  and  C_6
REMARK    6  A    between atoms: C_6  and  C_8
REMARK    7  A    between atoms: C_9  and  C_32
REMARK    8  A    between atoms: C_13  and  S_27
REMARK    9  A    between atoms: C_16  and  C_18
REMARK   10  A    between atoms: C_21  and  O_25
REMARK   11  A    between atoms: O_25  and  C_26
REMARK   12  A    between atoms: S_27  and  C_28
REMARK   13  A    between atoms: C_28  and  C_29
REMARK   14  A    between atoms: C_29  and  C_30
REMARK   15  A    between atoms: C_30  and  C_31
REMARK                            x       y       z     vdW  Elec       q    Type
REMARK                         _______ _______ _______ _____ _____    ______ ____
ROOT
ATOM      1  C   UNL     1       1.983  -4.382  -3.845  0.00  0.00    +0.082 C 
ATOM      2  C   UNL     1       2.334  -5.677  -3.825  0.00  0.00    +0.020 C 
ATOM      3  N   UNL     1       3.127  -6.236  -4.796  0.00  0.00    -0.287 N 
ATOM      4  C   UNL     1       3.346  -5.492  -5.948  0.00  0.00    +0.219 A 
ATOM      5  N   UNL     1       3.857  -5.851  -7.094  0.00  0.00    -0.187 NA
ATOM      6  C   UNL     1       3.872  -4.799  -7.926  0.00  0.00    +0.210 A 
ATOM      7  N   UNL     1       3.366  -3.755  -7.306  0.00  0.00    -0.141 NA
ATOM      8  N   UNL     1       3.021  -4.178  -6.024  0.00  0.00    -0.220 N 
ATOM      9  C   UNL     1       2.427  -3.428  -4.922  0.00  0.00    +0.179 C 
ATOM     10  C   UNL     1       1.843  -6.547  -2.697  0.00  0.00    +0.061 C 
ATOM     11  H   UNL     1       3.519  -7.116  -4.682  0.00  0.00    +0.155 HD
ENDROOT
BRANCH   9  12
ATOM     12  C   UNL     1       3.450  -2.475  -4.359  0.00  0.00    -0.017 A 
ATOM     13  C   UNL     1       4.636  -2.963  -3.841  0.00  0.00    +0.010 A 
ATOM     14  C   UNL     1       5.575  -2.092  -3.324  0.00  0.00    +0.047 A 
ATOM     15  C   UNL     1       5.329  -0.727  -3.325  0.00  0.00    +0.134 A 
ATOM     16  C   UNL     1       4.138  -0.240  -3.845  0.00  0.00    +0.060 A 
ATOM     17  C   UNL     1       3.203  -1.115  -4.366  0.00  0.00    +0.025 A 
ATOM     18 BR   UNL     1       3.797   1.620  -3.847  0.00  0.00    -0.047 Br
BRANCH  15  19
ATOM     19  O   UNL     1       6.251   0.132  -2.816  0.00  0.00    -0.494 OA
ATOM     20  C   UNL     1       7.453  -0.441  -2.297  0.00  0.00    +0.277 C 
ENDBRANCH  15  19
ENDBRANCH   9  12
BRANCH   1  21
ATOM     21  C   UNL     1       1.154  -3.893  -2.812  0.00  0.00    +0.339 C 
ATOM     22  O   UNL     1      -0.042  -3.768  -2.999  0.00  0.00    -0.245 OA
BRANCH  21  23
ATOM     23  O   UNL     1       1.688  -3.564  -1.617  0.00  0.00    -0.461 OA
BRANCH  23  24
ATOM     24  C   UNL     1       0.791  -3.075  -0.617  0.00  0.00    +0.232 C 
BRANCH  24  25
ATOM     25  C   UNL     1       1.573  -2.758   0.659  0.00  0.00    +0.041 C 
BRANCH  25  27
ATOM     26  C   UNL     1       1.395  -1.917   3.005  0.00  0.00    +0.004 C 
ATOM     27  C   UNL     1       0.613  -2.235   1.729  0.00  0.00    -0.000 C 
ENDBRANCH  25  27
ENDBRANCH  24  25
ENDBRANCH  23  24
ENDBRANCH  21  23
ENDBRANCH   1  21
BRANCH   6  28
ATOM     28  S   UNL     1       4.472  -4.814  -9.583  0.00  0.00    -0.084 S 
BRANCH  28  29
ATOM     29  C   UNL     1       5.026  -6.523  -9.834  0.00  0.00    +0.077 C 
BRANCH  29  30
ATOM     30  C   UNL     1       5.579  -6.677 -11.252  0.00  0.00    +0.011 C 
BRANCH  30  31
ATOM     31  C   UNL     1       6.046  -8.118 -11.464  0.00  0.00    -0.003 C 
ATOM     32  C   UNL     1       6.598  -8.272 -12.883  0.00  0.00    +0.004 C 
ENDBRANCH  30  31
ENDBRANCH  29  30
ENDBRANCH  28  29
ENDBRANCH   6  28
TORSDOF 11
