REMARK  Name = ZINC16808625
REMARK  9 active torsions:
REMARK  status: ('A' for Active; 'I' for Inactive)
REMARK    1  A    between atoms: C_1  and  C_2
REMARK    2  A    between atoms: C_2  and  C_3
REMARK    3  A    between atoms: C_3  and  C_4
REMARK    4  A    between atoms: C_5  and  C_31
REMARK    5  A    between atoms: C_18  and  C_22
REMARK    6  A    between atoms: C_19  and  C_21
REMARK    7  A    between atoms: C_22  and  C_23
REMARK    8  A    between atoms: C_25  and  C_30
REMARK    9  A    between atoms: C_28  and  C_29
REMARK                            x       y       z     vdW  Elec       q    Type
REMARK                         _______ _______ _______ _____ _____    ______ ____
ROOT
ATOM      1  C   UNL     1      -3.829   4.630   0.408  0.00  0.00    +0.038 A 
ATOM      2  C   UNL     1      -2.547   5.097   0.370  0.00  0.00    +0.050 A 
ATOM      3  N   UNL     1      -1.527   4.245   0.298  0.00  0.00    -0.221 NA
ATOM      4  C   UNL     1      -1.723   2.943   0.263  0.00  0.00    +0.202 A 
ATOM      5  N   UNL     1      -2.978   2.419   0.292  0.00  0.00    -0.295 N 
ATOM      6  H   UNL     1      -3.104   1.457   0.261  0.00  0.00    +0.172 HD
ATOM      7  C   UNL     1      -4.046   3.240   0.371  0.00  0.00    +0.256 A 
ATOM      8  O   UNL     1      -5.178   2.787   0.404  0.00  0.00    -0.267 OA
ATOM      9  N   UNL     1      -0.640   2.099   0.188  0.00  0.00    -0.255 N 
ATOM     10  C   UNL     1       0.632   2.617   0.146  0.00  0.00    +0.202 A 
ATOM     11  N   UNL     1       1.695   1.771   0.073  0.00  0.00    -0.295 N 
ATOM     12  H   UNL     1       1.553   0.812   0.051  0.00  0.00    +0.172 HD
ATOM     13  C   UNL     1       2.948   2.272   0.027  0.00  0.00    +0.256 A 
ATOM     14  O   UNL     1       3.912   1.528  -0.043  0.00  0.00    -0.267 OA
ATOM     15  C   UNL     1       3.120   3.667   0.067  0.00  0.00    +0.042 A 
ATOM     16  C   UNL     1       2.016   4.465   0.145  0.00  0.00    +0.050 A 
ATOM     17  N   UNL     1       0.801   3.922   0.183  0.00  0.00    -0.221 NA
ATOM     18  C   UNL     1       2.173   5.963   0.189  0.00  0.00    +0.066 C 
ATOM     19  C   UNL     1      -2.287   6.581   0.410  0.00  0.00    +0.066 C 
ATOM     20  H   UNL     1      -0.775   1.139   0.162  0.00  0.00    +0.158 HD
ENDROOT
BRANCH   1  21
ATOM     21  C   UNL     1      -4.991   5.585   0.490  0.00  0.00    +0.042 C 
BRANCH  21  23
ATOM     22  C   UNL     1      -6.705   6.831  -0.834  0.00  0.00    +0.004 C 
ATOM     23  C   UNL     1      -5.525   5.861  -0.917  0.00  0.00    +0.001 C 
ENDBRANCH  21  23
ENDBRANCH   1  21
BRANCH  15  24
ATOM     24  C   UNL     1       4.500   4.271   0.022  0.00  0.00    +0.077 C 
BRANCH  24  25
ATOM     25  C   UNL     1       5.067   4.332   1.418  0.00  0.00    -0.040 A 
ATOM     26  C   UNL     1       4.375   3.761   2.470  0.00  0.00    +0.007 A 
ATOM     27  C   UNL     1       4.895   3.817   3.749  0.00  0.00    -0.050 A 
ATOM     28  C   UNL     1       6.106   4.444   3.977  0.00  0.00    +0.003 A 
ATOM     29  C   UNL     1       6.797   5.015   2.925  0.00  0.00    +0.004 A 
ATOM     30  C   UNL     1       6.280   4.954   1.644  0.00  0.00    -0.047 A 
ATOM     31  C   UNL     1       7.036   5.572   0.496  0.00  0.00    +0.044 C 
ATOM     32  C   UNL     1       4.142   3.193   4.896  0.00  0.00    +0.044 C 
ENDBRANCH  24  25
ENDBRANCH  15  24
TORSDOF 4
