REMARK  Name = ZINC35592957
REMARK  14 active torsions:
REMARK  status: ('A' for Active; 'I' for Inactive)
REMARK    1  A    between atoms: C_1  and  C_2
REMARK    2  A    between atoms: C_6  and  C_7
REMARK    3  A    between atoms: C_10  and  C_33
REMARK    4  A    between atoms: N_12  and  C_29
REMARK    5  A    between atoms: N_14  and  C_19
REMARK    6  A    between atoms: C_19  and  C_20
REMARK    7  A    between atoms: N_22  and  C_23
REMARK    8  A    between atoms: C_23  and  C_24
REMARK    9  A    between atoms: C_29  and  C_30
REMARK   10  A    between atoms: C_29  and  C_31
REMARK   11  A    between atoms: C_29  and  C_32
REMARK   12  A    between atoms: C_33  and  C_34
REMARK   13  A    between atoms: C_33  and  C_35
REMARK   14  A    between atoms: C_33  and  C_36
REMARK                            x       y       z     vdW  Elec       q    Type
REMARK                         _______ _______ _______ _____ _____    ______ ____
ROOT
ATOM      1  C   UNL     1      -1.294  -1.223   1.212  0.00  0.00    +0.119 C 
ATOM      2  C   UNL     1      -0.284  -1.159   2.330  0.00  0.00    +0.034 A 
ATOM      3  C   UNL     1       0.939  -1.825   2.403  0.00  0.00    +0.075 A 
ATOM      4  N   UNL     1       1.514  -1.496   3.534  0.00  0.00    -0.173 NA
ATOM      5  N   UNL     1       0.670  -0.607   4.218  0.00  0.00    -0.244 N 
ATOM      6  C   UNL     1      -0.424  -0.422   3.456  0.00  0.00    +0.132 A 
ATOM      7  N   UNL     1      -1.546   0.375   3.734  0.00  0.00    -0.246 N 
ATOM      8  C   UNL     1      -2.762  -0.160   3.580  0.00  0.00    +0.231 C 
ATOM      9  O   UNL     1      -3.734   0.562   3.511  0.00  0.00    -0.274 OA
ATOM     10  C   UNL     1      -2.928  -1.646   3.493  0.00  0.00    +0.166 C 
ATOM     11  S   UNL     1      -2.725  -2.215   1.769  0.00  0.00    -0.138 S 
ENDROOT
BRANCH   1  17
ATOM     12  C   UNL     1       0.543   0.128  -0.847  0.00  0.00    +0.044 C 
ATOM     13  C   UNL     1       0.145  -1.323  -0.933  0.00  0.00    -0.039 A 
ATOM     14  C   UNL     1       0.609  -2.117  -1.964  0.00  0.00    +0.011 A 
ATOM     15  C   UNL     1       0.232  -3.418  -2.013  0.00  0.00    +0.046 A 
ATOM     16  S   UNL     1      -0.811  -3.554  -0.570  0.00  0.00    -0.100 S 
ATOM     17  C   UNL     1      -0.669  -1.869   0.003  0.00  0.00    +0.010 A 
ENDBRANCH   1  17
BRANCH   5  18
ATOM     18  C   UNL     1       0.932   0.008   5.521  0.00  0.00    +0.057 C 
ATOM     19  C   UNL     1       1.530   1.401   5.317  0.00  0.00    +0.036 C 
ATOM     20  C   UNL     1      -0.378   0.125   6.303  0.00  0.00    +0.036 C 
ATOM     21  C   UNL     1       1.918  -0.860   6.306  0.00  0.00    +0.036 C 
ENDBRANCH   5  18
BRANCH   3  22
ATOM     22  C   UNL     1       1.502  -2.760   1.363  0.00  0.00    +0.007 C 
ATOM     23  C   UNL     1       1.686  -2.005   0.045  0.00  0.00    +0.017 C 
ATOM     24  C   UNL     1       2.854  -3.295   1.837  0.00  0.00    +0.017 C 
ATOM     25  C   UNL     1       0.536  -3.928   1.152  0.00  0.00    +0.017 C 
ENDBRANCH   3  22
BRANCH   7  26
ATOM     26  C   UNL     1      -1.387   1.760   4.183  0.00  0.00    +0.210 C 
BRANCH  26  27
ATOM     27  C   UNL     1      -1.142   2.649   2.991  0.00  0.00    +0.231 C 
ATOM     28  O   UNL     1      -1.103   2.172   1.877  0.00  0.00    -0.274 OA
ATOM     29  N   UNL     1      -0.966   3.974   3.164  0.00  0.00    -0.307 N 
ATOM     30  H   UNL     1      -0.997   4.356   4.055  0.00  0.00    +0.149 HD
BRANCH  29  31
ATOM     31  C   UNL     1      -0.727   4.838   2.005  0.00  0.00    +0.178 C 
BRANCH  31  32
ATOM     32  C   UNL     1      -0.564   6.264   2.467  0.00  0.00    +0.122 A 
ATOM     33  C   UNL     1       0.597   6.853   2.807  0.00  0.00    +0.046 A 
ATOM     34  C   UNL     1       0.288   8.183   3.175  0.00  0.00    +0.041 A 
ATOM     35  C   UNL     1      -1.042   8.327   3.037  0.00  0.00    +0.195 A 
ATOM     36  O   UNL     1      -1.552   7.163   2.602  0.00  0.00    -0.466 OA
ENDBRANCH  31  32
ENDBRANCH  29  31
ENDBRANCH  26  27
ENDBRANCH   7  26
TORSDOF 7
