REMARK  Name = ZINC18276209
REMARK  6 active torsions:
REMARK  status: ('A' for Active; 'I' for Inactive)
REMARK    1  A    between atoms: C_1  and  C_2
REMARK    2  A    between atoms: C_2  and  C_3
REMARK    3  A    between atoms: C_3  and  C_17
REMARK    4  A    between atoms: N_5  and  C_9
REMARK    5  A    between atoms: C_13  and  C_16
REMARK    6  A    between atoms: C_14  and  C_15
REMARK                            x       y       z     vdW  Elec       q    Type
REMARK                         _______ _______ _______ _____ _____    ______ ____
ROOT
ATOM      1  C   UNL     1       0.718  -0.497  -1.257  0.00  0.00    +0.133 C 
ATOM      2  N   UNL     1       0.077   0.057  -2.464  0.00  0.00    -0.205 NA
ATOM      3  N   UNL     1       1.023   0.805  -3.102  0.00  0.00    -0.212 N 
ATOM      4  C   UNL     1       2.201   0.780  -2.421  0.00  0.00    +0.162 C 
ATOM      5  N   UNL     1       2.097   0.015  -1.296  0.00  0.00    -0.343 N 
ATOM      6  S   UNL     1       3.580   1.573  -2.896  0.00  0.00    -0.014 SA
ATOM      7  H   UNL     1      -0.725   0.620  -2.221  0.00  0.00    +0.148 HD
ATOM      8  H   UNL     1       2.797  -0.159  -0.647  0.00  0.00    +0.164 HD
ENDROOT
BRANCH   3   9
ATOM      9  C   UNL     1       0.811   1.503  -4.296  0.00  0.00    +0.055 A 
ATOM     10  C   UNL     1       0.470   2.849  -4.264  0.00  0.00    +0.025 A 
ATOM     11  C   UNL     1       0.261   3.535  -5.444  0.00  0.00    +0.002 A 
ATOM     12  C   UNL     1       0.391   2.884  -6.657  0.00  0.00    +0.004 A 
ATOM     13  C   UNL     1       0.731   1.544  -6.692  0.00  0.00    -0.046 A 
ATOM     14  C   UNL     1       0.946   0.853  -5.516  0.00  0.00    -0.025 A 
ATOM     15  C   UNL     1       1.322  -0.606  -5.555  0.00  0.00    +0.046 C 
ATOM     16  C   UNL     1       0.872   0.838  -8.016  0.00  0.00    +0.044 C 
ENDBRANCH   3   9
BRANCH   1  17
ATOM     17  C   UNL     1       0.716  -2.004  -1.304  0.00  0.00    -0.006 A 
ATOM     18  C   UNL     1       1.750  -2.715  -0.723  0.00  0.00    +0.007 A 
ATOM     19  C   UNL     1       1.748  -4.096  -0.766  0.00  0.00    +0.000 A 
ATOM     20  C   UNL     1       0.713  -4.767  -1.390  0.00  0.00    +0.000 A 
ATOM     21  C   UNL     1      -0.321  -4.056  -1.971  0.00  0.00    +0.000 A 
ATOM     22  C   UNL     1      -0.322  -2.675  -1.924  0.00  0.00    +0.007 A 
ENDBRANCH   1  17
BRANCH   1  24
ATOM     23  C   UNL     1      -0.019   1.526   0.010  0.00  0.00    +0.008 C 
ATOM     24  C   UNL     1       0.002  -0.004   0.002  0.00  0.00    +0.047 C 
ENDBRANCH   1  24
TORSDOF 3
