REMARK  Name = ZINC00933678
REMARK  13 active torsions:
REMARK  status: ('A' for Active; 'I' for Inactive)
REMARK    1  A    between atoms: C_1  and  C_2
REMARK    2  A    between atoms: C_2  and  O_3
REMARK    3  A    between atoms: O_3  and  C_4
REMARK    4  A    between atoms: C_9  and  C_10
REMARK    5  A    between atoms: C_10  and  N_11
REMARK    6  A    between atoms: N_11  and  C_12
REMARK    7  A    between atoms: N_11  and  S_21
REMARK    8  A    between atoms: C_12  and  C_13
REMARK    9  A    between atoms: C_16  and  O_19
REMARK   10  A    between atoms: O_19  and  C_20
REMARK   11  A    between atoms: S_21  and  C_24
REMARK   12  A    between atoms: C_27  and  S_30
REMARK   13  A    between atoms: S_30  and  N_33
REMARK                            x       y       z     vdW  Elec       q    Type
REMARK                         _______ _______ _______ _____ _____    ______ ____
ROOT
ATOM      1  N   UNL     1       1.054  -2.893  -1.541  0.00  0.00    -0.168 NA
ENDROOT
BRANCH   1   2
ATOM      2  S   UNL     1       1.120  -2.401   0.039  0.00  0.00    +0.061 S 
ATOM      3  O   UNL     1       2.285  -2.991   0.600  0.00  0.00    -0.153 OA
ATOM      4  O   UNL     1      -0.176  -2.610   0.584  0.00  0.00    -0.153 OA
BRANCH   2   5
ATOM      5  C   UNL     1       1.389  -0.660   0.033  0.00  0.00    +0.106 A 
ATOM      6  C   UNL     1       0.320   0.205   0.170  0.00  0.00    +0.030 A 
ATOM      7  C   UNL     1       0.532   1.571   0.166  0.00  0.00    +0.030 A 
ATOM      8  C   UNL     1       1.813   2.072   0.025  0.00  0.00    +0.106 A 
ATOM      9  C   UNL     1       2.882   1.206  -0.114  0.00  0.00    +0.030 A 
ATOM     10  C   UNL     1       2.670  -0.160  -0.109  0.00  0.00    +0.030 A 
BRANCH   8  11
ATOM     11  S   UNL     1       2.083   3.813   0.019  0.00  0.00    +0.061 S 
ATOM     12  O   UNL     1       3.304   4.032  -0.674  0.00  0.00    -0.153 OA
ATOM     13  O   UNL     1       0.859   4.412  -0.385  0.00  0.00    -0.153 OA
BRANCH  11  14
ATOM     14  N   UNL     1       2.340   4.274   1.589  0.00  0.00    -0.177 NA
ATOM     15  C   UNL     1       1.216   4.681   2.443  0.00  0.00    +0.109 C 
ATOM     16  C   UNL     1       1.252   3.843   3.730  0.00  0.00    +0.017 C 
ATOM     17  C   UNL     1       2.626   3.988   4.388  0.00  0.00    +0.003 C 
ATOM     18  C   UNL     1       3.705   3.461   3.440  0.00  0.00    +0.017 C 
ATOM     19  C   UNL     1       3.697   4.290   2.151  0.00  0.00    +0.109 C 
ENDBRANCH  11  14
ENDBRANCH   8  11
ENDBRANCH   2   5
ENDBRANCH   1   2
BRANCH   1  20
ATOM     20  C   UNL     1       2.292  -3.169  -2.274  0.00  0.00    +0.148 C 
BRANCH  20  26
ATOM     21  C   UNL     1       1.943  -5.529  -3.046  0.00  0.00    +0.125 A 
ATOM     22  C   UNL     1       2.228  -6.885  -2.980  0.00  0.00    +0.046 A 
ATOM     23  C   UNL     1       3.163  -7.350  -2.076  0.00  0.00    +0.004 A 
ATOM     24  C   UNL     1       3.816  -6.464  -1.238  0.00  0.00    +0.001 A 
ATOM     25  C   UNL     1       3.537  -5.112  -1.306  0.00  0.00    +0.008 A 
ATOM     26  C   UNL     1       2.599  -4.643  -2.204  0.00  0.00    +0.010 A 
BRANCH  21  27
ATOM     27  O   UNL     1       1.024  -5.069  -3.935  0.00  0.00    -0.492 OA
BRANCH  27  29
ATOM     28  C   UNL     1      -0.608  -5.339  -5.698  0.00  0.00    +0.048 C 
ATOM     29  C   UNL     1       0.388  -6.039  -4.771  0.00  0.00    +0.225 C 
ENDBRANCH  27  29
ENDBRANCH  21  27
ENDBRANCH  20  26
ENDBRANCH   1  20
BRANCH   1  30
ATOM     30  C   UNL     1      -0.242  -3.051  -2.205  0.00  0.00    +0.145 C 
BRANCH  30  31
ATOM     31  C   UNL     1      -0.530  -1.830  -3.041  0.00  0.00    -0.031 A 
ATOM     32  C   UNL     1      -1.245  -0.777  -2.502  0.00  0.00    +0.008 A 
ATOM     33  C   UNL     1      -1.506   0.345  -3.264  0.00  0.00    +0.046 A 
ATOM     34  C   UNL     1      -1.059   0.410  -4.576  0.00  0.00    +0.120 A 
ATOM     35  C   UNL     1      -0.346  -0.651  -5.117  0.00  0.00    +0.046 A 
ATOM     36  C   UNL     1      -0.084  -1.768  -4.348  0.00  0.00    +0.008 A 
BRANCH  34  37
ATOM     37  O   UNL     1      -1.318   1.510  -5.330  0.00  0.00    -0.495 OA
ATOM     38  C   UNL     1      -2.057   2.564  -4.707  0.00  0.00    +0.277 C 
ENDBRANCH  34  37
ENDBRANCH  30  31
ENDBRANCH   1  30
TORSDOF 11
