REMARK  Name = ZINC35032187
REMARK  13 active torsions:
REMARK  status: ('A' for Active; 'I' for Inactive)
REMARK    1  A    between atoms: C_1  and  C_2
REMARK    2  A    between atoms: C_2  and  C_3
REMARK    3  A    between atoms: C_3  and  C_4
REMARK    4  A    between atoms: C_4  and  N_5
REMARK    5  A    between atoms: N_8  and  C_9
REMARK    6  A    between atoms: N_8  and  C_13
REMARK    7  A    between atoms: C_9  and  C_10
REMARK    8  A    between atoms: C_10  and  C_11
REMARK    9  A    between atoms: C_10  and  C_12
REMARK   10  A    between atoms: C_13  and  C_15
REMARK   11  A    between atoms: C_13  and  C_16
REMARK   12  A    between atoms: N_26  and  C_27
REMARK   13  A    between atoms: C_27  and  C_28
REMARK                            x       y       z     vdW  Elec       q    Type
REMARK                         _______ _______ _______ _____ _____    ______ ____
ROOT
ATOM      1  C   UNL     1      -5.202  -5.945  -0.513  0.00  0.00    +0.141 C 
ATOM      2  C   UNL     1      -6.535  -6.286   0.157  0.00  0.00    +0.036 C 
ENDROOT
BRANCH   1   3
ATOM      3  C   UNL     1      -5.385  -5.916  -2.009  0.00  0.00    +0.133 A 
ATOM      4  N   UNL     1      -6.593  -5.851  -2.481  0.00  0.00    -0.232 NA
ATOM      5  C   UNL     1      -6.834  -5.821  -3.815  0.00  0.00    +0.078 A 
ATOM      6  C   UNL     1      -8.133  -5.750  -4.323  0.00  0.00    +0.030 A 
ATOM      7  C   UNL     1      -8.332  -5.722  -5.685  0.00  0.00    +0.022 A 
ATOM      8  C   UNL     1      -7.255  -5.764  -6.563  0.00  0.00    +0.042 A 
ATOM      9  C   UNL     1      -5.964  -5.834  -6.085  0.00  0.00    +0.035 A 
ATOM     10  C   UNL     1      -5.742  -5.863  -4.710  0.00  0.00    +0.066 A 
ATOM     11  C   UNL     1      -4.387  -5.937  -4.143  0.00  0.00    +0.262 A 
ATOM     12  O   UNL     1      -3.403  -5.976  -4.858  0.00  0.00    -0.267 OA
ATOM     13  N   UNL     1      -4.277  -5.955  -2.794  0.00  0.00    -0.295 N 
ATOM     14 CL   UNL     1      -7.539  -5.727  -8.275  0.00  0.00    -0.084 Cl
BRANCH  13  15
ATOM     15  C   UNL     1      -2.950  -6.022  -2.175  0.00  0.00    +0.123 C 
ATOM     16  C   UNL     1      -2.529  -7.486  -2.030  0.00  0.00    +0.027 C 
ENDBRANCH  13  15
ENDBRANCH   1   3
BRANCH   1  20
ATOM     17  N   UNL     1      -3.211  -3.324   1.125  0.00  0.00    -0.299 N 
ATOM     18  C   UNL     1      -3.631  -4.532   0.701  0.00  0.00    +0.303 C 
ATOM     19  O   UNL     1      -3.006  -5.532   0.996  0.00  0.00    -0.253 OA
ATOM     20  N   UNL     1      -4.746  -4.632  -0.051  0.00  0.00    -0.276 N 
ATOM     21  H   UNL     1      -3.710  -2.526   0.890  0.00  0.00    +0.150 HD
BRANCH  17  22
ATOM     22  C   UNL     1      -2.000  -3.215   1.942  0.00  0.00    +0.106 C 
BRANCH  22  23
ATOM     23  C   UNL     1      -1.747  -1.746   2.287  0.00  0.00    +0.018 C 
BRANCH  23  25
ATOM     24  C   UNL     1      -0.230  -0.164   3.485  0.00  0.00    +0.004 C 
ATOM     25  C   UNL     1      -0.482  -1.633   3.140  0.00  0.00    -0.002 C 
ENDBRANCH  23  25
ENDBRANCH  22  23
ENDBRANCH  17  22
BRANCH  20  26
ATOM     26  C   UNL     1      -5.500  -3.427  -0.407  0.00  0.00    +0.113 C 
BRANCH  26  27
ATOM     27  C   UNL     1      -5.025  -2.911  -1.767  0.00  0.00    +0.000 C 
ATOM     28  C   UNL     1      -5.909  -1.742  -2.205  0.00  0.00    +0.009 C 
ATOM     29  C   UNL     1      -3.574  -2.440  -1.655  0.00  0.00    +0.009 C 
ENDBRANCH  26  27
ENDBRANCH  20  26
ENDBRANCH   1  20
TORSDOF 8
