REMARK  Name = ZINC21508724
REMARK  6 active torsions:
REMARK  status: ('A' for Active; 'I' for Inactive)
REMARK    1  A    between atoms: C_1  and  C_2
REMARK    2  A    between atoms: C_5  and  N_7
REMARK    3  A    between atoms: N_7  and  S_8
REMARK    4  A    between atoms: S_8  and  C_11
REMARK    5  A    between atoms: C_14  and  O_18
REMARK    6  A    between atoms: C_15  and  N_17
REMARK                            x       y       z     vdW  Elec       q    Type
REMARK                         _______ _______ _______ _____ _____    ______ ____
ROOT
ATOM      1  C   UNL     1       0.040  -2.775  -0.012  0.00  0.00    +0.112 A 
ATOM      2  C   UNL     1       0.042  -2.087   1.188  0.00  0.00    +0.032 A 
ATOM      3  C   UNL     1       0.023  -0.705   1.197  0.00  0.00    +0.049 A 
ATOM      4  C   UNL     1       0.002  -0.004   0.002  0.00  0.00    +0.137 A 
ATOM      5  C   UNL     1      -0.006  -0.696  -1.207  0.00  0.00    +0.068 A 
ATOM      6  C   UNL     1       0.019  -2.083  -1.209  0.00  0.00    +0.055 A 
ENDROOT
BRANCH   1   7
ATOM      7  S   UNL     1       0.064  -4.536  -0.016  0.00  0.00    +0.094 S 
ATOM      8  O   UNL     1       0.608  -4.933  -1.267  0.00  0.00    -0.148 OA
ATOM      9  O   UNL     1       0.632  -4.937   1.224  0.00  0.00    -0.148 OA
BRANCH   7  10
ATOM     10  N   UNL     1      -1.511  -5.048  -0.002  0.00  0.00    -0.070 NA
BRANCH  10  15
ATOM     11  C   UNL     1      -5.431  -4.413  -3.812  0.00  0.00    +0.053 C 
ATOM     12  C   UNL     1      -4.212  -4.462  -2.926  0.00  0.00    +0.008 A 
ATOM     13  C   UNL     1      -2.972  -3.961  -3.135  0.00  0.00    +0.124 A 
ATOM     14  N   UNL     1      -2.059  -4.128  -2.196  0.00  0.00    -0.230 NA
ATOM     15  C   UNL     1      -2.337  -4.777  -1.081  0.00  0.00    +0.202 A 
ATOM     16  S   UNL     1      -4.006  -5.198  -1.310  0.00  0.00    -0.054 S 
ENDBRANCH  10  15
ENDBRANCH   7  10
ENDBRANCH   1   7
BRANCH   5  17
ATOM     17  N   UNL     1      -0.033   0.007  -2.417  0.00  0.00    -0.355 N 
ATOM     18  H   UNL     1      -0.039  -0.541  -3.371  0.00  0.00    +0.142 HD
ATOM     19  H   UNL     1      -0.048   1.107  -2.414  0.00  0.00    +0.142 HD
ENDBRANCH   5  17
BRANCH   4  20
ATOM     20  O   UNL     1      -0.016   1.356   0.009  0.00  0.00    -0.505 OA
ATOM     21  H   UNL     1      -0.033   1.911  -0.940  0.00  0.00    +0.292 HD
ENDBRANCH   4  20
TORSDOF 5
