REMARK  Name = ZINC13500642
REMARK  14 active torsions:
REMARK  status: ('A' for Active; 'I' for Inactive)
REMARK    1  A    between atoms: C_1  and  C_2
REMARK    2  A    between atoms: C_2  and  C_3
REMARK    3  A    between atoms: C_3  and  C_4
REMARK    4  A    between atoms: C_3  and  C_5
REMARK    5  A    between atoms: C_3  and  N_6
REMARK    6  A    between atoms: C_7  and  C_11
REMARK    7  A    between atoms: C_11  and  C_13
REMARK    8  A    between atoms: C_11  and  N_74
REMARK    9  A    between atoms: C_13  and  C_14
REMARK   10  A    between atoms: C_13  and  C_15
REMARK   11  A    between atoms: C_16  and  C_17
REMARK   12  A    between atoms: C_16  and  N_74
REMARK   13  A    between atoms: C_21  and  C_29
REMARK   14  A    between atoms: C_30  and  N_74
REMARK                            x       y       z     vdW  Elec       q    Type
REMARK                         _______ _______ _______ _____ _____    ______ ____
ROOT
ATOM      1  N   UNL     1      -0.870   3.043   3.591  0.00  0.00    +0.391 N 
ATOM      2  H   UNL     1      -0.544   3.053   4.564  0.00  0.00    -0.080 HD
ENDROOT
BRANCH   1   3
ATOM      3  C   UNL     1      -2.297   2.661   3.566  0.00  0.00    -0.067 C 
ATOM      4  C   UNL     1      -2.466   1.332   4.305  0.00  0.00    -0.015 C 
ATOM      5  C   UNL     1      -3.944   0.934   4.308  0.00  0.00    -0.002 C 
ATOM      6  C   UNL     1      -4.434   0.783   2.866  0.00  0.00    -0.000 C 
ATOM      7  C   UNL     1      -4.265   2.112   2.127  0.00  0.00    -0.002 C 
ATOM      8  C   UNL     1      -2.787   2.509   2.125  0.00  0.00    -0.015 C 
ENDBRANCH   1   3
BRANCH   1   9
ATOM      9  C   UNL     1      -0.071   2.061   2.828  0.00  0.00    +0.006 C 
BRANCH   9  11
ATOM     10  N   UNL     1       0.004   1.599   0.321  0.00  0.00    -0.225 N 
ATOM     11  C   UNL     1      -0.022   2.441   1.370  0.00  0.00    +0.139 A 
ATOM     12  N   UNL     1       0.008   3.656   0.879  0.00  0.00    -0.115 NA
ATOM     13  N   UNL     1       0.046   3.565  -0.405  0.00  0.00    -0.023 NA
ATOM     14  N   UNL     1       0.040   2.324  -0.747  0.00  0.00    -0.043 NA
BRANCH  10  15
ATOM     15  C   UNL     1      -0.010   0.136   0.378  0.00  0.00    +0.061 C 
ATOM     16  C   UNL     1       1.125  -0.350   1.283  0.00  0.00    +0.036 C 
ATOM     17  C   UNL     1      -1.351  -0.340   0.941  0.00  0.00    +0.036 C 
BRANCH  15  19
ATOM     18  C   UNL     1       0.168  -1.961  -0.969  0.00  0.00    +0.006 C 
ATOM     19  C   UNL     1       0.182  -0.432  -1.030  0.00  0.00    +0.026 C 
ENDBRANCH  15  19
ENDBRANCH  10  15
ENDBRANCH   9  11
BRANCH   9  20
ATOM     20  C   UNL     1       1.349   2.040   3.397  0.00  0.00    -0.024 C 
ATOM     21  C   UNL     1       1.314   1.526   4.837  0.00  0.00    +0.006 C 
ATOM     22  C   UNL     1       1.929   3.455   3.374  0.00  0.00    +0.006 C 
ENDBRANCH   9  20
ENDBRANCH   1   9
BRANCH   1  23
ATOM     23  C   UNL     1      -0.698   4.392   3.013  0.00  0.00    -0.036 C 
BRANCH  23  24
ATOM     24  C   UNL     1      -1.153   5.413   4.024  0.00  0.00    +0.001 A 
ATOM     25  C   UNL     1      -0.254   5.971   4.872  0.00  0.00    +0.017 A 
ATOM     26  C   UNL     1      -0.728   6.959   5.843  0.00  0.00    -0.001 A 
ATOM     27  C   UNL     1       0.152   7.569   6.743  0.00  0.00    +0.013 A 
ATOM     28  C   UNL     1      -0.322   8.488   7.636  0.00  0.00    -0.050 A 
ATOM     29  C   UNL     1      -1.670   8.821   7.658  0.00  0.00    +0.005 A 
ATOM     30  C   UNL     1      -2.554   8.233   6.780  0.00  0.00    +0.026 A 
ATOM     31  C   UNL     1      -2.095   7.295   5.862  0.00  0.00    +0.049 A 
ATOM     32  N   UNL     1      -2.958   6.691   4.972  0.00  0.00    -0.322 N 
ATOM     33  H   UNL     1      -3.899   6.923   4.987  0.00  0.00    +0.169 HD
ATOM     34  C   UNL     1      -2.512   5.788   4.081  0.00  0.00    +0.251 A 
ATOM     35  O   UNL     1      -3.302   5.278   3.306  0.00  0.00    -0.268 OA
ATOM     36  C   UNL     1       0.626   9.145   8.605  0.00  0.00    +0.044 C 
ENDBRANCH  23  24
ENDBRANCH   1  23
TORSDOF 8
