REMARK  Name = ZINC12898477
REMARK  9 active torsions:
REMARK  status: ('A' for Active; 'I' for Inactive)
REMARK    1  A    between atoms: C_1  and  C_2
REMARK    2  A    between atoms: C_7  and  C_9
REMARK    3  A    between atoms: C_7  and  C_10
REMARK    4  A    between atoms: N_13  and  C_17
REMARK    5  A    between atoms: C_17  and  C_18
REMARK    6  A    between atoms: C_18  and  C_20
REMARK    7  A    between atoms: C_18  and  O_29
REMARK    8  A    between atoms: C_20  and  O_21
REMARK    9  A    between atoms: O_21  and  C_22
REMARK                            x       y       z     vdW  Elec       q    Type
REMARK                         _______ _______ _______ _____ _____    ______ ____
ROOT
ATOM      1  C   UNL     1      -0.061   1.649   0.498  0.00  0.00    +0.007 C 
ATOM      2  C   UNL     1      -0.046   0.132   0.299  0.00  0.00    -0.011 C 
ATOM      3  C   UNL     1       0.612  -0.200  -1.042  0.00  0.00    +0.038 C 
ATOM      4  C   UNL     1       0.646  -1.713  -1.232  0.00  0.00    +0.113 C 
ATOM      5  C   UNL     1       1.417  -2.381  -0.099  0.00  0.00    +0.041 C 
ATOM      6  C   UNL     1       0.756  -2.041   1.240  0.00  0.00    -0.032 C 
ATOM      7  C   UNL     1       0.748  -0.523   1.431  0.00  0.00    +0.009 C 
ATOM      8  C   UNL     1      -0.682  -2.564   1.246  0.00  0.00    +0.011 C 
ATOM      9  C   UNL     1       1.542  -2.695   2.378  0.00  0.00    +0.011 C 
ATOM     10  C   UNL     1       1.261  -2.063  -2.567  0.00  0.00    +0.247 C 
ATOM     11  O   UNL     1       2.385  -1.813  -2.946  0.00  0.00    -0.273 OA
ATOM     12  N   UNL     1       0.296  -2.715  -3.249  0.00  0.00    -0.222 N 
ATOM     13  C   UNL     1      -0.829  -2.819  -2.531  0.00  0.00    +0.309 C 
ATOM     14  O   UNL     1      -1.838  -3.366  -2.931  0.00  0.00    -0.252 OA
ATOM     15  N   UNL     1      -0.717  -2.252  -1.315  0.00  0.00    -0.285 N 
ATOM     16  H   UNL     1      -1.402  -2.208  -0.629  0.00  0.00    +0.151 HD
ENDROOT
BRANCH  12  17
ATOM     17  C   UNL     1       0.458  -3.241  -4.606  0.00  0.00    +0.152 C 
BRANCH  17  18
ATOM     18  C   UNL     1       0.978  -4.679  -4.536  0.00  0.00    +0.170 C 
BRANCH  18  19
ATOM     19  O   UNL     1      -0.007  -5.512  -3.923  0.00  0.00    -0.387 OA
ATOM     20  H   UNL     1      -0.851  -5.537  -4.395  0.00  0.00    +0.210 HD
ENDBRANCH  18  19
BRANCH  18  21
ATOM     21  C   UNL     1       1.266  -5.186  -5.951  0.00  0.00    +0.261 C 
BRANCH  21  22
ATOM     22  O   UNL     1       1.860  -6.484  -5.880  0.00  0.00    -0.489 OA
BRANCH  22  23
ATOM     23  C   UNL     1       2.181  -7.081  -7.058  0.00  0.00    +0.122 A 
ATOM     24  C   UNL     1       1.933  -6.429  -8.257  0.00  0.00    +0.046 A 
ATOM     25  C   UNL     1       2.260  -7.037  -9.454  0.00  0.00    +0.005 A 
ATOM     26  C   UNL     1       2.832  -8.296  -9.457  0.00  0.00    +0.015 A 
ATOM     27  C   UNL     1       3.079  -8.949  -8.263  0.00  0.00    +0.021 A 
ATOM     28  C   UNL     1       2.760  -8.341  -7.063  0.00  0.00    +0.061 A 
ATOM     29 BR   UNL     1       3.861 -10.671  -8.271  0.00  0.00    -0.050 Br
ENDBRANCH  22  23
ENDBRANCH  21  22
ENDBRANCH  18  21
ENDBRANCH  17  18
ENDBRANCH  12  17
TORSDOF 6
