REMARK  Name = ZINC39560067
REMARK  13 active torsions:
REMARK  status: ('A' for Active; 'I' for Inactive)
REMARK    1  A    between atoms: C_1  and  C_2
REMARK    2  A    between atoms: C_2  and  C_6
REMARK    3  A    between atoms: C_3  and  C_4
REMARK    4  A    between atoms: C_4  and  O_5
REMARK    5  A    between atoms: C_6  and  C_8
REMARK    6  A    between atoms: C_6  and  O_28
REMARK    7  A    between atoms: C_8  and  C_9
REMARK    8  A    between atoms: C_11  and  C_27
REMARK    9  A    between atoms: C_14  and  O_26
REMARK   10  A    between atoms: C_16  and  C_24
REMARK   11  A    between atoms: C_16  and  C_25
REMARK   12  A    between atoms: C_21  and  C_22
REMARK   13  A    between atoms: C_21  and  O_23
REMARK                            x       y       z     vdW  Elec       q    Type
REMARK                         _______ _______ _______ _____ _____    ______ ____
ROOT
ATOM      1  C   UNL     1      -2.945  -1.281  -2.863  0.00  0.00    +0.029 C 
ATOM      2  C   UNL     1      -3.994  -1.105  -3.957  0.00  0.00    -0.023 C 
ATOM      3  C   UNL     1      -5.400  -1.422  -3.461  0.00  0.00    +0.010 C 
ATOM      4  C   UNL     1      -6.421  -1.155  -4.570  0.00  0.00    +0.032 C 
ATOM      5  C   UNL     1      -6.135  -2.040  -5.774  0.00  0.00    +0.120 C 
ATOM      6  C   UNL     1      -4.711  -1.871  -6.290  0.00  0.00    -0.006 C 
ATOM      7  C   UNL     1      -3.669  -1.953  -5.185  0.00  0.00    +0.004 C 
ATOM      8  C   UNL     1      -3.487  -3.411  -4.745  0.00  0.00    +0.007 C 
ATOM      9  C   UNL     1      -2.306  -3.523  -3.780  0.00  0.00    +0.035 C 
ATOM     10  C   UNL     1      -2.566  -2.707  -2.521  0.00  0.00    +0.067 C 
ATOM     11  C   UNL     1      -3.620  -3.381  -1.645  0.00  0.00    +0.041 C 
ATOM     12  C   UNL     1      -4.603  -0.564  -7.087  0.00  0.00    +0.014 C 
ATOM     13  C   UNL     1      -4.468  -2.994  -7.325  0.00  0.00    +0.014 C 
ATOM     14  C   UNL     1      -3.933   0.398  -4.308  0.00  0.00    +0.012 C 
ENDROOT
BRANCH  10  15
ATOM     15  O   UNL     1      -1.335  -2.672  -1.764  0.00  0.00    -0.389 OA
ATOM     16  H   UNL     1      -1.012  -3.543  -1.498  0.00  0.00    +0.210 HD
ENDBRANCH  10  15
BRANCH   5  17
ATOM     17  O   UNL     1      -6.375  -3.410  -5.441  0.00  0.00    -0.391 OA
ATOM     18  H   UNL     1      -7.283  -3.595  -5.165  0.00  0.00    +0.210 HD
ENDBRANCH   5  17
BRANCH   1  19
ATOM     19  C   UNL     1      -3.363  -0.533  -1.592  0.00  0.00    +0.042 C 
BRANCH  19  20
ATOM     20  C   UNL     1      -2.153  -0.385  -0.667  0.00  0.00    +0.140 C 
BRANCH  20  22
ATOM     21  C   UNL     1      -3.036   1.762   0.527  0.00  0.00    +0.041 C 
ATOM     22  C   UNL     1      -2.570   0.330   0.593  0.00  0.00    -0.046 C 
ATOM     23  C   UNL     1      -2.526  -0.293   1.744  0.00  0.00    +0.002 C 
BRANCH  23  24
ATOM     24  C   UNL     1      -3.056   0.379   2.985  0.00  0.00    +0.183 C 
BRANCH  24  25
ATOM     25  O   UNL     1      -3.902  -0.529   3.693  0.00  0.00    -0.391 OA
ATOM     26  H   UNL     1      -4.280  -0.163   4.505  0.00  0.00    +0.210 HD
ENDBRANCH  24  25
ENDBRANCH  23  24
ENDBRANCH  20  22
BRANCH  20  27
ATOM     27  O   UNL     1      -1.137   0.371  -1.329  0.00  0.00    -0.388 OA
ATOM     28  H   UNL     1      -1.412   1.262  -1.585  0.00  0.00    +0.210 HD
ENDBRANCH  20  27
ENDBRANCH  19  20
ENDBRANCH   1  19
TORSDOF 8
