REMARK  Name = ZINC09216448
REMARK  11 active torsions:
REMARK  status: ('A' for Active; 'I' for Inactive)
REMARK    1  A    between atoms: C_1  and  C_2
REMARK    2  A    between atoms: C_2  and  C_3
REMARK    3  A    between atoms: C_3  and  C_5
REMARK    4  A    between atoms: C_3  and  C_6
REMARK    5  A    between atoms: C_11  and  O_12
REMARK    6  A    between atoms: O_12  and  C_13
REMARK    7  A    between atoms: C_13  and  C_14
REMARK    8  A    between atoms: C_14  and  O_15
REMARK    9  A    between atoms: O_15  and  C_16
REMARK   10  A    between atoms: C_19  and  C_22
REMARK   11  A    between atoms: C_32  and  C_34
REMARK                            x       y       z     vdW  Elec       q    Type
REMARK                         _______ _______ _______ _____ _____    ______ ____
ROOT
ATOM      1  C   UNL     1       6.936  -0.013   0.606  0.00  0.00    +0.121 A 
ATOM      2  C   UNL     1       7.552   0.227  -0.618  0.00  0.00    +0.046 A 
ATOM      3  C   UNL     1       8.389   1.295  -0.767  0.00  0.00    +0.011 A 
ATOM      4  C   UNL     1       8.627   2.153   0.317  0.00  0.00    -0.024 A 
ATOM      5  C   UNL     1       8.002   1.907   1.548  0.00  0.00    +0.011 A 
ATOM      6  C   UNL     1       7.163   0.838   1.683  0.00  0.00    +0.046 A 
ENDROOT
BRANCH   4   7
ATOM      7  C   UNL     1       9.524   3.301   0.164  0.00  0.00    +0.024 C 
ATOM      8  C   UNL     1       9.242   4.486   0.805  0.00  0.00    +0.081 C 
ATOM      9  C   UNL     1      10.212   5.617   0.828  0.00  0.00    +0.153 C 
ATOM     10  N   UNL     1      11.031   5.879  -0.155  0.00  0.00    -0.283 NA
ATOM     11  N   UNL     1      10.158   6.376   2.017  0.00  0.00    -0.152 N 
ATOM     12  C   UNL     1       8.986   6.342   2.742  0.00  0.00    +0.181 C 
ATOM     13  N   UNL     1       7.928   5.606   2.514  0.00  0.00    -0.152 NA
ATOM     14  C   UNL     1       7.952   4.707   1.506  0.00  0.00    +0.273 C 
ATOM     15  O   UNL     1       6.948   4.093   1.184  0.00  0.00    -0.268 OA
ATOM     16  S   UNL     1       9.310   7.513   4.034  0.00  0.00    -0.033 S 
ATOM     17  C   UNL     1      10.999   7.892   3.591  0.00  0.00    +0.131 C 
ATOM     18  N   UNL     1      11.175   7.163   2.516  0.00  0.00    -0.164 NA
ATOM     19  H   UNL     1      11.643   6.629  -0.089  0.00  0.00    +0.188 HD
BRANCH  17  20
ATOM     20  C   UNL     1      11.956   8.797   4.266  0.00  0.00    +0.027 A 
ATOM     21  C   UNL     1      11.582   9.494   5.420  0.00  0.00    +0.013 A 
ATOM     22  C   UNL     1      12.514  10.328   6.013  0.00  0.00    +0.020 A 
ATOM     23  C   UNL     1      13.772  10.445   5.451  0.00  0.00    +0.111 A 
ATOM     24  N   UNL     1      14.096   9.776   4.362  0.00  0.00    -0.263 NA
ATOM     25  C   UNL     1      13.246   8.966   3.764  0.00  0.00    +0.121 A 
ENDBRANCH  17  20
ENDBRANCH   4   7
BRANCH   1  26
ATOM     26  O   UNL     1       6.105  -1.076   0.748  0.00  0.00    -0.489 OA
BRANCH  26  27
ATOM     27  C   UNL     1       5.916  -1.909  -0.398  0.00  0.00    +0.270 C 
BRANCH  27  28
ATOM     28  C   UNL     1       4.955  -3.047  -0.048  0.00  0.00    +0.270 C 
BRANCH  28  29
ATOM     29  O   UNL     1       3.665  -2.508   0.244  0.00  0.00    -0.488 OA
BRANCH  29  35
ATOM     30  C   UNL     1       1.411  -2.937   0.873  0.00  0.00    -0.003 A 
ATOM     31  C   UNL     1       0.417  -3.838   1.205  0.00  0.00    +0.007 A 
ATOM     32  C   UNL     1       0.696  -5.191   1.248  0.00  0.00    +0.001 A 
ATOM     33  C   UNL     1       1.970  -5.647   0.958  0.00  0.00    +0.004 A 
ATOM     34  C   UNL     1       2.966  -4.750   0.626  0.00  0.00    +0.046 A 
ATOM     35  C   UNL     1       2.687  -3.392   0.577  0.00  0.00    +0.124 A 
BRANCH  30  36
ATOM     36  C   UNL     1       1.106  -1.462   0.827  0.00  0.00    +0.019 C 
ATOM     37  C   UNL     1       0.004  -1.200  -0.202  0.00  0.00    +0.012 C 
BRANCH  36  39
ATOM     38  C   UNL     1       0.446   0.523   2.193  0.00  0.00    +0.004 C 
ATOM     39  C   UNL     1       0.636  -0.995   2.206  0.00  0.00    +0.004 C 
ENDBRANCH  36  39
ENDBRANCH  30  36
ENDBRANCH  29  35
ENDBRANCH  28  29
ENDBRANCH  27  28
ENDBRANCH  26  27
ENDBRANCH   1  26
TORSDOF 9
