REMARK  Name = ZINC60211098
REMARK  8 active torsions:
REMARK  status: ('A' for Active; 'I' for Inactive)
REMARK    1  A    between atoms: C_1  and  C_2
REMARK    2  A    between atoms: C_5  and  C_26
REMARK    3  A    between atoms: C_7  and  N_8
REMARK    4  A    between atoms: N_8  and  C_9
REMARK    5  A    between atoms: C_9  and  C_10
REMARK    6  A    between atoms: N_12  and  C_13
REMARK    7  A    between atoms: C_13  and  C_14
REMARK    8  A    between atoms: C_17  and  C_19
REMARK                            x       y       z     vdW  Elec       q    Type
REMARK                         _______ _______ _______ _____ _____    ______ ____
ROOT
ATOM      1  C   UNL     1       0.045   0.229   4.830  0.00  0.00    +0.230 C 
ATOM      2  O   UNL     1       0.026   1.423   4.613  0.00  0.00    -0.274 OA
ATOM      3  N   UNL     1       0.063  -0.224   6.099  0.00  0.00    -0.307 N 
ATOM      4  H   UNL     1       0.077  -1.179   6.273  0.00  0.00    +0.149 HD
ENDROOT
BRANCH   1   5
ATOM      5  C   UNL     1       0.047  -0.746   3.682  0.00  0.00    +0.197 C 
BRANCH   5   6
ATOM      6  N   UNL     1       0.025  -0.009   2.416  0.00  0.00    -0.335 N 
ATOM      7  H   UNL     1       0.012   0.961   2.419  0.00  0.00    +0.147 HD
BRANCH   6  14
ATOM      8  C   UNL     1      -0.018   1.503   0.010  0.00  0.00    +0.045 C 
ATOM      9  C   UNL     1       0.002  -0.004   0.002  0.00  0.00    -0.030 A 
ATOM     10  C   UNL     1       0.006  -0.686  -1.200  0.00  0.00    +0.006 A 
ATOM     11  C   UNL     1       0.025  -2.066  -1.216  0.00  0.00    +0.013 A 
ATOM     12  C   UNL     1       0.040  -2.778  -0.015  0.00  0.00    +0.038 A 
ATOM     13  C   UNL     1       0.036  -2.090   1.198  0.00  0.00    +0.036 A 
ATOM     14  C   UNL     1       0.023  -0.703   1.203  0.00  0.00    +0.031 A 
BRANCH  12  15
ATOM     15  C   UNL     1       0.060  -4.256  -0.029  0.00  0.00    +0.242 C 
ATOM     16  O   UNL     1       0.073  -4.874   1.018  0.00  0.00    -0.270 OA
ATOM     17  N   UNL     1       0.063  -4.919  -1.203  0.00  0.00    -0.325 N 
ATOM     18  H   UNL     1       0.052  -4.426  -2.038  0.00  0.00    +0.145 HD
ATOM     19  H   UNL     1       0.076  -5.889  -1.212  0.00  0.00    +0.145 HD
ENDBRANCH  12  15
ENDBRANCH   6  14
ENDBRANCH   5   6
ENDBRANCH   1   5
BRANCH   3  20
ATOM     20  C   UNL     1       0.060   0.724   7.216  0.00  0.00    +0.178 C 
BRANCH  20  21
ATOM     21  C   UNL     1       0.083  -0.034   8.519  0.00  0.00    +0.123 A 
ATOM     22  C   UNL     1       1.189  -0.410   9.190  0.00  0.00    +0.047 A 
ATOM     23  C   UNL     1       0.759  -1.090  10.347  0.00  0.00    +0.050 A 
ATOM     24  C   UNL     1      -0.600  -1.091  10.318  0.00  0.00    +0.135 A 
ATOM     25  O   UNL     1      -0.996  -0.443   9.206  0.00  0.00    -0.458 OA
BRANCH  24  26
ATOM     26  C   UNL     1      -1.489  -1.695  11.333  0.00  0.00    +0.017 A 
ATOM     27  C   UNL     1      -0.945  -2.331  12.450  0.00  0.00    +0.013 A 
ATOM     28  C   UNL     1      -1.780  -2.892  13.395  0.00  0.00    +0.021 A 
ATOM     29  C   UNL     1      -3.154  -2.825  13.236  0.00  0.00    +0.041 A 
ATOM     30  C   UNL     1      -3.699  -2.195  12.129  0.00  0.00    +0.021 A 
ATOM     31  C   UNL     1      -2.874  -1.626  11.181  0.00  0.00    +0.013 A 
ATOM     32 CL   UNL     1      -4.197  -3.535  14.428  0.00  0.00    -0.084 Cl
ENDBRANCH  24  26
ENDBRANCH  20  21
ENDBRANCH   3  20
TORSDOF 7
