REMARK  Name = ZINC49496693
REMARK  9 active torsions:
REMARK  status: ('A' for Active; 'I' for Inactive)
REMARK    1  A    between atoms: C_1  and  C_2
REMARK    2  A    between atoms: C_2  and  C_3
REMARK    3  A    between atoms: C_2  and  C_4
REMARK    4  A    between atoms: C_2  and  C_5
REMARK    5  A    between atoms: C_8  and  N_10
REMARK    6  A    between atoms: N_10  and  S_11
REMARK    7  A    between atoms: S_11  and  C_14
REMARK    8  A    between atoms: C_17  and  O_21
REMARK    9  A    between atoms: C_18  and  N_20
REMARK                            x       y       z     vdW  Elec       q    Type
REMARK                         _______ _______ _______ _____ _____    ______ ____
ROOT
ATOM      1  S   UNL     1       1.109  -2.432  -5.732  0.00  0.00    +0.094 S 
ATOM      2  O   UNL     1       1.698  -1.246  -6.248  0.00  0.00    -0.148 OA
ATOM      3  O   UNL     1       1.884  -3.520  -5.248  0.00  0.00    -0.148 OA
ENDROOT
BRANCH   1   4
ATOM      4  C   UNL     1       0.076  -3.077  -7.006  0.00  0.00    +0.112 A 
ATOM      5  C   UNL     1      -0.242  -4.423  -7.021  0.00  0.00    +0.032 A 
ATOM      6  C   UNL     1      -1.052  -4.934  -8.018  0.00  0.00    +0.049 A 
ATOM      7  C   UNL     1      -1.546  -4.099  -9.006  0.00  0.00    +0.137 A 
ATOM      8  C   UNL     1      -1.226  -2.744  -8.992  0.00  0.00    +0.068 A 
ATOM      9  C   UNL     1      -0.417  -2.236  -7.985  0.00  0.00    +0.055 A 
BRANCH   8  10
ATOM     10  N   UNL     1      -1.722  -1.895  -9.988  0.00  0.00    -0.355 N 
ATOM     11  H   UNL     1      -2.291  -2.250 -10.689  0.00  0.00    +0.142 HD
ATOM     12  H   UNL     1      -1.498  -0.951  -9.977  0.00  0.00    +0.142 HD
ENDBRANCH   8  10
BRANCH   7  13
ATOM     13  O   UNL     1      -2.343  -4.601  -9.987  0.00  0.00    -0.505 OA
ATOM     14  H   UNL     1      -3.286  -4.583  -9.776  0.00  0.00    +0.292 HD
ENDBRANCH   7  13
ENDBRANCH   1   4
BRANCH   1  15
ATOM     15  N   UNL     1       0.119  -1.967  -4.488  0.00  0.00    -0.070 NA
BRANCH  15  19
ATOM     16  C   UNL     1       0.707  -0.490  -1.238  0.00  0.00    +0.056 A 
ATOM     17  C   UNL     1       2.056  -0.430  -1.354  0.00  0.00    +0.072 A 
ATOM     18  S   UNL     1       2.281  -1.127  -2.982  0.00  0.00    -0.057 S 
ATOM     19  C   UNL     1       0.662  -1.417  -3.338  0.00  0.00    +0.202 A 
ATOM     20  N   UNL     1       0.038  -0.999  -2.257  0.00  0.00    -0.227 NA
BRANCH  16  22
ATOM     21  C   UNL     1      -0.019   1.526   0.010  0.00  0.00    +0.017 C 
ATOM     22  C   UNL     1       0.002  -0.004   0.002  0.00  0.00    +0.005 C 
ATOM     23  C   UNL     1       0.742  -0.511   1.242  0.00  0.00    +0.017 C 
ATOM     24  C   UNL     1      -1.433  -0.534   0.013  0.00  0.00    +0.017 C 
ENDBRANCH  16  22
ENDBRANCH  15  19
ENDBRANCH   1  15
TORSDOF 6
