REMARK  Name = ZINC15945025
REMARK  3 active torsions:
REMARK  status: ('A' for Active; 'I' for Inactive)
REMARK    1  A    between atoms: C_4  and  C_7
REMARK    2  A    between atoms: C_7  and  N_51
REMARK    3  A    between atoms: C_18  and  C_21
REMARK                            x       y       z     vdW  Elec       q    Type
REMARK                         _______ _______ _______ _____ _____    ______ ____
ROOT
ATOM      1  C   UNL     1       4.759   4.586  -1.508  0.00  0.00    -0.073 C 
ATOM      2  C   UNL     1       5.197   4.548  -2.975  0.00  0.00    +0.018 C 
ATOM      3  C   UNL     1       4.086   5.163  -3.820  0.00  0.00    -0.027 A 
ATOM      4  C   UNL     1       2.841   5.293  -3.306  0.00  0.00    -0.021 A 
ATOM      5  S   UNL     1       1.891   6.049  -4.597  0.00  0.00    -0.080 S 
ATOM      6  C   UNL     1       3.117   6.186  -5.786  0.00  0.00    +0.080 A 
ATOM      7  C   UNL     1       4.260   5.640  -5.180  0.00  0.00    +0.068 A 
ATOM      8  C   UNL     1       5.509   5.616  -5.975  0.00  0.00    +0.248 C 
ATOM      9  O   UNL     1       6.568   5.274  -5.481  0.00  0.00    -0.270 OA
ATOM     10  N   UNL     1       5.426   5.989  -7.269  0.00  0.00    -0.289 N 
ATOM     11  C   UNL     1       4.161   6.184  -7.971  0.00  0.00    +0.191 C 
ATOM     12  N   UNL     1       3.116   6.688  -7.061  0.00  0.00    -0.316 N 
ATOM     13  C   UNL     1       2.394   4.880  -1.939  0.00  0.00    -0.035 C 
ATOM     14  H   UNL     1       6.250   6.136  -7.758  0.00  0.00    +0.151 HD
ATOM     15  H   UNL     1       2.462   7.343  -7.350  0.00  0.00    +0.149 HD
ATOM     16  N   UNL     1       3.423   3.970  -1.381  0.00  0.00    +0.386 N 
ATOM     17  H   UNL     1       3.409   3.087  -1.906  0.00  0.00    -0.081 HD
ENDROOT
BRANCH  11  18
ATOM     18  C   UNL     1       3.714   4.869  -8.556  0.00  0.00    +0.008 A 
ATOM     19  C   UNL     1       4.142   3.682  -7.991  0.00  0.00    +0.057 A 
ATOM     20  C   UNL     1       3.731   2.472  -8.526  0.00  0.00    +0.167 A 
ATOM     21  C   UNL     1       2.887   2.454  -9.634  0.00  0.00    +0.167 A 
ATOM     22  C   UNL     1       2.463   3.647 -10.196  0.00  0.00    +0.065 A 
ATOM     23  C   UNL     1       2.872   4.852  -9.653  0.00  0.00    +0.028 A 
ATOM     24 BR   UNL     1       2.284   6.479 -10.416  0.00  0.00    -0.050 Br
ATOM     25  O   UNL     1       2.630   1.156  -9.967  0.00  0.00    -0.453 OA
ATOM     26  C   UNL     1       3.648   0.381  -9.306  0.00  0.00    +0.466 C 
ATOM     27  O   UNL     1       4.002   1.183  -8.165  0.00  0.00    -0.453 OA
ENDBRANCH  11  18
BRANCH  16  28
ATOM     28  C   UNL     1       3.129   3.687   0.041  0.00  0.00    -0.043 C 
BRANCH  28  32
ATOM     29  C   UNL     1      -0.456   1.377   0.274  0.00  0.00    +0.000 A 
ATOM     30  C   UNL     1       0.767   0.744   0.157  0.00  0.00    +0.000 A 
ATOM     31  C   UNL     1       1.927   1.492   0.080  0.00  0.00    +0.002 A 
ATOM     32  C   UNL     1       1.865   2.872   0.126  0.00  0.00    -0.064 A 
ATOM     33  C   UNL     1       0.642   3.505   0.248  0.00  0.00    +0.002 A 
ATOM     34  C   UNL     1      -0.519   2.757   0.326  0.00  0.00    +0.000 A 
ENDBRANCH  28  32
ENDBRANCH  16  28
TORSDOF 3
