REMARK  Name = ZINC35245625
REMARK  11 active torsions:
REMARK  status: ('A' for Active; 'I' for Inactive)
REMARK    1  A    between atoms: C_1  and  C_2
REMARK    2  A    between atoms: C_7  and  C_8
REMARK    3  A    between atoms: C_8  and  S_9
REMARK    4  A    between atoms: S_9  and  C_10
REMARK    5  A    between atoms: C_13  and  C_24
REMARK    6  A    between atoms: N_14  and  C_15
REMARK    7  A    between atoms: C_18  and  N_21
REMARK    8  A    between atoms: C_24  and  C_26
REMARK    9  A    between atoms: C_24  and  N_27
REMARK   10  A    between atoms: C_28  and  C_30
REMARK   11  A    between atoms: C_30  and  C_31
REMARK                            x       y       z     vdW  Elec       q    Type
REMARK                         _______ _______ _______ _____ _____    ______ ____
ROOT
ATOM      1  C   UNL     1      -1.513   1.192   4.568  0.00  0.00    +0.196 A 
ATOM      2  N   UNL     1      -0.387   1.548   5.142  0.00  0.00    -0.122 NA
ATOM      3  N   UNL     1      -0.633   2.167   6.241  0.00  0.00    -0.131 NA
ATOM      4  C   UNL     1      -1.919   2.245   6.435  0.00  0.00    +0.159 A 
ATOM      5  N   UNL     1      -2.529   1.632   5.372  0.00  0.00    -0.273 N 
ENDROOT
BRANCH   5   6
ATOM      6  C   UNL     1      -3.906   1.483   5.156  0.00  0.00    +0.050 A 
ATOM      7  C   UNL     1      -4.701   2.600   4.938  0.00  0.00    +0.028 A 
ATOM      8  C   UNL     1      -6.057   2.450   4.725  0.00  0.00    +0.035 A 
ATOM      9  C   UNL     1      -6.624   1.189   4.729  0.00  0.00    +0.126 A 
ATOM     10  C   UNL     1      -5.835   0.075   4.946  0.00  0.00    +0.035 A 
ATOM     11  C   UNL     1      -4.477   0.217   5.154  0.00  0.00    +0.028 A 
BRANCH   9  12
ATOM     12  N   UNL     1      -8.078   1.032   4.502  0.00  0.00    +0.056 N 
ATOM     13  O   UNL     1      -8.769   2.006   4.312  0.00  0.00    -0.126 OA
ATOM     14  O   UNL     1      -8.575  -0.070   4.505  0.00  0.00    -0.126 OA
ENDBRANCH   9  12
ENDBRANCH   5   6
BRANCH   4  15
ATOM     15  C   UNL     1      -2.608   2.894   7.607  0.00  0.00    +0.138 C 
ATOM     16  C   UNL     1      -2.479   1.994   8.837  0.00  0.00    +0.036 C 
BRANCH  15  17
ATOM     17  N   UNL     1      -1.985   4.191   7.883  0.00  0.00    -0.305 N 
ATOM     18  C   UNL     1      -2.689   5.158   8.505  0.00  0.00    +0.218 C 
ATOM     19  O   UNL     1      -3.838   4.955   8.835  0.00  0.00    -0.275 OA
ATOM     20  H   UNL     1      -1.066   4.354   7.618  0.00  0.00    +0.149 HD
BRANCH  18  21
ATOM     21  C   UNL     1      -2.048   6.492   8.788  0.00  0.00    +0.138 C 
BRANCH  21  22
ATOM     22  C   UNL     1      -3.039   7.388   9.485  0.00  0.00    -0.001 A 
ATOM     23  C   UNL     1      -3.265   7.541  10.813  0.00  0.00    +0.011 A 
ATOM     24  C   UNL     1      -4.237   8.432  11.229  0.00  0.00    +0.008 A 
ATOM     25  C   UNL     1      -4.935   9.126  10.297  0.00  0.00    +0.045 A 
ATOM     26  S   UNL     1      -4.216   8.528   8.776  0.00  0.00    -0.101 S 
ENDBRANCH  21  22
ENDBRANCH  18  21
ENDBRANCH  15  17
ENDBRANCH   4  15
BRANCH   1  27
ATOM     27  S   UNL     1      -1.684   0.321   3.046  0.00  0.00    -0.081 S 
BRANCH  27  28
ATOM     28  C   UNL     1       0.025   0.045   2.504  0.00  0.00    +0.112 C 
BRANCH  28  35
ATOM     29  C   UNL     1      -0.018   1.503   0.010  0.00  0.00    +0.044 C 
ATOM     30  C   UNL     1       0.002  -0.004   0.002  0.00  0.00    -0.046 A 
ATOM     31  C   UNL     1       0.006  -0.689  -1.199  0.00  0.00    +0.003 A 
ATOM     32  C   UNL     1       0.025  -2.071  -1.207  0.00  0.00    +0.000 A 
ATOM     33  C   UNL     1       0.040  -2.768  -0.013  0.00  0.00    +0.000 A 
ATOM     34  C   UNL     1       0.037  -2.084   1.188  0.00  0.00    +0.005 A 
ATOM     35  C   UNL     1       0.023  -0.702   1.195  0.00  0.00    -0.034 A 
ENDBRANCH  28  35
ENDBRANCH  27  28
ENDBRANCH   1  27
TORSDOF 9
