REMARK  Name = ZINC39465282
REMARK  4 active torsions:
REMARK  status: ('A' for Active; 'I' for Inactive)
REMARK    1  A    between atoms: C_1  and  S_2
REMARK    2  A    between atoms: S_2  and  C_3
REMARK    3  A    between atoms: C_8  and  S_9
REMARK    4  A    between atoms: S_9  and  C_10
REMARK                            x       y       z     vdW  Elec       q    Type
REMARK                         _______ _______ _______ _____ _____    ______ ____
ROOT
ATOM      1  C   UNL     1      -1.702  -0.454   0.016  0.00  0.00    +0.021 A 
ATOM      2  C   UNL     1      -2.681   0.526   0.025  0.00  0.00    +0.019 A 
ATOM      3  C   UNL     1      -4.023   0.176   0.036  0.00  0.00    -0.040 A 
ATOM      4  C   UNL     1      -4.392  -1.153   0.039  0.00  0.00    -0.022 A 
ATOM      5  C   UNL     1      -3.415  -2.140   0.030  0.00  0.00    +0.021 A 
ATOM      6  C   UNL     1      -2.073  -1.799   0.012  0.00  0.00    +0.021 A 
ATOM      7  C   UNL     1      -5.835  -1.582   0.053  0.00  0.00    +0.130 C 
ATOM      8  C   UNL     1      -6.019  -2.749  -0.923  0.00  0.00    +0.196 C 
ATOM      9  O   UNL     1      -7.373  -3.231  -0.817  0.00  0.00    -0.292 OA
ATOM     10  P   UNL     1      -8.585  -2.149  -0.902  0.00  0.00    +0.448 P 
ATOM     11  O   UNL     1      -9.850  -2.709  -0.216  0.00  0.00    -0.236 OA
ATOM     12  N   UNL     1      -8.043  -0.810  -0.098  0.00  0.00    -0.154 NA
ATOM     13  N   UNL     1      -6.721  -0.475  -0.307  0.00  0.00    -0.224 NA
ATOM     14  C   UNL     1      -6.399   0.729   0.475  0.00  0.00    +0.108 C 
ATOM     15  C   UNL     1      -5.052   1.277   0.043  0.00  0.00    +0.052 C 
ATOM     16  O   UNL     1      -8.888  -1.802  -2.377  0.00  0.00    -0.126 OA
ATOM     17  H   UNL     1      -8.626  -0.290   0.478  0.00  0.00    +0.153 HD
ENDROOT
BRANCH   1  19
ATOM     18  C   UNL     1      -0.022   1.810   0.012  0.00  0.00    +0.090 C 
ATOM     19  S   UNL     1       0.002  -0.004   0.002  0.00  0.00    -0.127 S 
ENDBRANCH   1  19
BRANCH   6  20
ATOM     20  S   UNL     1      -0.841  -3.058  -0.007  0.00  0.00    -0.127 S 
ATOM     21  C   UNL     1      -1.791  -4.603  -0.006  0.00  0.00    +0.090 C 
ENDBRANCH   6  20
TORSDOF 2
