REMARK  Name = ZINC10004014
REMARK  2 active torsions:
REMARK  status: ('A' for Active; 'I' for Inactive)
REMARK    1  A    between atoms: C_1  and  C_2
REMARK    2  A    between atoms: N_14  and  C_17
REMARK                            x       y       z     vdW  Elec       q    Type
REMARK                         _______ _______ _______ _____ _____    ______ ____
ROOT
ATOM      1  C   UNL     1       4.134  -3.010   0.334  0.00  0.00    +0.047 C 
ATOM      2  C   UNL     1       4.806  -1.650   0.134  0.00  0.00    +0.098 C 
ATOM      3  C   UNL     1       5.985  -1.566  -0.874  0.00  0.00    +0.006 C 
ATOM      4  C   UNL     1       6.579  -0.413  -0.602  0.00  0.00    +0.003 C 
ATOM      5  C   UNL     1       5.911   0.218   0.610  0.00  0.00    +0.155 C 
ATOM      6  O   UNL     1       5.489  -1.065   1.301  0.00  0.00    -0.361 OA
ATOM      7  C   UNL     1       4.529   0.675   0.401  0.00  0.00    +0.123 C 
ATOM      8  C   UNL     1       3.936  -0.522  -0.460  0.00  0.00    +0.126 C 
ATOM      9  C   UNL     1       2.525  -0.273  -0.016  0.00  0.00    +0.233 C 
ATOM     10  O   UNL     1       1.679  -1.092   0.273  0.00  0.00    -0.274 OA
ATOM     11  N   UNL     1       2.409   1.098  -0.014  0.00  0.00    -0.208 N 
ATOM     12  C   UNL     1       3.643   1.727  -0.022  0.00  0.00    +0.233 C 
ATOM     13  O   UNL     1       3.910   2.874  -0.312  0.00  0.00    -0.274 OA
ENDROOT
BRANCH  11  14
ATOM     14  C   UNL     1       1.184   1.779   0.000  0.00  0.00    +0.062 A 
ATOM     15  C   UNL     1       1.150   3.171   0.008  0.00  0.00    +0.027 A 
ATOM     16  C   UNL     1      -0.085   3.799   0.022  0.00  0.00    +0.021 A 
ATOM     17  C   UNL     1      -1.234   3.029   0.029  0.00  0.00    +0.111 A 
ATOM     18  N   UNL     1      -1.167   1.713   0.017  0.00  0.00    -0.261 NA
ATOM     19  C   UNL     1      -0.013   1.076   0.008  0.00  0.00    +0.134 A 
ENDBRANCH  11  14
TORSDOF 1
