REMARK  Name = ZINC36498411
REMARK  16 active torsions:
REMARK  status: ('A' for Active; 'I' for Inactive)
REMARK    1  A    between atoms: C_1  and  C_2
REMARK    2  A    between atoms: C_2  and  C_3
REMARK    3  A    between atoms: C_2  and  C_4
REMARK    4  A    between atoms: C_2  and  C_5
REMARK    5  A    between atoms: C_5  and  C_6
REMARK    6  A    between atoms: C_6  and  C_7
REMARK    7  A    between atoms: C_6  and  C_8
REMARK    8  A    between atoms: C_6  and  N_9
REMARK    9  A    between atoms: C_10  and  C_12
REMARK   10  A    between atoms: C_12  and  C_14
REMARK   11  A    between atoms: C_12  and  N_26
REMARK   12  A    between atoms: C_23  and  O_24
REMARK   13  A    between atoms: O_24  and  C_25
REMARK   14  A    between atoms: N_26  and  C_27
REMARK   15  A    between atoms: C_27  and  C_28
REMARK   16  A    between atoms: C_33  and  C_35
REMARK                            x       y       z     vdW  Elec       q    Type
REMARK                         _______ _______ _______ _____ _____    ______ ____
ROOT
ATOM      1  C   UNL     1       5.174  -0.472  -4.726  0.00  0.00    +0.197 C 
ENDROOT
BRANCH   1   2
ATOM      2  C   UNL     1       4.545   0.607  -5.571  0.00  0.00    +0.031 A 
ATOM      3  C   UNL     1       3.475   0.299  -6.427  0.00  0.00    -0.009 A 
ATOM      4  C   UNL     1       2.966  -1.008  -6.517  0.00  0.00    +0.009 A 
ATOM      5  C   UNL     1       1.928  -1.270  -7.357  0.00  0.00    +0.001 A 
ATOM      6  C   UNL     1       1.359  -0.260  -8.131  0.00  0.00    +0.001 A 
ATOM      7  C   UNL     1       1.825   1.017  -8.070  0.00  0.00    +0.008 A 
ATOM      8  C   UNL     1       2.896   1.326  -7.214  0.00  0.00    -0.017 A 
ATOM      9  C   UNL     1       3.403   2.634  -7.124  0.00  0.00    +0.012 A 
ATOM     10  C   UNL     1       4.441   2.900  -6.286  0.00  0.00    +0.046 A 
ATOM     11  C   UNL     1       5.010   1.889  -5.504  0.00  0.00    +0.126 A 
BRANCH  11  12
ATOM     12  O   UNL     1       6.042   2.186  -4.672  0.00  0.00    -0.495 OA
ATOM     13  C   UNL     1       6.412   3.562  -4.562  0.00  0.00    +0.277 C 
ENDBRANCH  11  12
ENDBRANCH   1   2
BRANCH   1  15
ATOM     14  N   UNL     1       3.707  -1.281  -2.906  0.00  0.00    -0.308 N 
ATOM     15  C   UNL     1       4.630  -0.391  -3.323  0.00  0.00    +0.239 C 
ATOM     16  O   UNL     1       5.022   0.474  -2.569  0.00  0.00    -0.273 OA
ATOM     17  H   UNL     1       3.393  -1.973  -3.509  0.00  0.00    +0.149 HD
BRANCH  14  18
ATOM     18  C   UNL     1       3.178  -1.203  -1.542  0.00  0.00    +0.030 C 
ATOM     19  C   UNL     1       2.786   0.243  -1.229  0.00  0.00    +0.031 C 
ATOM     20  C   UNL     1       4.249  -1.667  -0.552  0.00  0.00    +0.031 C 
BRANCH  18  21
ATOM     21  C   UNL     1       1.947  -2.103  -1.420  0.00  0.00    +0.031 C 
BRANCH  21  23
ATOM     22  C   UNL     1       1.572  -2.734  -3.808  0.00  0.00    +0.010 C 
ATOM     23  C   UNL     1       1.044  -1.900  -2.639  0.00  0.00    -0.036 C 
ATOM     24  C   UNL     1       1.039  -0.421  -3.029  0.00  0.00    +0.010 C 
ATOM     25  C   UNL     1      -0.380  -2.343  -2.299  0.00  0.00    +0.010 C 
ENDBRANCH  21  23
ENDBRANCH  18  21
ENDBRANCH  14  18
ENDBRANCH   1  15
BRANCH   1  26
ATOM     26  N   UNL     1       6.627  -0.286  -4.698  0.00  0.00    -0.272 N 
ATOM     27  C   UNL     1       7.343  -0.404  -5.833  0.00  0.00    +0.283 C 
ATOM     28  O   UNL     1       8.541  -0.189  -5.821  0.00  0.00    -0.267 OA
BRANCH  27  29
ATOM     29  C   UNL     1       6.680  -0.791  -7.082  0.00  0.00    +0.189 A 
ATOM     30  C   UNL     1       7.257  -0.829  -8.319  0.00  0.00    +0.054 A 
ATOM     31  C   UNL     1       6.263  -1.252  -9.215  0.00  0.00    +0.042 A 
ATOM     32  C   UNL     1       5.137  -1.451  -8.495  0.00  0.00    +0.196 A 
ATOM     33  O   UNL     1       5.393  -1.177  -7.210  0.00  0.00    -0.458 OA
ENDBRANCH  27  29
BRANCH  26  34
ATOM     34  C   UNL     1       7.300   0.029  -3.435  0.00  0.00    +0.183 C 
BRANCH  34  35
ATOM     35  C   UNL     1       7.564  -1.245  -2.675  0.00  0.00    +0.122 A 
ATOM     36  C   UNL     1       8.673  -2.002  -2.768  0.00  0.00    +0.046 A 
ATOM     37  C   UNL     1       8.498  -3.094  -1.888  0.00  0.00    +0.041 A 
ATOM     38  C   UNL     1       7.294  -2.940  -1.310  0.00  0.00    +0.195 A 
ATOM     39  O   UNL     1       6.735  -1.816  -1.786  0.00  0.00    -0.466 OA
ENDBRANCH  34  35
ENDBRANCH  26  34
ENDBRANCH   1  26
TORSDOF 10
