REMARK  Name = ZINC02093058
REMARK  10 active torsions:
REMARK  status: ('A' for Active; 'I' for Inactive)
REMARK    1  A    between atoms: C_1  and  C_2
REMARK    2  A    between atoms: C_7  and  N_8
REMARK    3  A    between atoms: N_10  and  C_27
REMARK    4  A    between atoms: C_14  and  C_15
REMARK    5  A    between atoms: C_17  and  O_24
REMARK    6  A    between atoms: C_18  and  O_23
REMARK    7  A    between atoms: C_19  and  O_21
REMARK    8  A    between atoms: O_21  and  C_22
REMARK    9  A    between atoms: O_24  and  C_25
REMARK   10  A    between atoms: C_32  and  C_33
REMARK                            x       y       z     vdW  Elec       q    Type
REMARK                         _______ _______ _______ _____ _____    ______ ____
ROOT
ATOM      1  N   UNL     1       2.817   0.398   2.357  0.00  0.00    -0.225 NA
ATOM      2  C   UNL     1       3.300   1.039   1.316  0.00  0.00    +0.173 C 
ATOM      3  N   UNL     1       2.730   1.205   0.070  0.00  0.00    -0.214 N 
ATOM      4  C   UNL     1       3.362   1.883  -0.873  0.00  0.00    +0.263 C 
ATOM      5  O   UNL     1       2.877   2.035  -1.979  0.00  0.00    -0.269 OA
ATOM      6  C   UNL     1       4.679   2.449  -0.524  0.00  0.00    +0.078 C 
ATOM      7  C   UNL     1       5.531   3.180  -1.287  0.00  0.00    +0.028 C 
ATOM      8  S   UNL     1       4.853   1.908   1.170  0.00  0.00    -0.048 S 
ENDROOT
BRANCH   1  15
ATOM      9  C   UNL     1       3.134  -2.043   3.778  0.00  0.00    +0.046 C 
ATOM     10  C   UNL     1       3.664  -0.730   4.294  0.00  0.00    -0.025 A 
ATOM     11  C   UNL     1       4.332  -0.681   5.500  0.00  0.00    +0.005 A 
ATOM     12  C   UNL     1       4.819   0.523   5.976  0.00  0.00    +0.000 A 
ATOM     13  C   UNL     1       4.640   1.686   5.247  0.00  0.00    +0.002 A 
ATOM     14  C   UNL     1       3.978   1.651   4.038  0.00  0.00    +0.028 A 
ATOM     15  C   UNL     1       3.479   0.439   3.553  0.00  0.00    +0.069 A 
ENDBRANCH   1  15
BRANCH   3  16
ATOM     16  C   UNL     1       1.474   0.647  -0.199  0.00  0.00    +0.046 A 
ATOM     17  C   UNL     1       0.320   1.380   0.044  0.00  0.00    +0.024 A 
ATOM     18  C   UNL     1      -0.917   0.826  -0.222  0.00  0.00    +0.002 A 
ATOM     19  C   UNL     1      -1.007  -0.457  -0.731  0.00  0.00    +0.000 A 
ATOM     20  C   UNL     1       0.141  -1.189  -0.974  0.00  0.00    +0.005 A 
ATOM     21  C   UNL     1       1.381  -0.641  -0.709  0.00  0.00    -0.029 A 
ATOM     22  C   UNL     1       2.631  -1.440  -0.975  0.00  0.00    +0.045 C 
ENDBRANCH   3  16
BRANCH   7  23
ATOM     23  C   UNL     1       6.881   3.483  -0.794  0.00  0.00    -0.017 A 
ATOM     24  C   UNL     1       7.695   4.386  -1.488  0.00  0.00    +0.057 A 
ATOM     25  C   UNL     1       8.963   4.673  -1.018  0.00  0.00    +0.166 A 
ATOM     26  C   UNL     1       9.435   4.056   0.137  0.00  0.00    +0.201 A 
ATOM     27  C   UNL     1       8.631   3.151   0.827  0.00  0.00    +0.166 A 
ATOM     28  C   UNL     1       7.360   2.864   0.367  0.00  0.00    +0.057 A 
BRANCH  27  29
ATOM     29  O   UNL     1       9.097   2.551   1.954  0.00  0.00    -0.491 OA
ATOM     30  C   UNL     1       8.220   1.634   2.611  0.00  0.00    +0.277 C 
ENDBRANCH  27  29
BRANCH  26  31
ATOM     31  O   UNL     1      10.685   4.336   0.593  0.00  0.00    -0.501 OA
ATOM     32  H   UNL     1      11.372   3.756   0.238  0.00  0.00    +0.292 HD
ENDBRANCH  26  31
BRANCH  25  33
ATOM     33  O   UNL     1       9.752   5.554  -1.688  0.00  0.00    -0.491 OA
ATOM     34  C   UNL     1       9.204   6.151  -2.866  0.00  0.00    +0.277 C 
ENDBRANCH  25  33
ENDBRANCH   7  23
TORSDOF 6
