REMARK  Name = ZINC36492584
REMARK  11 active torsions:
REMARK  status: ('A' for Active; 'I' for Inactive)
REMARK    1  A    between atoms: C_1  and  C_2
REMARK    2  A    between atoms: C_2  and  C_3
REMARK    3  A    between atoms: C_3  and  C_4
REMARK    4  A    between atoms: C_4  and  N_5
REMARK    5  A    between atoms: C_6  and  C_8
REMARK    6  A    between atoms: C_8  and  C_10
REMARK    7  A    between atoms: C_8  and  N_17
REMARK    8  A    between atoms: C_14  and  O_16
REMARK    9  A    between atoms: N_17  and  C_18
REMARK   10  A    between atoms: C_24  and  C_26
REMARK   11  A    between atoms: C_29  and  N_32
REMARK                            x       y       z     vdW  Elec       q    Type
REMARK                         _______ _______ _______ _____ _____    ______ ____
ROOT
ATOM      1  N   UNL     1       2.837  -5.319  -3.711  0.00  0.00    -0.279 N 
ATOM      2  C   UNL     1       3.081  -5.977  -4.862  0.00  0.00    +0.248 C 
ATOM      3  O   UNL     1       2.425  -5.728  -5.854  0.00  0.00    -0.270 OA
ENDROOT
BRANCH   1   4
ATOM      4  C   UNL     1       3.711  -5.521  -2.553  0.00  0.00    +0.077 C 
ATOM      5  C   UNL     1       2.865  -5.896  -1.334  0.00  0.00    +0.022 C 
ATOM      6  C   UNL     1       3.777  -6.107  -0.125  0.00  0.00    +0.002 C 
ATOM      7  C   UNL     1       4.546  -4.817   0.166  0.00  0.00    +0.000 C 
ATOM      8  C   UNL     1       5.393  -4.443  -1.053  0.00  0.00    +0.002 C 
ATOM      9  C   UNL     1       4.481  -4.231  -2.262  0.00  0.00    +0.022 C 
ENDBRANCH   1   4
BRANCH   2  10
ATOM     10  C   UNL     1       4.146  -7.000  -4.917  0.00  0.00    +0.037 A 
ATOM     11  C   UNL     1       4.184  -8.025  -3.970  0.00  0.00    +0.015 A 
ATOM     12  C   UNL     1       5.180  -8.977  -4.027  0.00  0.00    +0.033 A 
ATOM     13  C   UNL     1       6.141  -8.918  -5.021  0.00  0.00    +0.126 A 
ATOM     14  C   UNL     1       6.110  -7.906  -5.963  0.00  0.00    +0.033 A 
ATOM     15  C   UNL     1       5.115  -6.950  -5.920  0.00  0.00    +0.015 A 
BRANCH  13  16
ATOM     16  N   UNL     1       7.207  -9.944  -5.076  0.00  0.00    +0.056 N 
ATOM     17  O   UNL     1       7.237 -10.829  -4.254  0.00  0.00    -0.126 OA
ATOM     18  O   UNL     1       8.048  -9.895  -5.944  0.00  0.00    -0.126 OA
ENDBRANCH  13  16
ENDBRANCH   2  10
BRANCH   1  19
ATOM     19  C   UNL     1       1.699  -4.402  -3.618  0.00  0.00    +0.193 C 
BRANCH  19  20
ATOM     20  C   UNL     1       2.167  -3.073  -3.082  0.00  0.00    -0.015 A 
ATOM     21  C   UNL     1       1.824  -2.687  -1.799  0.00  0.00    +0.006 A 
ATOM     22  C   UNL     1       2.251  -1.468  -1.304  0.00  0.00    +0.004 A 
ATOM     23  C   UNL     1       3.022  -0.634  -2.091  0.00  0.00    +0.045 A 
ATOM     24  C   UNL     1       3.368  -1.020  -3.377  0.00  0.00    +0.117 A 
ATOM     25  C   UNL     1       2.943  -2.245  -3.870  0.00  0.00    +0.051 A 
BRANCH  24  26
ATOM     26  O   UNL     1       4.126  -0.201  -4.153  0.00  0.00    -0.507 OA
ATOM     27  H   UNL     1       5.078  -0.347  -4.066  0.00  0.00    +0.292 HD
ENDBRANCH  24  26
ENDBRANCH  19  20
BRANCH  19  29
ATOM     28  N   UNL     1      -0.339  -4.204  -2.230  0.00  0.00    -0.313 N 
ATOM     29  C   UNL     1       0.662  -4.980  -2.691  0.00  0.00    +0.238 C 
ATOM     30  O   UNL     1       0.727  -6.145  -2.360  0.00  0.00    -0.273 OA
ATOM     31  H   UNL     1      -0.391  -3.272  -2.495  0.00  0.00    +0.149 HD
BRANCH  28  32
ATOM     32  C   UNL     1      -1.347  -4.766  -1.329  0.00  0.00    +0.104 C 
BRANCH  32  33
ATOM     33  C   UNL     1      -2.361  -3.682  -0.957  0.00  0.00    +0.018 C 
BRANCH  33  35
ATOM     34  C   UNL     1      -4.428  -3.186   0.355  0.00  0.00    +0.004 C 
ATOM     35  C   UNL     1      -3.414  -4.270  -0.016  0.00  0.00    -0.002 C 
ENDBRANCH  33  35
ENDBRANCH  32  33
ENDBRANCH  28  32
ENDBRANCH  19  29
ENDBRANCH   1  19
TORSDOF 10
