REMARK  Name = ZINC63513886
REMARK  13 active torsions:
REMARK  status: ('A' for Active; 'I' for Inactive)
REMARK    1  A    between atoms: C_1  and  C_2
REMARK    2  A    between atoms: C_4  and  C_12
REMARK    3  A    between atoms: C_12  and  C_13
REMARK    4  A    between atoms: C_13  and  N_14
REMARK    5  A    between atoms: C_15  and  C_17
REMARK    6  A    between atoms: C_17  and  N_28
REMARK    7  A    between atoms: C_18  and  C_19
REMARK    8  A    between atoms: C_23  and  N_25
REMARK    9  A    between atoms: C_29  and  C_31
REMARK   10  A    between atoms: C_34  and  C_37
REMARK   11  A    between atoms: C_37  and  C_38
REMARK   12  A    between atoms: C_37  and  C_39
REMARK   13  A    between atoms: C_37  and  C_40
REMARK                            x       y       z     vdW  Elec       q    Type
REMARK                         _______ _______ _______ _____ _____    ______ ____
ROOT
ATOM      1  C   UNL     1       1.151  -1.214  -7.332  0.00  0.00    +0.097 C 
ATOM      2  C   UNL     1       0.383  -0.159  -7.687  0.00  0.00    +0.036 C 
ENDROOT
BRANCH   2   3
ATOM      3  C   UNL     1       0.160   0.143  -9.109  0.00  0.00    -0.021 A 
ATOM      4  C   UNL     1       0.398  -0.834 -10.082  0.00  0.00    +0.008 A 
ATOM      5  C   UNL     1       0.188  -0.543 -11.412  0.00  0.00    +0.003 A 
ATOM      6  C   UNL     1      -0.258   0.713 -11.788  0.00  0.00    +0.033 A 
ATOM      7  C   UNL     1      -0.496   1.685 -10.832  0.00  0.00    +0.127 A 
ATOM      8  C   UNL     1      -0.295   1.408  -9.496  0.00  0.00    +0.040 A 
BRANCH   7   9
ATOM      9  N   UNL     1      -0.972   3.025 -11.245  0.00  0.00    +0.056 N 
ATOM     10  O   UNL     1      -1.152   3.268 -12.415  0.00  0.00    -0.126 OA
ATOM     11  O   UNL     1      -1.180   3.875 -10.411  0.00  0.00    -0.126 OA
ENDBRANCH   7   9
ENDBRANCH   2   3
BRANCH   1  13
ATOM     12  N   UNL     1       0.572  -0.922  -4.978  0.00  0.00    -0.310 N 
ATOM     13  C   UNL     1       1.248  -1.611  -5.919  0.00  0.00    +0.258 C 
ATOM     14  O   UNL     1       1.939  -2.559  -5.599  0.00  0.00    -0.269 OA
ATOM     15  H   UNL     1       0.021  -0.165  -5.232  0.00  0.00    +0.149 HD
BRANCH  12  16
ATOM     16  C   UNL     1       0.670  -1.317  -3.570  0.00  0.00    +0.109 C 
BRANCH  16  17
ATOM     17  C   UNL     1      -0.187  -0.379  -2.717  0.00  0.00    +0.052 C 
BRANCH  17  20
ATOM     18  C   UNL     1      -0.325   1.329   0.034  0.00  0.00    +0.035 C 
ATOM     19  C   UNL     1      -0.773  -0.129  -0.092  0.00  0.00    +0.103 C 
ATOM     20  C   UNL     1      -0.087  -0.785  -1.270  0.00  0.00    -0.037 C 
ATOM     21  C   UNL     1       0.634  -1.809  -0.760  0.00  0.00    -0.001 A 
ATOM     22  C   UNL     1       1.508  -2.814  -1.378  0.00  0.00    +0.010 A 
ATOM     23  C   UNL     1       2.107  -3.736  -0.590  0.00  0.00    +0.001 A 
ATOM     24  C   UNL     1       1.915  -3.755   0.798  0.00  0.00    +0.002 A 
ATOM     25  C   UNL     1       1.128  -2.865   1.438  0.00  0.00    +0.026 A 
ATOM     26  C   UNL     1       0.448  -1.851   0.708  0.00  0.00    +0.043 A 
ATOM     27  N   UNL     1      -0.358  -0.890   1.092  0.00  0.00    -0.378 N 
ATOM     28  H   UNL     1      -0.634  -0.711   2.005  0.00  0.00    +0.160 HD
ENDBRANCH  17  20
ENDBRANCH  16  17
ENDBRANCH  12  16
ENDBRANCH   1  13
BRANCH   1  29
ATOM     29  N   UNL     1       1.852  -1.929  -8.308  0.00  0.00    -0.277 N 
ATOM     30  C   UNL     1       1.651  -3.254  -8.447  0.00  0.00    +0.248 C 
ATOM     31  O   UNL     1       0.946  -3.849  -7.656  0.00  0.00    -0.270 OA
ATOM     32  H   UNL     1       2.482  -1.470  -8.885  0.00  0.00    +0.155 HD
BRANCH  30  33
ATOM     33  C   UNL     1       2.290  -3.985  -9.562  0.00  0.00    +0.037 A 
ATOM     34  C   UNL     1       3.193  -3.331 -10.403  0.00  0.00    +0.013 A 
ATOM     35  C   UNL     1       3.785  -4.019 -11.441  0.00  0.00    +0.005 A 
ATOM     36  C   UNL     1       3.486  -5.354 -11.650  0.00  0.00    -0.042 A 
ATOM     37  C   UNL     1       2.592  -6.008 -10.821  0.00  0.00    +0.005 A 
ATOM     38  C   UNL     1       1.997  -5.333  -9.776  0.00  0.00    +0.013 A 
BRANCH  36  39
ATOM     39  C   UNL     1       4.137  -6.099 -12.787  0.00  0.00    -0.013 C 
ATOM     40  C   UNL     1       5.656  -6.083 -12.605  0.00  0.00    +0.015 C 
ATOM     41  C   UNL     1       3.641  -7.546 -12.799  0.00  0.00    +0.015 C 
ATOM     42  C   UNL     1       3.776  -5.425 -14.112  0.00  0.00    +0.015 C 
ENDBRANCH  36  39
ENDBRANCH  30  33
ENDBRANCH   1  29
TORSDOF 9
