REMARK  Name = ZINC16032929
REMARK  6 active torsions:
REMARK  status: ('A' for Active; 'I' for Inactive)
REMARK    1  A    between atoms: C_1  and  C_2
REMARK    2  A    between atoms: C_2  and  C_4
REMARK    3  A    between atoms: C_2  and  O_35
REMARK    4  A    between atoms: N_12  and  C_15
REMARK    5  A    between atoms: C_15  and  C_16
REMARK    6  A    between atoms: C_16  and  C_17
REMARK                            x       y       z     vdW  Elec       q    Type
REMARK                         _______ _______ _______ _____ _____    ______ ____
ROOT
ATOM      1  C   UNL     1       0.718  -0.497  -1.257  0.00  0.00    +0.096 C 
ATOM      2  C   UNL     1       0.718  -2.040  -1.305  0.00  0.00    +0.109 C 
ATOM      3  C   UNL     1       0.516  -2.393  -2.805  0.00  0.00    +0.122 C 
ATOM      4  C   UNL     1      -0.830  -3.083  -2.822  0.00  0.00    +0.228 C 
ATOM      5  O   UNL     1      -1.373  -3.533  -3.807  0.00  0.00    -0.275 OA
ATOM      6  N   UNL     1      -1.327  -3.119  -1.580  0.00  0.00    -0.241 N 
ATOM      7  C   UNL     1      -0.534  -2.560  -0.637  0.00  0.00    +0.227 C 
ATOM      8  O   UNL     1      -0.780  -2.483   0.548  0.00  0.00    -0.275 OA
ATOM      9  C   UNL     1       0.423  -1.034  -3.511  0.00  0.00    +0.136 C 
ATOM     10  N   UNL     1      -0.025  -0.075  -2.474  0.00  0.00    -0.293 NA
ATOM     11  C   UNL     1       1.738  -0.641  -4.123  0.00  0.00    +0.005 A 
ATOM     12  C   UNL     1       2.998  -0.433  -3.608  0.00  0.00    +0.027 A 
ATOM     13  C   UNL     1       4.037  -0.069  -4.447  0.00  0.00    +0.041 A 
ATOM     14  C   UNL     1       3.806   0.084  -5.803  0.00  0.00    +0.022 A 
ATOM     15  C   UNL     1       2.544  -0.123  -6.321  0.00  0.00    +0.025 A 
ATOM     16  C   UNL     1       1.493  -0.488  -5.484  0.00  0.00    +0.039 A 
ATOM     17  N   UNL     1       0.149  -0.748  -5.766  0.00  0.00    -0.283 N 
ATOM     18  C   UNL     1      -0.547  -1.075  -4.660  0.00  0.00    +0.243 C 
ATOM     19  O   UNL     1      -1.727  -1.351  -4.602  0.00  0.00    -0.273 OA
ATOM     20 CL   UNL     1       5.626   0.194  -3.800  0.00  0.00    -0.084 Cl
ATOM     21  H   UNL     1      -1.021  -0.127  -2.326  0.00  0.00    +0.124 HD
ATOM     22  H   UNL     1      -0.237  -0.698  -6.654  0.00  0.00    +0.155 HD
ENDROOT
BRANCH   1  24
ATOM     23  C   UNL     1       0.853  -0.327   1.232  0.00  0.00    +0.039 C 
ATOM     24  C   UNL     1       0.002  -0.004   0.002  0.00  0.00    +0.129 C 
BRANCH  24  25
ATOM     25  O   UNL     1      -0.194   1.409  -0.084  0.00  0.00    -0.390 OA
ATOM     26  H   UNL     1      -0.643   1.791   0.682  0.00  0.00    +0.210 HD
ENDBRANCH  24  25
ENDBRANCH   1  24
BRANCH   6  27
ATOM     27  C   UNL     1      -2.624  -3.721  -1.264  0.00  0.00    +0.121 C 
BRANCH  27  28
ATOM     28  C   UNL     1      -2.432  -5.202  -0.932  0.00  0.00    +0.054 C 
BRANCH  28  29
ATOM     29  C   UNL     1      -3.766  -5.822  -0.606  0.00  0.00    -0.046 A 
ATOM     30  C   UNL     1      -4.228  -5.822   0.697  0.00  0.00    +0.004 A 
ATOM     31  C   UNL     1      -5.452  -6.391   0.996  0.00  0.00    +0.000 A 
ATOM     32  C   UNL     1      -6.215  -6.957  -0.008  0.00  0.00    +0.000 A 
ATOM     33  C   UNL     1      -5.753  -6.956  -1.311  0.00  0.00    +0.000 A 
ATOM     34  C   UNL     1      -4.531  -6.384  -1.611  0.00  0.00    +0.004 A 
ENDBRANCH  28  29
ENDBRANCH  27  28
ENDBRANCH   6  27
TORSDOF 5
