REMARK  Name = ZINC59435885
REMARK  10 active torsions:
REMARK  status: ('A' for Active; 'I' for Inactive)
REMARK    1  A    between atoms: C_4  and  C_7
REMARK    2  A    between atoms: C_7  and  C_8
REMARK    3  A    between atoms: C_8  and  N_9
REMARK    4  A    between atoms: N_9  and  C_10
REMARK    5  A    between atoms: N_9  and  S_25
REMARK    6  A    between atoms: C_10  and  C_11
REMARK    7  A    between atoms: N_13  and  N_14
REMARK    8  A    between atoms: C_15  and  C_16
REMARK    9  A    between atoms: C_21  and  N_22
REMARK   10  A    between atoms: S_25  and  C_28
REMARK                            x       y       z     vdW  Elec       q    Type
REMARK                         _______ _______ _______ _____ _____    ______ ____
ROOT
ATOM      1  N   UNL     1       5.548  -1.850   1.416  0.00  0.00    -0.167 NA
ENDROOT
BRANCH   1   2
ATOM      2  S   UNL     1       5.619  -3.500   1.543  0.00  0.00    +0.061 S 
ATOM      3  O   UNL     1       6.849  -3.805   2.186  0.00  0.00    -0.153 OA
ATOM      4  O   UNL     1       4.364  -3.922   2.059  0.00  0.00    -0.153 OA
BRANCH   2   5
ATOM      5  C   UNL     1       5.733  -4.143  -0.094  0.00  0.00    +0.106 A 
ATOM      6  C   UNL     1       4.583  -4.447  -0.798  0.00  0.00    +0.030 A 
ATOM      7  C   UNL     1       4.671  -4.951  -2.082  0.00  0.00    +0.022 A 
ATOM      8  C   UNL     1       5.911  -5.153  -2.662  0.00  0.00    +0.041 A 
ATOM      9  C   UNL     1       7.062  -4.849  -1.956  0.00  0.00    +0.022 A 
ATOM     10  C   UNL     1       6.972  -4.339  -0.674  0.00  0.00    +0.030 A 
ATOM     11 CL   UNL     1       6.023  -5.788  -4.274  0.00  0.00    -0.084 Cl
ENDBRANCH   2   5
ENDBRANCH   1   2
BRANCH   1  12
ATOM     12  C   UNL     1       4.250  -1.170   1.431  0.00  0.00    +0.114 C 
BRANCH  12  13
ATOM     13  C   UNL     1       3.781  -0.935  -0.006  0.00  0.00    +0.052 C 
BRANCH  13  17
ATOM     14  C   UNL     1      -0.002   1.049   0.036  0.00  0.00    +0.000 A 
ATOM     15  C   UNL     1       1.166   1.788   0.022  0.00  0.00    +0.000 A 
ATOM     16  C   UNL     1       2.390   1.146   0.009  0.00  0.00    +0.003 A 
ATOM     17  C   UNL     1       2.446  -0.235   0.010  0.00  0.00    -0.046 A 
ATOM     18  C   UNL     1       1.278  -0.974   0.025  0.00  0.00    +0.003 A 
ATOM     19  C   UNL     1       0.054  -0.332   0.037  0.00  0.00    +0.000 A 
ENDBRANCH  13  17
ENDBRANCH  12  13
ENDBRANCH   1  12
BRANCH   1  20
ATOM     20  C   UNL     1       6.782  -1.071   1.289  0.00  0.00    +0.206 C 
BRANCH  20  21
ATOM     21  C   UNL     1       7.214  -0.588   2.650  0.00  0.00    +0.248 C 
ATOM     22  O   UNL     1       6.555  -0.868   3.630  0.00  0.00    -0.273 OA
ATOM     23  N   UNL     1       8.332   0.154   2.778  0.00  0.00    -0.206 N 
ATOM     24  H   UNL     1       8.858   0.377   1.995  0.00  0.00    +0.177 HD
BRANCH  23  25
ATOM     25  N   UNL     1       8.733   0.603   4.043  0.00  0.00    -0.188 NA
ATOM     26  C   UNL     1       9.809   1.317   4.167  0.00  0.00    +0.140 C 
BRANCH  26  27
ATOM     27  C   UNL     1      10.231   1.789   5.499  0.00  0.00    +0.025 A 
ATOM     28  C   UNL     1       9.414   1.575   6.612  0.00  0.00    +0.012 A 
ATOM     29  C   UNL     1       9.815   2.019   7.854  0.00  0.00    +0.001 A 
ATOM     30  C   UNL     1      11.024   2.677   8.000  0.00  0.00    +0.002 A 
ATOM     31  C   UNL     1      11.839   2.893   6.902  0.00  0.00    +0.033 A 
ATOM     32  C   UNL     1      11.453   2.448   5.655  0.00  0.00    +0.135 A 
BRANCH  32  33
ATOM     33  N   UNL     1      12.329   2.674   4.483  0.00  0.00    +0.057 N 
ATOM     34  O   UNL     1      13.431   3.146   4.634  0.00  0.00    -0.126 OA
ATOM     35  O   UNL     1      11.941   2.387   3.374  0.00  0.00    -0.126 OA
ENDBRANCH  32  33
ENDBRANCH  26  27
ENDBRANCH  23  25
ENDBRANCH  20  21
ENDBRANCH   1  20
TORSDOF 10
