REMARK  Name = ZINC00887309
REMARK  10 active torsions:
REMARK  status: ('A' for Active; 'I' for Inactive)
REMARK    1  A    between atoms: C_1  and  C_2
REMARK    2  A    between atoms: C_2  and  C_3
REMARK    3  A    between atoms: C_6  and  N_9
REMARK    4  A    between atoms: N_9  and  C_10
REMARK    5  A    between atoms: C_10  and  C_12
REMARK    6  A    between atoms: C_10  and  C_17
REMARK    7  A    between atoms: N_19  and  C_20
REMARK    8  A    between atoms: C_25  and  C_27
REMARK    9  A    between atoms: C_27  and  N_28
REMARK   10  A    between atoms: C_30  and  C_33
REMARK                            x       y       z     vdW  Elec       q    Type
REMARK                         _______ _______ _______ _____ _____    ______ ____
ROOT
ATOM      1  N   UNL     1      -2.009   3.203   4.332  0.00  0.00    -0.253 N 
ATOM      2  C   UNL     1      -2.676   2.032   4.309  0.00  0.00    +0.244 C 
ATOM      3  O   UNL     1      -2.396   1.191   3.482  0.00  0.00    -0.273 OA
ENDROOT
BRANCH   1   7
ATOM      4  C   UNL     1       0.822   4.045   1.394  0.00  0.00    -0.048 A 
ATOM      5  C   UNL     1       0.476   5.015   2.317  0.00  0.00    +0.005 A 
ATOM      6  C   UNL     1      -0.466   4.741   3.289  0.00  0.00    +0.024 A 
ATOM      7  C   UNL     1      -1.058   3.486   3.345  0.00  0.00    +0.038 A 
ATOM      8  C   UNL     1      -0.704   2.513   2.420  0.00  0.00    +0.024 A 
ATOM      9  C   UNL     1       0.234   2.795   1.448  0.00  0.00    +0.005 A 
BRANCH   4  11
ATOM     10  C   UNL     1       1.145   4.908  -0.908  0.00  0.00    +0.009 C 
ATOM     11  C   UNL     1       1.847   4.350   0.332  0.00  0.00    +0.032 C 
ENDBRANCH   4  11
ENDBRANCH   1   7
BRANCH   1  12
ATOM     12  C   UNL     1      -2.279   4.179   5.391  0.00  0.00    +0.204 C 
BRANCH  12  13
ATOM     13  C   UNL     1      -2.907   5.410   4.791  0.00  0.00    +0.019 A 
ATOM     14  C   UNL     1      -3.605   6.398   5.403  0.00  0.00    +0.013 A 
ATOM     15  C   UNL     1      -4.091   7.445   4.644  0.00  0.00    +0.008 A 
ATOM     16  C   UNL     1      -3.865   7.449   3.308  0.00  0.00    +0.045 A 
ATOM     17  S   UNL     1      -2.932   5.943   3.087  0.00  0.00    -0.099 S 
ENDBRANCH  12  13
BRANCH  12  18
ATOM     18  C   UNL     1      -0.986   4.555   6.069  0.00  0.00    +0.239 C 
ATOM     19  O   UNL     1       0.064   4.103   5.665  0.00  0.00    -0.273 OA
ATOM     20  N   UNL     1      -0.998   5.392   7.125  0.00  0.00    -0.311 N 
ATOM     21  H   UNL     1      -1.838   5.753   7.449  0.00  0.00    +0.149 HD
BRANCH  20  22
ATOM     22  C   UNL     1       0.258   5.757   7.785  0.00  0.00    +0.073 C 
ATOM     23  C   UNL     1       0.598   4.727   8.882  0.00  0.00    +0.022 C 
ATOM     24  C   UNL     1       1.218   5.575  10.020  0.00  0.00    +0.002 C 
ATOM     25  C   UNL     1       0.362   6.866   9.990  0.00  0.00    +0.002 C 
ATOM     26  C   UNL     1       0.108   7.117   8.489  0.00  0.00    +0.022 C 
ENDBRANCH  20  22
ENDBRANCH  12  18
ENDBRANCH   1  12
BRANCH   2  27
ATOM     27  C   UNL     1      -3.771   1.769   5.311  0.00  0.00    +0.264 C 
BRANCH  27  28
ATOM     28  N   UNL     1      -4.419   0.492   5.002  0.00  0.00    -0.154 N 
ATOM     29  N   UNL     1      -4.061  -0.656   5.465  0.00  0.00    -0.129 NA
ATOM     30  C   UNL     1      -4.877  -1.565   4.966  0.00  0.00    +0.211 A 
ATOM     31  N   UNL     1      -5.745  -0.910   4.179  0.00  0.00    -0.107 NA
ATOM     32  N   UNL     1      -5.438   0.342   4.230  0.00  0.00    -0.045 NA
BRANCH  30  33
ATOM     33  C   UNL     1      -4.843  -3.021   5.223  0.00  0.00    +0.060 A 
ATOM     34  C   UNL     1      -5.665  -4.002   4.738  0.00  0.00    +0.019 A 
ATOM     35  C   UNL     1      -5.435  -5.307   5.117  0.00  0.00    +0.008 A 
ATOM     36  C   UNL     1      -4.411  -5.578   5.966  0.00  0.00    +0.046 A 
ATOM     37  S   UNL     1      -3.723  -3.956   6.253  0.00  0.00    -0.093 S 
ENDBRANCH  30  33
ENDBRANCH  27  28
ENDBRANCH   2  27
TORSDOF 9
