REMARK  Name = ZINC14019234
REMARK  6 active torsions:
REMARK  status: ('A' for Active; 'I' for Inactive)
REMARK    1  A    between atoms: C_4  and  C_7
REMARK    2  A    between atoms: C_9  and  C_13
REMARK    3  A    between atoms: C_10  and  N_12
REMARK    4  A    between atoms: N_15  and  N_16
REMARK    5  A    between atoms: C_17  and  C_19
REMARK    6  A    between atoms: C_20  and  C_21
REMARK                            x       y       z     vdW  Elec       q    Type
REMARK                         _______ _______ _______ _____ _____    ______ ____
ROOT
ATOM      1  C   UNL     1       1.845  -1.682  -0.024  0.00  0.00    +0.262 C 
ATOM      2  O   UNL     1       1.048  -2.602  -0.021  0.00  0.00    -0.269 OA
ATOM      3  N   UNL     1       3.168  -1.937  -0.038  0.00  0.00    -0.230 N 
ATOM      4  H   UNL     1       3.803  -1.204  -0.040  0.00  0.00    +0.173 HD
ENDROOT
BRANCH   1   7
ATOM      5  C   UNL     1       1.735   2.033  -0.004  0.00  0.00    +0.022 A 
ATOM      6  C   UNL     1       2.257   0.777  -0.015  0.00  0.00    +0.031 A 
ATOM      7  C   UNL     1       1.366  -0.297  -0.013  0.00  0.00    +0.067 A 
ATOM      8  C   UNL     1       0.002  -0.004   0.002  0.00  0.00    +0.076 A 
ATOM      9  S   UNL     1      -0.021   1.729   0.011  0.00  0.00    -0.073 S 
BRANCH   5  13
ATOM     10  C   UNL     1       3.781   5.755  -0.002  0.00  0.00    +0.000 A 
ATOM     11  C   UNL     1       2.397   5.729   0.011  0.00  0.00    +0.001 A 
ATOM     12  C   UNL     1       1.726   4.524   0.010  0.00  0.00    +0.009 A 
ATOM     13  C   UNL     1       2.447   3.328  -0.003  0.00  0.00    -0.011 A 
ATOM     14  C   UNL     1       3.842   3.361  -0.011  0.00  0.00    +0.009 A 
ATOM     15  C   UNL     1       4.500   4.573  -0.016  0.00  0.00    +0.001 A 
ENDBRANCH   5  13
BRANCH   8  16
ATOM     16  N   UNL     1      -1.065  -0.879   0.007  0.00  0.00    -0.352 N 
ATOM     17  H   UNL     1      -1.973  -0.536   0.018  0.00  0.00    +0.143 HD
ATOM     18  H   UNL     1      -0.908  -1.836   0.000  0.00  0.00    +0.143 HD
ENDBRANCH   8  16
ENDBRANCH   1   7
BRANCH   3  19
ATOM     19  N   UNL     1       3.626  -3.261  -0.049  0.00  0.00    -0.231 N 
ATOM     20  C   UNL     1       4.950  -3.516  -0.062  0.00  0.00    +0.253 C 
ATOM     21  O   UNL     1       5.747  -2.595  -0.065  0.00  0.00    -0.269 OA
ATOM     22  H   UNL     1       2.991  -3.994  -0.047  0.00  0.00    +0.173 HD
BRANCH  20  23
ATOM     23  C   UNL     1       5.412  -4.853  -0.073  0.00  0.00    +0.072 C 
ATOM     24  C   UNL     1       6.744  -5.110  -0.087  0.00  0.00    +0.051 C 
BRANCH  24  25
ATOM     25  C   UNL     1       7.207  -6.448  -0.098  0.00  0.00    +0.128 A 
ATOM     26  C   UNL     1       8.526  -6.852  -0.118  0.00  0.00    +0.049 A 
ATOM     27  C   UNL     1       8.514  -8.255  -0.119  0.00  0.00    +0.042 A 
ATOM     28  C   UNL     1       7.220  -8.644  -0.110  0.00  0.00    +0.195 A 
ATOM     29  O   UNL     1       6.437  -7.556  -0.097  0.00  0.00    -0.464 OA
ENDBRANCH  24  25
ENDBRANCH  20  23
ENDBRANCH   3  19
TORSDOF 6
