REMARK  Name = ZINC35769402
REMARK  10 active torsions:
REMARK  status: ('A' for Active; 'I' for Inactive)
REMARK    1  A    between atoms: C_1  and  C_2
REMARK    2  A    between atoms: C_2  and  C_3
REMARK    3  A    between atoms: C_3  and  C_4
REMARK    4  A    between atoms: C_4  and  N_5
REMARK    5  A    between atoms: C_16  and  C_24
REMARK    6  A    between atoms: C_17  and  C_22
REMARK    7  A    between atoms: C_19  and  C_21
REMARK    8  A    between atoms: C_22  and  C_23
REMARK    9  A    between atoms: C_24  and  C_25
REMARK   10  A    between atoms: C_28  and  C_31
REMARK                            x       y       z     vdW  Elec       q    Type
REMARK                         _______ _______ _______ _____ _____    ______ ____
ROOT
ATOM      1  N   UNL     1      -3.810  -6.822   5.124  0.00  0.00    -0.299 N 
ATOM      2  C   UNL     1      -3.907  -6.736   3.782  0.00  0.00    +0.302 C 
ATOM      3  O   UNL     1      -2.926  -6.920   3.089  0.00  0.00    -0.253 OA
ATOM      4  N   UNL     1      -5.092  -6.446   3.210  0.00  0.00    -0.284 N 
ATOM      5  C   UNL     1      -6.213  -6.119   4.091  0.00  0.00    +0.111 C 
ATOM      6  C   UNL     1      -6.322  -4.610   4.170  0.00  0.00    +0.038 C 
ATOM      7  C   UNL     1      -7.180  -4.077   3.020  0.00  0.00    +0.108 C 
ATOM      8  N   UNL     1      -6.900  -4.755   1.745  0.00  0.00    -0.313 N 
ATOM      9  C   UNL     1      -5.557  -5.064   1.285  0.00  0.00    +0.125 C 
ATOM     10  C   UNL     1      -5.166  -6.475   1.790  0.00  0.00    +0.128 C 
ATOM     11  C   UNL     1      -7.970  -5.118   0.944  0.00  0.00    +0.129 A 
ATOM     12  C   UNL     1      -8.579  -4.181   0.106  0.00  0.00    +0.018 A 
ATOM     13  C   UNL     1      -9.642  -4.593  -0.673  0.00  0.00    +0.050 A 
ATOM     14  N   UNL     1     -10.047  -5.853  -0.602  0.00  0.00    -0.237 NA
ATOM     15  C   UNL     1      -9.451  -6.713   0.199  0.00  0.00    +0.128 A 
ATOM     16  N   UNL     1      -8.430  -6.366   0.956  0.00  0.00    -0.217 NA
ATOM     17  C   UNL     1      -9.948  -8.135   0.246  0.00  0.00    +0.088 C 
ATOM     18  H   UNL     1      -4.575  -6.606   5.680  0.00  0.00    +0.150 HD
ENDROOT
BRANCH  13  19
ATOM     19  C   UNL     1     -10.334  -3.620  -1.593  0.00  0.00    +0.052 C 
ATOM     20  C   UNL     1      -9.811  -3.807  -3.019  0.00  0.00    +0.010 C 
ENDBRANCH  13  19
BRANCH   1  21
ATOM     21  C   UNL     1      -2.549  -7.240   5.742  0.00  0.00    +0.106 C 
BRANCH  21  22
ATOM     22  C   UNL     1      -2.707  -7.253   7.263  0.00  0.00    +0.018 C 
BRANCH  22  24
ATOM     23  C   UNL     1      -1.548  -7.704   9.431  0.00  0.00    +0.004 C 
ATOM     24  C   UNL     1      -1.390  -7.690   7.909  0.00  0.00    -0.002 C 
ENDBRANCH  22  24
ENDBRANCH  21  22
ENDBRANCH   1  21
BRANCH  12  25
ATOM     25  C   UNL     1      -8.089  -2.757   0.054  0.00  0.00    +0.075 C 
BRANCH  25  26
ATOM     26  C   UNL     1      -7.124  -2.600  -1.093  0.00  0.00    -0.043 A 
ATOM     27  C   UNL     1      -5.802  -2.973  -0.940  0.00  0.00    +0.004 A 
ATOM     28  C   UNL     1      -4.917  -2.829  -1.992  0.00  0.00    +0.003 A 
ATOM     29  C   UNL     1      -5.354  -2.311  -3.197  0.00  0.00    -0.050 A 
ATOM     30  C   UNL     1      -6.676  -1.938  -3.350  0.00  0.00    +0.003 A 
ATOM     31  C   UNL     1      -7.562  -2.087  -2.299  0.00  0.00    +0.004 A 
ATOM     32  C   UNL     1      -4.389  -2.153  -4.343  0.00  0.00    +0.044 C 
ENDBRANCH  25  26
ENDBRANCH  12  25
TORSDOF 6
