REMARK  Name = ZINC58178814
REMARK  12 active torsions:
REMARK  status: ('A' for Active; 'I' for Inactive)
REMARK    1  A    between atoms: C_1  and  N_2
REMARK    2  A    between atoms: N_5  and  C_8
REMARK    3  A    between atoms: C_8  and  C_9
REMARK    4  A    between atoms: C_9  and  C_11
REMARK    5  A    between atoms: C_9  and  N_19
REMARK    6  A    between atoms: C_14  and  O_17
REMARK    7  A    between atoms: O_17  and  C_18
REMARK    8  A    between atoms: C_20  and  C_22
REMARK    9  A    between atoms: C_22  and  C_23
REMARK   10  A    between atoms: C_23  and  C_24
REMARK   11  A    between atoms: C_24  and  C_25
REMARK   12  A    between atoms: C_27  and  C_30
REMARK                            x       y       z     vdW  Elec       q    Type
REMARK                         _______ _______ _______ _____ _____    ______ ____
ROOT
ATOM      1  N   UNL     1       3.685  -3.791   0.949  0.00  0.00    -0.307 N 
ATOM      2  C   UNL     1       4.476  -3.631   2.028  0.00  0.00    +0.214 C 
ATOM      3  O   UNL     1       4.109  -4.026   3.114  0.00  0.00    -0.276 OA
ATOM      4  H   UNL     1       3.979  -3.475   0.081  0.00  0.00    +0.149 HD
ENDROOT
BRANCH   1   5
ATOM      5  C   UNL     1       2.381  -4.444   1.088  0.00  0.00    +0.117 C 
BRANCH   5   6
ATOM      6  C   UNL     1       2.555  -5.938   1.004  0.00  0.00    -0.026 A 
ATOM      7  C   UNL     1       3.446  -6.479   0.095  0.00  0.00    +0.009 A 
ATOM      8  C   UNL     1       3.607  -7.848   0.015  0.00  0.00    +0.046 A 
ATOM      9  C   UNL     1       2.875  -8.682   0.847  0.00  0.00    +0.120 A 
ATOM     10  C   UNL     1       1.982  -8.137   1.759  0.00  0.00    +0.046 A 
ATOM     11  C   UNL     1       1.828  -6.766   1.839  0.00  0.00    +0.009 A 
BRANCH   9  12
ATOM     12  O   UNL     1       3.031 -10.030   0.770  0.00  0.00    -0.495 OA
ATOM     13  C   UNL     1       2.245 -10.826   1.658  0.00  0.00    +0.277 C 
ENDBRANCH   9  12
ENDBRANCH   5   6
BRANCH   5  14
ATOM     14  C   UNL     1       1.453  -3.974  -0.034  0.00  0.00    +0.111 C 
BRANCH  14  19
ATOM     15  C   UNL     1      -0.018   1.465   0.010  0.00  0.00    -0.096 C 
ATOM     16  N   UNL     1       0.002  -0.004   0.002  0.00  0.00    +0.379 N 
ATOM     17  C   UNL     1       0.688  -0.477  -1.207  0.00  0.00    -0.064 C 
ATOM     18  C   UNL     1       0.693  -2.008  -1.226  0.00  0.00    +0.066 C 
ATOM     19  N   UNL     1       1.378  -2.507  -0.025  0.00  0.00    -0.304 NA
ATOM     20  C   UNL     1       0.717  -2.021   1.194  0.00  0.00    +0.066 C 
ATOM     21  C   UNL     1       0.713  -0.490   1.192  0.00  0.00    -0.064 C 
ATOM     22  H   UNL     1      -0.945  -0.353   0.010  0.00  0.00    -0.082 HD
ENDBRANCH  14  19
ENDBRANCH   5  14
ENDBRANCH   1   5
BRANCH   2  23
ATOM     23  C   UNL     1       5.818  -2.959   1.885  0.00  0.00    +0.096 C 
BRANCH  23  24
ATOM     24  C   UNL     1       6.509  -2.904   3.250  0.00  0.00    +0.019 C 
BRANCH  24  25
ATOM     25  C   UNL     1       7.871  -2.223   3.104  0.00  0.00    +0.099 C 
BRANCH  25  26
ATOM     26  C   UNL     1       8.551  -2.169   4.448  0.00  0.00    +0.228 A 
ATOM     27  N   UNL     1       9.348  -3.077   4.935  0.00  0.00    -0.191 NA
ATOM     28  C   UNL     1       9.776  -2.708   6.155  0.00  0.00    +0.202 A 
ATOM     29  N   UNL     1       9.245  -1.547   6.452  0.00  0.00    -0.056 NA
ATOM     30  O   UNL     1       8.443  -1.176   5.340  0.00  0.00    -0.338 OA
BRANCH  28  31
ATOM     31  C   UNL     1      10.697  -3.485   7.022  0.00  0.00    +0.023 A 
ATOM     32  C   UNL     1      11.199  -4.710   6.586  0.00  0.00    +0.014 A 
ATOM     33  C   UNL     1      12.055  -5.429   7.394  0.00  0.00    +0.039 A 
ATOM     34  C   UNL     1      12.415  -4.935   8.638  0.00  0.00    +0.123 A 
ATOM     35  C   UNL     1      11.917  -3.718   9.076  0.00  0.00    +0.039 A 
ATOM     36  C   UNL     1      11.065  -2.990   8.271  0.00  0.00    +0.014 A 
ATOM     37  F   UNL     1      13.253  -5.643   9.427  0.00  0.00    -0.205 F 
ENDBRANCH  28  31
ENDBRANCH  25  26
ENDBRANCH  24  25
ENDBRANCH  23  24
ENDBRANCH   2  23
TORSDOF 10
