REMARK  Name = ZINC06244514
REMARK  4 active torsions:
REMARK  status: ('A' for Active; 'I' for Inactive)
REMARK    1  A    between atoms: C_4  and  C_7
REMARK    2  A    between atoms: C_10  and  S_12
REMARK    3  A    between atoms: S_12  and  C_15
REMARK    4  A    between atoms: C_21  and  N_26
REMARK                            x       y       z     vdW  Elec       q    Type
REMARK                         _______ _______ _______ _____ _____    ______ ____
ROOT
ATOM      1  C   UNL     1       4.424   2.171   1.654  0.00  0.00    +0.097 A 
ATOM      2  C   UNL     1       5.061   1.114   2.298  0.00  0.00    +0.029 A 
ATOM      3  C   UNL     1       5.462   1.222   3.596  0.00  0.00    +0.030 A 
ATOM      4  C   UNL     1       5.231   2.415   4.295  0.00  0.00    +0.078 A 
ATOM      5  C   UNL     1       4.583   3.489   3.638  0.00  0.00    +0.042 A 
ATOM      6  C   UNL     1       4.189   3.348   2.303  0.00  0.00    +0.041 A 
ATOM      7  C   UNL     1       4.360   4.685   4.364  0.00  0.00    +0.129 A 
ATOM      8  N   UNL     1       4.769   4.741   5.624  0.00  0.00    -0.199 NA
ATOM      9  C   UNL     1       5.374   3.708   6.203  0.00  0.00    +0.215 A 
ATOM     10  N   UNL     1       5.606   2.572   5.573  0.00  0.00    -0.215 NA
ATOM     11  N   UNL     1       5.776   3.829   7.521  0.00  0.00    -0.327 N 
ATOM     12  H   UNL     1       6.218   3.088   7.963  0.00  0.00    +0.145 HD
ATOM     13  H   UNL     1       5.615   4.656   8.003  0.00  0.00    +0.145 HD
ENDROOT
BRANCH   1  14
ATOM     14  S   UNL     1       3.922   1.990  -0.025  0.00  0.00    +0.049 S 
ATOM     15  O   UNL     1       4.749   0.981  -0.590  0.00  0.00    -0.162 OA
ATOM     16  O   UNL     1       3.841   3.301  -0.569  0.00  0.00    -0.162 OA
BRANCH  14  20
ATOM     17  C   UNL     1      -0.017   1.365   0.009  0.00  0.00    +0.080 A 
ATOM     18  C   UNL     1       0.002  -0.004   0.002  0.00  0.00    +0.077 A 
ATOM     19  S   UNL     1       1.763  -0.309  -0.016  0.00  0.00    -0.056 S 
ATOM     20  C   UNL     1       2.282   1.348  -0.013  0.00  0.00    +0.221 A 
ATOM     21  N   UNL     1       1.145   2.000   0.002  0.00  0.00    -0.222 NA
BRANCH  17  25
ATOM     22  C   UNL     1      -3.689   3.508   0.038  0.00  0.00    +0.000 A 
ATOM     23  C   UNL     1      -2.489   4.197   0.037  0.00  0.00    +0.001 A 
ATOM     24  C   UNL     1      -1.294   3.506   0.027  0.00  0.00    +0.010 A 
ATOM     25  C   UNL     1      -1.298   2.113   0.020  0.00  0.00    +0.001 A 
ATOM     26  C   UNL     1      -2.509   1.424   0.016  0.00  0.00    +0.010 A 
ATOM     27  C   UNL     1      -3.698   2.125   0.031  0.00  0.00    +0.001 A 
ENDBRANCH  17  25
ENDBRANCH  14  20
ENDBRANCH   1  14
BRANCH   7  28
ATOM     28  N   UNL     1       3.734   5.763   3.776  0.00  0.00    -0.343 N 
ATOM     29  H   UNL     1       3.587   6.576   4.285  0.00  0.00    +0.144 HD
ATOM     30  H   UNL     1       3.440   5.709   2.853  0.00  0.00    +0.144 HD
ENDBRANCH   7  28
TORSDOF 4
