REMARK  Name = ZINC11217717
REMARK  13 active torsions:
REMARK  status: ('A' for Active; 'I' for Inactive)
REMARK    1  A    between atoms: C_1  and  C_2
REMARK    2  A    between atoms: C_2  and  C_4
REMARK    3  A    between atoms: C_2  and  N_71
REMARK    4  A    between atoms: C_7  and  S_15
REMARK    5  A    between atoms: N_8  and  C_9
REMARK    6  A    between atoms: S_15  and  C_16
REMARK    7  A    between atoms: C_16  and  C_17
REMARK    8  A    between atoms: N_19  and  C_20
REMARK    9  A    between atoms: C_20  and  C_21
REMARK   10  A    between atoms: C_21  and  C_22
REMARK   11  A    between atoms: C_22  and  N_23
REMARK   12  A    between atoms: N_23  and  C_24
REMARK   13  A    between atoms: N_23  and  C_25
REMARK                            x       y       z     vdW  Elec       q    Type
REMARK                         _______ _______ _______ _____ _____    ______ ____
ROOT
ATOM      1  C   UNL     1      -0.731   2.002  -1.204  0.00  0.00    +0.125 A 
ATOM      2  N   UNL     1      -1.904   1.636  -1.636  0.00  0.00    -0.135 NA
ATOM      3  N   UNL     1      -2.212   2.296  -2.695  0.00  0.00    -0.122 NA
ATOM      4  C   UNL     1      -1.243   3.127  -3.002  0.00  0.00    +0.197 A 
ATOM      5  N   UNL     1      -0.267   2.970  -2.056  0.00  0.00    -0.275 N 
ENDROOT
BRANCH   5   6
ATOM      6  C   UNL     1       0.954   3.655  -1.976  0.00  0.00    +0.050 A 
ATOM      7  C   UNL     1       1.207   4.503  -0.906  0.00  0.00    +0.026 A 
ATOM      8  C   UNL     1       2.413   5.171  -0.828  0.00  0.00    +0.002 A 
ATOM      9  C   UNL     1       3.363   5.006  -1.819  0.00  0.00    +0.000 A 
ATOM     10  C   UNL     1       3.111   4.166  -2.888  0.00  0.00    +0.002 A 
ATOM     11  C   UNL     1       1.910   3.491  -2.969  0.00  0.00    +0.026 A 
ENDBRANCH   5   6
BRANCH   1  13
ATOM     12  C   UNL     1      -0.691   2.001   1.275  0.00  0.00    -0.005 C 
ATOM     13  C   UNL     1      -0.018   1.465   0.010  0.00  0.00    -0.002 C 
BRANCH  13  19
ATOM     14  C   UNL     1       0.630  -0.564   1.161  0.00  0.00    -0.078 C 
ATOM     15  C   UNL     1       0.420  -2.079   1.205  0.00  0.00    -0.019 C 
ATOM     16  C   UNL     1       0.946  -2.700  -0.092  0.00  0.00    -0.004 C 
ATOM     17  C   UNL     1       0.223  -2.064  -1.283  0.00  0.00    -0.019 C 
ATOM     18  C   UNL     1       0.438  -0.549  -1.254  0.00  0.00    -0.078 C 
ATOM     19  N   UNL     1      -0.111  -0.010   0.008  0.00  0.00    +0.386 N 
ATOM     20  H   UNL     1      -1.098  -0.282   0.085  0.00  0.00    -0.081 HD
ENDBRANCH  13  19
ENDBRANCH   1  13
BRANCH   4  21
ATOM     21  S   UNL     1      -1.208   4.238  -4.368  0.00  0.00    -0.076 S 
BRANCH  21  22
ATOM     22  C   UNL     1      -2.814   3.865  -5.117  0.00  0.00    +0.173 C 
BRANCH  22  23
ATOM     23  C   UNL     1      -3.009   4.724  -6.340  0.00  0.00    +0.223 C 
ATOM     24  O   UNL     1      -2.147   5.510  -6.673  0.00  0.00    -0.275 OA
ATOM     25  N   UNL     1      -4.141   4.617  -7.064  0.00  0.00    -0.315 N 
ATOM     26  H   UNL     1      -4.829   3.989  -6.798  0.00  0.00    +0.149 HD
BRANCH  25  27
ATOM     27  C   UNL     1      -4.330   5.452  -8.254  0.00  0.00    +0.106 C 
BRANCH  27  28
ATOM     28  C   UNL     1      -5.687   5.137  -8.886  0.00  0.00    +0.037 C 
BRANCH  28  29
ATOM     29  C   UNL     1      -5.885   6.008 -10.128  0.00  0.00    +0.106 C 
BRANCH  29  30
ATOM     30  N   UNL     1      -7.185   5.707 -10.734  0.00  0.00    -0.333 N 
ATOM     31  C   UNL     1      -7.292   4.659 -11.753  0.00  0.00    +0.129 C 
BRANCH  30  32
ATOM     32  C   UNL     1      -8.321   6.418 -10.341  0.00  0.00    +0.029 A 
ATOM     33  C   UNL     1      -8.221   7.407  -9.371  0.00  0.00    +0.023 A 
ATOM     34  C   UNL     1      -9.346   8.111  -8.988  0.00  0.00    +0.002 A 
ATOM     35  C   UNL     1     -10.572   7.825  -9.561  0.00  0.00    +0.000 A 
ATOM     36  C   UNL     1     -10.675   6.837 -10.523  0.00  0.00    +0.002 A 
ATOM     37  C   UNL     1      -9.553   6.133 -10.915  0.00  0.00    +0.023 A 
ENDBRANCH  30  32
ENDBRANCH  29  30
ENDBRANCH  28  29
ENDBRANCH  27  28
ENDBRANCH  25  27
ENDBRANCH  22  23
ENDBRANCH  21  22
ENDBRANCH   4  21
TORSDOF 11
