REMARK  Name = ZINC41003133
REMARK  15 active torsions:
REMARK  status: ('A' for Active; 'I' for Inactive)
REMARK    1  A    between atoms: C_1  and  C_2
REMARK    2  A    between atoms: C_2  and  C_3
REMARK    3  A    between atoms: C_3  and  C_4
REMARK    4  A    between atoms: C_4  and  O_5
REMARK    5  A    between atoms: O_5  and  C_6
REMARK    6  A    between atoms: C_11  and  C_12
REMARK    7  A    between atoms: C_14  and  C_26
REMARK    8  A    between atoms: C_15  and  C_25
REMARK    9  A    between atoms: C_20  and  S_22
REMARK   10  A    between atoms: S_22  and  C_23
REMARK   11  A    between atoms: C_23  and  C_24
REMARK   12  A    between atoms: C_26  and  O_28
REMARK   13  A    between atoms: O_28  and  C_29
REMARK   14  A    between atoms: C_29  and  C_30
REMARK   15  A    between atoms: C_29  and  C_31
REMARK                            x       y       z     vdW  Elec       q    Type
REMARK                         _______ _______ _______ _____ _____    ______ ____
ROOT
ATOM      1  C   UNL     1       2.749  -3.417   4.748  0.00  0.00    +0.183 C 
ATOM      2  C   UNL     1       4.250  -3.514   4.823  0.00  0.00    +0.082 C 
ATOM      3  C   UNL     1       4.893  -4.184   5.792  0.00  0.00    +0.020 C 
ATOM      4  N   UNL     1       4.225  -4.828   6.803  0.00  0.00    -0.287 N 
ATOM      5  C   UNL     1       2.873  -4.551   6.953  0.00  0.00    +0.219 A 
ATOM      6  N   UNL     1       2.168  -3.888   6.003  0.00  0.00    -0.220 N 
ATOM      7  N   UNL     1       0.862  -3.778   6.477  0.00  0.00    -0.141 NA
ATOM      8  C   UNL     1       0.836  -4.367   7.654  0.00  0.00    +0.210 A 
ATOM      9  N   UNL     1       2.061  -4.835   7.935  0.00  0.00    -0.187 NA
ATOM     10  C   UNL     1       6.399  -4.231   5.768  0.00  0.00    +0.061 C 
ATOM     11  H   UNL     1       4.679  -5.452   7.390  0.00  0.00    +0.155 HD
ENDROOT
BRANCH   1  17
ATOM     12  C   UNL     1       1.536  -3.687   2.571  0.00  0.00    +0.126 A 
ATOM     13  C   UNL     1       1.079  -4.472   1.522  0.00  0.00    +0.047 A 
ATOM     14  C   UNL     1       1.329  -5.831   1.518  0.00  0.00    +0.019 A 
ATOM     15  C   UNL     1       2.034  -6.409   2.559  0.00  0.00    +0.018 A 
ATOM     16  C   UNL     1       2.489  -5.628   3.606  0.00  0.00    +0.025 A 
ATOM     17  C   UNL     1       2.247  -4.268   3.611  0.00  0.00    +0.024 A 
ATOM     18 BR   UNL     1       2.374  -8.269   2.550  0.00  0.00    -0.050 Br
BRANCH  12  19
ATOM     19  O   UNL     1       1.291  -2.350   2.577  0.00  0.00    -0.492 OA
BRANCH  19  20
ATOM     20  C   UNL     1       0.553  -1.821   1.474  0.00  0.00    +0.229 C 
BRANCH  20  21
ATOM     21  C   UNL     1       0.378  -0.312   1.655  0.00  0.00    +0.041 C 
BRANCH  21  23
ATOM     22  C   UNL     1      -0.588   1.764   0.655  0.00  0.00    +0.004 C 
ATOM     23  C   UNL     1      -0.413   0.255   0.474  0.00  0.00    -0.000 C 
ENDBRANCH  21  23
ENDBRANCH  20  21
ENDBRANCH  19  20
ENDBRANCH  12  19
ENDBRANCH   1  17
BRANCH   2  24
ATOM     24  C   UNL     1       5.016  -2.870   3.827  0.00  0.00    +0.339 C 
ATOM     25  O   UNL     1       5.235  -1.675   3.904  0.00  0.00    -0.245 OA
BRANCH  24  26
ATOM     26  O   UNL     1       5.507  -3.579   2.788  0.00  0.00    -0.459 OA
BRANCH  26  27
ATOM     27  C   UNL     1       6.273  -2.864   1.818  0.00  0.00    +0.171 C 
ATOM     28  C   UNL     1       7.749  -2.877   2.222  0.00  0.00    +0.052 C 
ATOM     29  C   UNL     1       6.114  -3.530   0.450  0.00  0.00    +0.052 C 
ENDBRANCH  26  27
ENDBRANCH  24  26
ENDBRANCH   2  24
BRANCH   8  30
ATOM     30  S   UNL     1      -0.580  -4.515   8.692  0.00  0.00    -0.085 S 
BRANCH  30  31
ATOM     31  C   UNL     1       0.033  -5.414  10.144  0.00  0.00    +0.074 C 
ATOM     32  C   UNL     1      -1.111  -5.614  11.140  0.00  0.00    +0.016 C 
ENDBRANCH  30  31
ENDBRANCH   8  30
TORSDOF 10
