REMARK  Name = ZINC20289298
REMARK  9 active torsions:
REMARK  status: ('A' for Active; 'I' for Inactive)
REMARK    1  A    between atoms: C_1  and  C_2
REMARK    2  A    between atoms: C_2  and  C_4
REMARK    3  A    between atoms: C_2  and  N_25
REMARK    4  A    between atoms: C_4  and  C_6
REMARK    5  A    between atoms: C_4  and  N_11
REMARK    6  A    between atoms: N_14  and  C_17
REMARK    7  A    between atoms: C_20  and  O_23
REMARK    8  A    between atoms: O_23  and  C_24
REMARK    9  A    between atoms: C_26  and  C_28
REMARK                            x       y       z     vdW  Elec       q    Type
REMARK                         _______ _______ _______ _____ _____    ______ ____
ROOT
ATOM      1  C   UNL     1       0.458  -0.790  -1.276  0.00  0.00    +0.114 C 
ENDROOT
BRANCH   1   2
ATOM      2  N   UNL     1      -0.135  -0.152  -2.459  0.00  0.00    -0.290 NA
ATOM      3  C   UNL     1      -1.602  -0.143  -2.372  0.00  0.00    +0.102 C 
ATOM      4  C   UNL     1      -2.177   0.582  -3.591  0.00  0.00    +0.100 C 
ATOM      5  N   UNL     1      -1.746  -0.103  -4.817  0.00  0.00    -0.391 NA
ATOM      6  C   UNL     1      -0.280  -0.082  -4.901  0.00  0.00    +0.100 C 
ATOM      7  C   UNL     1       0.311  -0.812  -3.693  0.00  0.00    +0.102 C 
ATOM      8  H   UNL     1      -2.068  -1.059  -4.799  0.00  0.00    +0.126 HD
BRANCH   5   9
ATOM      9  C   UNL     1      -2.286   0.549  -5.929  0.00  0.00    +0.014 A 
ATOM     10  C   UNL     1      -1.980   1.876  -6.167  0.00  0.00    +0.025 A 
ATOM     11  C   UNL     1      -2.512   2.523  -7.266  0.00  0.00    +0.047 A 
ATOM     12  C   UNL     1      -3.355   1.839  -8.130  0.00  0.00    +0.120 A 
ATOM     13  C   UNL     1      -3.661   0.508  -7.889  0.00  0.00    +0.047 A 
ATOM     14  C   UNL     1      -3.121  -0.136  -6.793  0.00  0.00    +0.025 A 
BRANCH  12  15
ATOM     15  O   UNL     1      -3.881   2.474  -9.211  0.00  0.00    -0.495 OA
ATOM     16  C   UNL     1      -4.740   1.708 -10.058  0.00  0.00    +0.277 C 
ENDBRANCH  12  15
ENDBRANCH   5   9
ENDBRANCH   1   2
BRANCH   1  17
ATOM     17  C   UNL     1       1.960  -0.700  -1.357  0.00  0.00    +0.009 A 
ATOM     18  C   UNL     1       2.890  -1.631  -1.032  0.00  0.00    +0.013 A 
ATOM     19  C   UNL     1       4.229  -1.326  -1.191  0.00  0.00    +0.008 A 
ATOM     20  C   UNL     1       4.572  -0.104  -1.666  0.00  0.00    +0.045 A 
ATOM     21  S   UNL     1       2.977   0.658  -1.913  0.00  0.00    -0.100 S 
ENDBRANCH   1  17
BRANCH   1  23
ATOM     22  C   UNL     1       0.282   1.418  -0.120  0.00  0.00    +0.030 C 
ATOM     23  C   UNL     1      -0.028  -0.076  -0.013  0.00  0.00    +0.092 C 
BRANCH  23  24
ATOM     24  N   UNL     1       0.654  -0.634   1.157  0.00  0.00    -0.303 N 
ATOM     25  C   UNL     1       0.078  -0.559   2.373  0.00  0.00    +0.299 C 
ATOM     26  O   UNL     1      -1.007  -0.029   2.498  0.00  0.00    -0.265 OA
ATOM     27  H   UNL     1       1.521  -1.058   1.056  0.00  0.00    +0.149 HD
BRANCH  25  28
ATOM     28  C   UNL     1       0.774  -1.129   3.566  0.00  0.00    +0.301 C 
ATOM     29  O   UNL     1       1.909  -1.547   3.465  0.00  0.00    -0.265 OA
ATOM     30  N   UNL     1       0.142  -1.177   4.755  0.00  0.00    -0.294 N 
ATOM     31  C   UNL     1      -1.289  -0.857   4.857  0.00  0.00    +0.108 C 
ATOM     32  C   UNL     1      -2.006  -2.019   5.552  0.00  0.00    +0.019 C 
ATOM     33  C   UNL     1      -1.328  -2.301   6.895  0.00  0.00    +0.003 C 
ATOM     34  C   UNL     1       0.129  -2.705   6.658  0.00  0.00    +0.019 C 
ATOM     35  C   UNL     1       0.869  -1.557   5.975  0.00  0.00    +0.108 C 
ENDBRANCH  25  28
ENDBRANCH  23  24
ENDBRANCH   1  23
TORSDOF 7
