REMARK  Name = ZINC24142776
REMARK  13 active torsions:
REMARK  status: ('A' for Active; 'I' for Inactive)
REMARK    1  A    between atoms: C_1  and  C_2
REMARK    2  A    between atoms: C_2  and  N_3
REMARK    3  A    between atoms: C_4  and  C_26
REMARK    4  A    between atoms: C_7  and  S_8
REMARK    5  A    between atoms: S_8  and  C_9
REMARK    6  A    between atoms: C_9  and  C_10
REMARK    7  A    between atoms: N_12  and  C_13
REMARK    8  A    between atoms: N_17  and  C_19
REMARK    9  A    between atoms: C_19  and  C_20
REMARK   10  A    between atoms: C_29  and  C_32
REMARK   11  A    between atoms: C_32  and  C_33
REMARK   12  A    between atoms: C_32  and  C_34
REMARK   13  A    between atoms: C_32  and  C_35
REMARK                            x       y       z     vdW  Elec       q    Type
REMARK                         _______ _______ _______ _____ _____    ______ ____
ROOT
ATOM      1  S   UNL     1      -3.035   3.348  -0.307  0.00  0.00    -0.077 S 
ENDROOT
BRANCH   1   6
ATOM      2  N   UNL     1      -0.742   3.044   1.265  0.00  0.00    -0.302 N 
ATOM      3  C   UNL     1       0.141   3.884   1.904  0.00  0.00    +0.165 A 
ATOM      4  N   UNL     1      -0.251   5.113   1.660  0.00  0.00    -0.128 NA
ATOM      5  N   UNL     1      -1.309   5.099   0.930  0.00  0.00    -0.122 NA
ATOM      6  C   UNL     1      -1.654   3.860   0.659  0.00  0.00    +0.192 A 
BRANCH   3   7
ATOM      7  C   UNL     1       1.312   3.479   2.711  0.00  0.00    +0.019 A 
ATOM      8  C   UNL     1       1.883   4.375   3.616  0.00  0.00    +0.012 A 
ATOM      9  C   UNL     1       2.973   3.989   4.369  0.00  0.00    +0.005 A 
ATOM     10  C   UNL     1       3.506   2.721   4.221  0.00  0.00    -0.042 A 
ATOM     11  C   UNL     1       2.947   1.830   3.321  0.00  0.00    +0.005 A 
ATOM     12  C   UNL     1       1.854   2.201   2.566  0.00  0.00    +0.012 A 
BRANCH  10  13
ATOM     13  C   UNL     1       4.700   2.308   5.042  0.00  0.00    -0.013 C 
ATOM     14  C   UNL     1       5.858   1.944   4.111  0.00  0.00    +0.015 C 
ATOM     15  C   UNL     1       5.119   3.466   5.950  0.00  0.00    +0.015 C 
ATOM     16  C   UNL     1       4.334   1.095   5.900  0.00  0.00    +0.015 C 
ENDBRANCH  10  13
ENDBRANCH   3   7
BRANCH   2  18
ATOM     17  C   UNL     1       0.051   1.101   0.009  0.00  0.00    +0.027 C 
ATOM     18  C   UNL     1      -0.714   1.580   1.245  0.00  0.00    +0.122 C 
ENDBRANCH   2  18
ENDBRANCH   1   6
BRANCH   1  19
ATOM     19  C   UNL     1      -3.730   4.962  -0.743  0.00  0.00    +0.173 C 
BRANCH  19  20
ATOM     20  C   UNL     1      -4.958   4.767  -1.595  0.00  0.00    +0.223 C 
ATOM     21  O   UNL     1      -5.327   3.647  -1.879  0.00  0.00    -0.275 OA
ATOM     22  N   UNL     1      -5.646   5.837  -2.040  0.00  0.00    -0.314 N 
ATOM     23  H   UNL     1      -5.311   6.852  -1.782  0.00  0.00    +0.149 HD
BRANCH  22  24
ATOM     24  C   UNL     1      -6.839   5.647  -2.868  0.00  0.00    +0.055 C 
ATOM     25  C   UNL     1      -6.448   5.554  -4.361  0.00  0.00    +0.002 C 
ATOM     26  C   UNL     1      -7.581   6.345  -5.064  0.00  0.00    -0.077 C 
ATOM     27  N   UNL     1      -7.854   7.461  -4.123  0.00  0.00    +0.384 N 
ATOM     28  C   UNL     1      -7.761   6.877  -2.768  0.00  0.00    -0.056 C 
ATOM     29  H   UNL     1      -7.143   8.290  -4.255  0.00  0.00    -0.081 HD
BRANCH  27  30
ATOM     30  C   UNL     1      -9.186   8.034  -4.358  0.00  0.00    -0.043 C 
BRANCH  30  31
ATOM     31  C   UNL     1      -9.171   8.830  -5.638  0.00  0.00    -0.064 A 
ATOM     32  C   UNL     1      -8.856  10.175  -5.613  0.00  0.00    +0.002 A 
ATOM     33  C   UNL     1      -8.838  10.903  -6.788  0.00  0.00    +0.000 A 
ATOM     34  C   UNL     1      -9.145  10.288  -7.987  0.00  0.00    +0.000 A 
ATOM     35  C   UNL     1      -9.466   8.944  -8.012  0.00  0.00    +0.000 A 
ATOM     36  C   UNL     1      -9.479   8.214  -6.838  0.00  0.00    +0.002 A 
ENDBRANCH  30  31
ENDBRANCH  27  30
ENDBRANCH  22  24
ENDBRANCH  19  20
ENDBRANCH   1  19
TORSDOF 9
