REMARK  Name = ZINC13150150
REMARK  5 active torsions:
REMARK  status: ('A' for Active; 'I' for Inactive)
REMARK    1  A    between atoms: C_4  and  C_7
REMARK    2  A    between atoms: C_20  and  C_21
REMARK    3  A    between atoms: N_23  and  C_24
REMARK    4  A    between atoms: C_27  and  S_30
REMARK    5  A    between atoms: S_30  and  N_33
REMARK                            x       y       z     vdW  Elec       q    Type
REMARK                         _______ _______ _______ _____ _____    ______ ____
ROOT
ATOM      1  C   UNL     1      -2.386  -0.625  -0.196  0.00  0.00    +0.013 C 
ATOM      2  C   UNL     1      -1.118  -0.958   0.098  0.00  0.00    -0.021 C 
ATOM      3  C   UNL     1      -0.626  -2.339   0.454  0.00  0.00    +0.042 C 
ATOM      4  C   UNL     1       0.881  -2.189   0.697  0.00  0.00    +0.043 C 
ATOM      5  C   UNL     1       1.203  -0.732   0.472  0.00  0.00    -0.009 A 
ATOM      6  C   UNL     1       0.034  -0.035   0.126  0.00  0.00    +0.072 A 
ATOM      7  N   UNL     1       0.061   1.271  -0.122  0.00  0.00    -0.247 NA
ATOM      8  C   UNL     1       1.175   1.996  -0.062  0.00  0.00    +0.072 A 
ATOM      9  C   UNL     1       1.160   3.377  -0.333  0.00  0.00    +0.028 A 
ATOM     10  C   UNL     1       2.316   4.092  -0.264  0.00  0.00    +0.002 A 
ATOM     11  C   UNL     1       3.521   3.480   0.073  0.00  0.00    +0.001 A 
ATOM     12  C   UNL     1       3.575   2.144   0.342  0.00  0.00    +0.011 A 
ATOM     13  C   UNL     1       2.406   1.380   0.280  0.00  0.00    +0.013 A 
ATOM     14  C   UNL     1       2.412  -0.056   0.559  0.00  0.00    +0.051 A 
ENDROOT
BRANCH   1  18
ATOM     15  C   UNL     1      -5.337  -3.649  -0.587  0.00  0.00    +0.000 A 
ATOM     16  C   UNL     1      -5.662  -2.443   0.010  0.00  0.00    +0.001 A 
ATOM     17  C   UNL     1      -4.708  -1.456   0.141  0.00  0.00    +0.008 A 
ATOM     18  C   UNL     1      -3.411  -1.675  -0.331  0.00  0.00    -0.025 A 
ATOM     19  C   UNL     1      -3.092  -2.894  -0.937  0.00  0.00    +0.008 A 
ATOM     20  C   UNL     1      -4.055  -3.874  -1.056  0.00  0.00    +0.001 A 
ENDBRANCH   1  18
BRANCH  14  21
ATOM     21  C   UNL     1       3.660  -0.761   0.921  0.00  0.00    +0.249 C 
ATOM     22  O   UNL     1       4.357  -1.248   0.051  0.00  0.00    -0.270 OA
ATOM     23  N   UNL     1       4.026  -0.865   2.214  0.00  0.00    -0.281 N 
ATOM     24  H   UNL     1       3.437  -0.536   2.912  0.00  0.00    +0.155 HD
BRANCH  23  25
ATOM     25  C   UNL     1       5.253  -1.444   2.549  0.00  0.00    +0.034 A 
ATOM     26  C   UNL     1       5.749  -2.506   1.803  0.00  0.00    +0.025 A 
ATOM     27  C   UNL     1       6.964  -3.072   2.134  0.00  0.00    +0.030 A 
ATOM     28  C   UNL     1       7.682  -2.591   3.214  0.00  0.00    +0.105 A 
ATOM     29  C   UNL     1       7.189  -1.538   3.962  0.00  0.00    +0.030 A 
ATOM     30  C   UNL     1       5.977  -0.963   3.633  0.00  0.00    +0.025 A 
BRANCH  28  31
ATOM     31  S   UNL     1       9.229  -3.322   3.637  0.00  0.00    +0.056 S 
ATOM     32  O   UNL     1       9.727  -3.932   2.454  0.00  0.00    -0.153 OA
ATOM     33  O   UNL     1       9.961  -2.337   4.352  0.00  0.00    -0.153 OA
BRANCH  31  34
ATOM     34  N   UNL     1       8.915  -4.548   4.705  0.00  0.00    -0.204 NA
ATOM     35  H   UNL     1       9.495  -5.325   4.735  0.00  0.00    +0.144 HD
ATOM     36  H   UNL     1       8.152  -4.489   5.301  0.00  0.00    +0.144 HD
ENDBRANCH  31  34
ENDBRANCH  28  31
ENDBRANCH  23  25
ENDBRANCH  14  21
TORSDOF 5
