REMARK  Name = ZINC02254002
REMARK  5 active torsions:
REMARK  status: ('A' for Active; 'I' for Inactive)
REMARK    1  A    between atoms: C_4  and  C_7
REMARK    2  A    between atoms: C_7  and  C_8
REMARK    3  A    between atoms: C_8  and  C_9
REMARK    4  A    between atoms: C_16  and  C_27
REMARK    5  A    between atoms: C_18  and  C_21
REMARK                            x       y       z     vdW  Elec       q    Type
REMARK                         _______ _______ _______ _____ _____    ______ ____
ROOT
ATOM      1  C   UNL     1       2.527   5.920   0.009  0.00  0.00    +0.220 C 
ATOM      2  O   UNL     1       1.317   5.834   0.021  0.00  0.00    -0.275 OA
ATOM      3  N   UNL     1       3.282   4.804  -0.005  0.00  0.00    -0.253 N 
ATOM      4  C   UNL     1       2.671   3.548  -0.005  0.00  0.00    +0.243 A 
ATOM      5  N   UNL     1       1.359   3.333   0.007  0.00  0.00    -0.176 NA
ATOM      6  C   UNL     1       1.119   2.025   0.002  0.00  0.00    +0.255 A 
ATOM      7  N   UNL     1      -0.016   1.320   0.009  0.00  0.00    -0.211 NA
ATOM      8  C   UNL     1       0.002  -0.004   0.002  0.00  0.00    +0.077 A 
ATOM      9  C   UNL     1       1.227  -0.695  -0.013  0.00  0.00    +0.057 A 
ATOM     10  C   UNL     1       2.393   0.022  -0.021  0.00  0.00    +0.078 A 
ATOM     11  N   UNL     1       2.329   1.390  -0.013  0.00  0.00    -0.194 N 
ATOM     12  N   UNL     1       3.306   2.395  -0.017  0.00  0.00    -0.127 NA
ATOM     13  H   UNL     1       4.249   4.873  -0.014  0.00  0.00    +0.158 HD
ENDROOT
BRANCH  10  14
ATOM     14  C   UNL     1       3.700  -0.669  -0.037  0.00  0.00    +0.001 A 
ATOM     15  C   UNL     1       4.883   0.067   0.055  0.00  0.00    +0.010 A 
ATOM     16  C   UNL     1       6.099  -0.585   0.045  0.00  0.00    +0.001 A 
ATOM     17  C   UNL     1       6.147  -1.963  -0.068  0.00  0.00    +0.000 A 
ATOM     18  C   UNL     1       4.979  -2.697  -0.166  0.00  0.00    +0.001 A 
ATOM     19  C   UNL     1       3.756  -2.059  -0.151  0.00  0.00    +0.010 A 
ENDBRANCH  10  14
BRANCH   8  20
ATOM     20  C   UNL     1      -1.272  -0.760   0.011  0.00  0.00    +0.001 A 
ATOM     21  C   UNL     1      -1.259  -2.154  -0.003  0.00  0.00    +0.010 A 
ATOM     22  C   UNL     1      -2.449  -2.853   0.010  0.00  0.00    +0.001 A 
ATOM     23  C   UNL     1      -3.654  -2.173   0.026  0.00  0.00    +0.000 A 
ATOM     24  C   UNL     1      -3.673  -0.789   0.034  0.00  0.00    +0.001 A 
ATOM     25  C   UNL     1      -2.490  -0.080   0.026  0.00  0.00    +0.010 A 
ENDBRANCH   8  20
BRANCH   1  26
ATOM     26  C   UNL     1       3.186   7.276   0.009  0.00  0.00    +0.101 C 
BRANCH  26  27
ATOM     27  C   UNL     1       2.111   8.365   0.026  0.00  0.00    +0.044 C 
BRANCH  27  31
ATOM     28  C   UNL     1       3.979  12.207   0.027  0.00  0.00    +0.000 A 
ATOM     29  C   UNL     1       3.664  11.591  -1.170  0.00  0.00    +0.000 A 
ATOM     30  C   UNL     1       3.060  10.348  -1.170  0.00  0.00    +0.003 A 
ATOM     31  C   UNL     1       2.770   9.720   0.026  0.00  0.00    -0.047 A 
ATOM     32  C   UNL     1       3.079  10.338   1.224  0.00  0.00    +0.003 A 
ATOM     33  C   UNL     1       3.688  11.579   1.224  0.00  0.00    +0.000 A 
ENDBRANCH  27  31
ENDBRANCH  26  27
ENDBRANCH   1  26
TORSDOF 5
