REMARK  Name = ZINC63743555
REMARK  10 active torsions:
REMARK  status: ('A' for Active; 'I' for Inactive)
REMARK    1  A    between atoms: C_1  and  C_2
REMARK    2  A    between atoms: C_2  and  O_3
REMARK    3  A    between atoms: O_3  and  C_4
REMARK    4  A    between atoms: C_8  and  N_19
REMARK    5  A    between atoms: C_13  and  C_15
REMARK    6  A    between atoms: C_15  and  O_17
REMARK    7  A    between atoms: O_17  and  C_18
REMARK    8  A    between atoms: C_20  and  C_22
REMARK    9  A    between atoms: C_28  and  O_32
REMARK   10  A    between atoms: O_32  and  C_33
REMARK                            x       y       z     vdW  Elec       q    Type
REMARK                         _______ _______ _______ _____ _____    ______ ____
ROOT
ATOM      1  C   UNL     1       0.747  -1.906  -1.284  0.00  0.00    +0.173 C 
ATOM      2  C   UNL     1      -0.477  -2.408  -2.010  0.00  0.00    -0.002 A 
ATOM      3  C   UNL     1      -1.780  -1.923  -1.875  0.00  0.00    +0.030 A 
ATOM      4  C   UNL     1      -2.826  -2.480  -2.587  0.00  0.00    +0.034 A 
ATOM      5  C   UNL     1      -2.606  -3.540  -3.457  0.00  0.00    +0.024 A 
ATOM      6  C   UNL     1      -1.322  -4.027  -3.608  0.00  0.00    +0.017 A 
ATOM      7  C   UNL     1      -0.279  -3.461  -2.900  0.00  0.00    +0.015 A 
ATOM      8  S   UNL     1       1.465  -3.812  -2.888  0.00  0.00    -0.107 S 
ATOM      9  C   UNL     1       2.048  -2.300  -2.019  0.00  0.00    +0.193 C 
ENDROOT
BRANCH   4  10
ATOM     10  N   UNL     1      -4.122  -1.971  -2.428  0.00  0.00    -0.284 N 
ATOM     11  C   UNL     1      -4.965  -1.933  -3.479  0.00  0.00    +0.244 C 
ATOM     12  O   UNL     1      -4.632  -2.415  -4.541  0.00  0.00    -0.273 OA
ATOM     13  H   UNL     1      -4.413  -1.645  -1.562  0.00  0.00    +0.155 HD
BRANCH  11  14
ATOM     14  C   UNL     1      -6.321  -1.291  -3.336  0.00  0.00    +0.190 C 
ATOM     15  C   UNL     1      -7.143  -2.034  -2.307  0.00  0.00    +0.016 C 
ATOM     16  C   UNL     1      -8.233  -2.495  -2.959  0.00  0.00    -0.003 A 
ATOM     17  C   UNL     1      -9.394  -3.281  -2.521  0.00  0.00    +0.013 A 
ATOM     18  C   UNL     1     -10.349  -3.600  -3.421  0.00  0.00    +0.046 A 
ATOM     19  C   UNL     1     -10.259  -3.196  -4.767  0.00  0.00    +0.122 A 
ATOM     20  C   UNL     1      -9.216  -2.469  -5.243  0.00  0.00    +0.071 A 
ATOM     21  C   UNL     1      -8.160  -2.082  -4.380  0.00  0.00    +0.047 A 
ATOM     22  N   UNL     1      -7.064  -1.390  -4.597  0.00  0.00    -0.370 N 
ATOM     23  H   UNL     1      -6.791  -1.010  -5.446  0.00  0.00    +0.161 HD
BRANCH  19  24
ATOM     24  O   UNL     1     -11.251  -3.549  -5.621  0.00  0.00    -0.495 OA
ATOM     25  C   UNL     1     -12.330  -4.314  -5.081  0.00  0.00    +0.277 C 
ENDBRANCH  19  24
ENDBRANCH  11  14
ENDBRANCH   4  10
BRANCH   9  26
ATOM     26  C   UNL     1       2.471  -1.233  -2.996  0.00  0.00    +0.323 C 
ATOM     27  O   UNL     1       1.640  -0.538  -3.530  0.00  0.00    -0.249 OA
BRANCH  26  28
ATOM     28  O   UNL     1       3.773  -1.055  -3.273  0.00  0.00    -0.467 OA
ATOM     29  C   UNL     1       4.102  -0.026  -4.208  0.00  0.00    +0.280 C 
ENDBRANCH  26  28
ENDBRANCH   9  26
BRANCH   1  30
ATOM     30  O   UNL     1       0.680  -0.482  -1.187  0.00  0.00    -0.371 OA
BRANCH  30  32
ATOM     31  C   UNL     1       0.001   1.519  -0.014  0.00  0.00    +0.034 C 
ATOM     32  C   UNL     1       0.014  -0.011  -0.013  0.00  0.00    +0.157 C 
ENDBRANCH  30  32
ENDBRANCH   1  30
TORSDOF 7
