REMARK  Name = ZINC63687977
REMARK  9 active torsions:
REMARK  status: ('A' for Active; 'I' for Inactive)
REMARK    1  A    between atoms: C_1  and  C_2
REMARK    2  A    between atoms: C_5  and  N_8
REMARK    3  A    between atoms: C_9  and  C_11
REMARK    4  A    between atoms: C_11  and  S_12
REMARK    5  A    between atoms: S_12  and  C_13
REMARK    6  A    between atoms: C_19  and  C_20
REMARK    7  A    between atoms: N_22  and  C_23
REMARK    8  A    between atoms: C_23  and  C_24
REMARK    9  A    between atoms: C_24  and  C_25
REMARK                            x       y       z     vdW  Elec       q    Type
REMARK                         _______ _______ _______ _____ _____    ______ ____
ROOT
ATOM      1  C   UNL     1       0.374  -9.382   2.944  0.00  0.00    +0.188 C 
ATOM      2  N   UNL     1      -0.718  -9.752   2.026  0.00  0.00    -0.326 N 
ATOM      3  C   UNL     1      -0.411 -10.052   0.747  0.00  0.00    +0.020 C 
ATOM      4  C   UNL     1       1.025 -10.501   0.506  0.00  0.00    +0.122 C 
ATOM      5  S   UNL     1       1.869  -9.610   1.891  0.00  0.00    -0.122 S 
ATOM      6  C   UNL     1      -1.314  -9.959  -0.251  0.00  0.00    +0.086 C 
ATOM      7  H   UNL     1      -1.637  -9.781   2.335  0.00  0.00    +0.148 HD
ENDROOT
BRANCH   6   8
ATOM      8  C   UNL     1      -2.589  -9.400  -0.002  0.00  0.00    +0.238 C 
ATOM      9  O   UNL     1      -2.834  -8.902   1.082  0.00  0.00    -0.271 OA
ATOM     10  N   UNL     1      -3.533  -9.420  -0.964  0.00  0.00    -0.311 N 
ATOM     11  H   UNL     1      -3.338  -9.817  -1.827  0.00  0.00    +0.149 HD
BRANCH  10  12
ATOM     12  C   UNL     1      -4.854  -8.841  -0.706  0.00  0.00    +0.109 C 
BRANCH  12  13
ATOM     13  C   UNL     1      -5.729  -8.992  -1.951  0.00  0.00    +0.052 C 
BRANCH  13  14
ATOM     14  C   UNL     1      -7.088  -8.397  -1.686  0.00  0.00    -0.040 C 
ATOM     15  C   UNL     1      -7.503  -7.147  -1.994  0.00  0.00    -0.001 A 
ATOM     16  C   UNL     1      -6.838  -6.011  -2.644  0.00  0.00    +0.010 A 
ATOM     17  C   UNL     1      -7.527  -4.860  -2.818  0.00  0.00    +0.001 A 
ATOM     18  C   UNL     1      -8.856  -4.726  -2.395  0.00  0.00    +0.002 A 
ATOM     19  C   UNL     1      -9.534  -5.724  -1.791  0.00  0.00    +0.026 A 
ATOM     20  C   UNL     1      -8.907  -6.979  -1.557  0.00  0.00    +0.043 A 
ATOM     21  N   UNL     1      -9.344  -8.083  -1.000  0.00  0.00    -0.380 N 
ATOM     22  C   UNL     1      -8.266  -9.078  -1.026  0.00  0.00    +0.144 C 
ATOM     23  H   UNL     1     -10.232  -8.219  -0.634  0.00  0.00    +0.160 HD
ENDBRANCH  13  14
ENDBRANCH  12  13
ENDBRANCH  10  12
ENDBRANCH   6   8
BRANCH   1  24
ATOM     24  S   UNL     1       0.215  -7.654   3.473  0.00  0.00    -0.119 S 
BRANCH  24  25
ATOM     25  C   UNL     1       0.211  -6.718   1.919  0.00  0.00    +0.167 C 
BRANCH  25  27
ATOM     26  N   UNL     1       0.057  -4.353   1.211  0.00  0.00    -0.285 N 
ATOM     27  C   UNL     1       0.082  -5.246   2.220  0.00  0.00    +0.227 C 
ATOM     28  O   UNL     1       0.001  -4.867   3.369  0.00  0.00    -0.275 OA
ATOM     29  H   UNL     1       0.045  -4.659   0.291  0.00  0.00    +0.155 HD
BRANCH  26  34
ATOM     30  C   UNL     1       0.022   1.206   2.347  0.00  0.00    +0.044 C 
ATOM     31  C   UNL     1       0.031  -0.271   2.045  0.00  0.00    -0.050 A 
ATOM     32  C   UNL     1       0.722  -1.139   2.870  0.00  0.00    +0.005 A 
ATOM     33  C   UNL     1       0.733  -2.493   2.596  0.00  0.00    +0.023 A 
ATOM     34  C   UNL     1       0.048  -2.982   1.492  0.00  0.00    +0.033 A 
ATOM     35  C   UNL     1      -0.645  -2.107   0.665  0.00  0.00    +0.023 A 
ATOM     36  C   UNL     1      -0.656  -0.755   0.947  0.00  0.00    +0.005 A 
ENDBRANCH  26  34
ENDBRANCH  25  27
ENDBRANCH  24  25
ENDBRANCH   1  24
TORSDOF 8
