REMARK  Name = ZINC13029678
REMARK  10 active torsions:
REMARK  status: ('A' for Active; 'I' for Inactive)
REMARK    1  A    between atoms: C_1  and  O_2
REMARK    2  A    between atoms: O_2  and  C_3
REMARK    3  A    between atoms: C_7  and  C_9
REMARK    4  A    between atoms: C_9  and  C_11
REMARK    5  A    between atoms: C_9  and  N_19
REMARK    6  A    between atoms: N_13  and  C_14
REMARK    7  A    between atoms: N_19  and  C_20
REMARK    8  A    between atoms: C_20  and  C_21
REMARK    9  A    between atoms: C_26  and  C_28
REMARK   10  A    between atoms: C_28  and  N_29
REMARK                            x       y       z     vdW  Elec       q    Type
REMARK                         _______ _______ _______ _____ _____    ______ ____
ROOT
ATOM      1  N   UNL     1      -0.394   2.415   1.395  0.00  0.00    -0.280 N 
ATOM      2  C   UNL     1      -0.423   2.548   0.054  0.00  0.00    +0.238 C 
ATOM      3  O   UNL     1      -1.477   2.466  -0.540  0.00  0.00    -0.274 OA
ENDROOT
BRANCH   1   4
ATOM      4  C   UNL     1      -1.635   2.170   2.134  0.00  0.00    +0.193 C 
BRANCH   4   9
ATOM      5  C   UNL     1      -3.147  -1.277   2.455  0.00  0.00    +0.120 A 
ATOM      6  C   UNL     1      -2.051  -2.021   2.866  0.00  0.00    +0.045 A 
ATOM      7  C   UNL     1      -0.826  -1.406   3.038  0.00  0.00    +0.004 A 
ATOM      8  C   UNL     1      -0.693  -0.050   2.802  0.00  0.00    +0.006 A 
ATOM      9  C   UNL     1      -1.784   0.693   2.391  0.00  0.00    -0.015 A 
ATOM     10  C   UNL     1      -3.012   0.084   2.222  0.00  0.00    +0.051 A 
BRANCH   5  12
ATOM     11  C   UNL     1      -4.420  -3.283   2.548  0.00  0.00    +0.277 C 
ATOM     12  O   UNL     1      -4.354  -1.880   2.285  0.00  0.00    -0.495 OA
ENDBRANCH   5  12
ENDBRANCH   4   9
BRANCH   4  13
ATOM     13  C   UNL     1      -1.590   2.907   3.449  0.00  0.00    +0.238 C 
ATOM     14  O   UNL     1      -0.607   2.828   4.155  0.00  0.00    -0.273 OA
ATOM     15  N   UNL     1      -2.642   3.654   3.839  0.00  0.00    -0.311 N 
ATOM     16  H   UNL     1      -3.428   3.717   3.274  0.00  0.00    +0.149 HD
BRANCH  15  17
ATOM     17  C   UNL     1      -2.598   4.370   5.116  0.00  0.00    +0.073 C 
ATOM     18  C   UNL     1      -3.103   3.456   6.252  0.00  0.00    +0.022 C 
ATOM     19  C   UNL     1      -3.892   4.409   7.184  0.00  0.00    +0.002 C 
ATOM     20  C   UNL     1      -4.592   5.362   6.185  0.00  0.00    +0.002 C 
ATOM     21  C   UNL     1      -3.545   5.582   5.074  0.00  0.00    +0.022 C 
ENDBRANCH  15  17
ENDBRANCH   4  13
ENDBRANCH   1   4
BRANCH   1  22
ATOM     22  C   UNL     1       0.879   2.514   2.113  0.00  0.00    +0.151 C 
BRANCH  22  23
ATOM     23  C   UNL     1       1.200   3.964   2.370  0.00  0.00    +0.007 A 
ATOM     24  C   UNL     1       1.681   4.545   3.496  0.00  0.00    +0.013 A 
ATOM     25  C   UNL     1       1.903   5.910   3.504  0.00  0.00    +0.008 A 
ATOM     26  C   UNL     1       1.632   6.626   2.385  0.00  0.00    +0.045 A 
ATOM     27  S   UNL     1       1.051   5.361   1.268  0.00  0.00    -0.100 S 
ENDBRANCH  22  23
ENDBRANCH   1  22
BRANCH   2  28
ATOM     28  C   UNL     1       0.853   2.800  -0.706  0.00  0.00    +0.241 C 
BRANCH  28  29
ATOM     29  N   UNL     1       0.556   2.906  -2.137  0.00  0.00    -0.235 N 
ATOM     30  C   UNL     1       0.542   1.881  -3.053  0.00  0.00    +0.090 A 
ATOM     31  C   UNL     1       0.765   0.510  -2.973  0.00  0.00    +0.029 A 
ATOM     32  C   UNL     1       0.664  -0.261  -4.096  0.00  0.00    +0.002 A 
ATOM     33  C   UNL     1       0.336   0.311  -5.319  0.00  0.00    +0.002 A 
ATOM     34  C   UNL     1       0.107   1.651  -5.423  0.00  0.00    +0.032 A 
ATOM     35  C   UNL     1       0.204   2.465  -4.286  0.00  0.00    +0.113 A 
ATOM     36  N   UNL     1       0.039   3.787  -4.081  0.00  0.00    -0.129 NA
ATOM     37  N   UNL     1       0.236   4.075  -2.843  0.00  0.00    -0.064 NA
ENDBRANCH  28  29
ENDBRANCH   2  28
TORSDOF 9
