REMARK  Name = ZINC61687561
REMARK  6 active torsions:
REMARK  status: ('A' for Active; 'I' for Inactive)
REMARK    1  A    between atoms: C_1  and  C_2
REMARK    2  A    between atoms: C_3  and  C_15
REMARK    3  A    between atoms: C_4  and  N_14
REMARK    4  A    between atoms: C_6  and  C_8
REMARK    5  A    between atoms: C_15  and  C_16
REMARK    6  A    between atoms: C_15  and  C_17
REMARK                            x       y       z     vdW  Elec       q    Type
REMARK                         _______ _______ _______ _____ _____    ______ ____
ROOT
ATOM      1  C   UNL     1      -0.424   1.512  -0.174  0.00  0.00    +0.066 C 
ATOM      2  C   UNL     1      -0.256   0.018  -0.064  0.00  0.00    +0.047 A 
ATOM      3  C   UNL     1      -0.105  -0.754  -1.199  0.00  0.00    +0.016 A 
ATOM      4  C   UNL     1       0.048  -2.134  -1.047  0.00  0.00    +0.123 A 
ATOM      5  N   UNL     1       0.041  -2.650   0.179  0.00  0.00    -0.217 NA
ATOM      6  C   UNL     1      -0.106  -1.876   1.234  0.00  0.00    +0.137 A 
ATOM      7  N   UNL     1      -0.247  -0.570   1.124  0.00  0.00    -0.236 NA
ENDROOT
BRANCH   6   8
ATOM      8  C   UNL     1      -0.107  -2.499   2.606  0.00  0.00    +0.085 C 
ATOM      9  C   UNL     1       1.212  -3.272   2.851  0.00  0.00    +0.041 C 
ATOM     10  C   UNL     1       0.712  -4.543   3.585  0.00  0.00    +0.160 C 
ATOM     11  O   UNL     1      -0.543  -4.836   2.933  0.00  0.00    -0.379 OA
ATOM     12  C   UNL     1      -1.204  -3.577   2.708  0.00  0.00    +0.171 C 
ENDBRANCH   6   8
BRANCH   4  13
ATOM     13  N   UNL     1       0.202  -2.951  -2.155  0.00  0.00    -0.343 N 
ATOM     14  H   UNL     1       0.304  -2.559  -3.036  0.00  0.00    +0.144 HD
ATOM     15  H   UNL     1       0.208  -3.915  -2.049  0.00  0.00    +0.144 HD
ENDBRANCH   4  13
BRANCH   3  16
ATOM     16  C   UNL     1      -0.105  -0.123  -2.568  0.00  0.00    +0.018 C 
ATOM     17  C   UNL     1       1.245  -0.370  -3.243  0.00  0.00    +0.012 C 
ATOM     18  C   UNL     1      -1.219  -0.742  -3.414  0.00  0.00    +0.012 C 
ENDBRANCH   3  16
TORSDOF 3
