REMARK  Name = ZINC35156482
REMARK  15 active torsions:
REMARK  status: ('A' for Active; 'I' for Inactive)
REMARK    1  A    between atoms: C_1  and  C_2
REMARK    2  A    between atoms: C_2  and  N_3
REMARK    3  A    between atoms: N_3  and  C_4
REMARK    4  A    between atoms: N_3  and  C_6
REMARK    5  A    between atoms: C_4  and  C_5
REMARK    6  A    between atoms: C_6  and  C_7
REMARK    7  A    between atoms: C_7  and  C_8
REMARK    8  A    between atoms: C_8  and  C_9
REMARK    9  A    between atoms: C_9  and  C_11
REMARK   10  A    between atoms: C_9  and  N_12
REMARK   11  A    between atoms: C_13  and  C_15
REMARK   12  A    between atoms: C_15  and  S_16
REMARK   13  A    between atoms: S_16  and  C_17
REMARK   14  A    between atoms: N_27  and  C_28
REMARK   15  A    between atoms: C_28  and  C_29
REMARK                            x       y       z     vdW  Elec       q    Type
REMARK                         _______ _______ _______ _____ _____    ______ ____
ROOT
ATOM      1  C   UNL     1      -1.129  -1.073   9.365  0.00  0.00    +0.212 A 
ATOM      2  N   UNL     1      -0.642  -0.670  10.532  0.00  0.00    -0.201 NA
ATOM      3  C   UNL     1      -1.453  -0.086  11.408  0.00  0.00    +0.165 A 
ATOM      4  C   UNL     1      -2.809   0.082  11.057  0.00  0.00    +0.138 A 
ATOM      5  C   UNL     1      -3.454   0.746  12.203  0.00  0.00    +0.029 A 
ATOM      6  C   UNL     1      -4.755   1.171  12.459  0.00  0.00    +0.012 A 
ATOM      7  C   UNL     1      -5.054   1.776  13.661  0.00  0.00    +0.001 A 
ATOM      8  C   UNL     1      -4.064   1.963  14.614  0.00  0.00    +0.002 A 
ATOM      9  C   UNL     1      -2.772   1.548  14.373  0.00  0.00    +0.026 A 
ATOM     10  C   UNL     1      -2.451   0.935  13.166  0.00  0.00    +0.053 A 
ATOM     11  N   UNL     1      -1.262   0.428  12.666  0.00  0.00    -0.319 N 
ATOM     12  N   UNL     1      -3.233  -0.342   9.876  0.00  0.00    -0.143 NA
ATOM     13  N   UNL     1      -2.409  -0.899   9.055  0.00  0.00    -0.122 NA
ENDROOT
BRANCH   1  14
ATOM     14  S   UNL     1      -0.056  -1.847   8.202  0.00  0.00    -0.075 S 
BRANCH  14  15
ATOM     15  C   UNL     1      -1.131  -2.211   6.787  0.00  0.00    +0.173 C 
BRANCH  15  17
ATOM     16  N   UNL     1      -0.922  -3.249   4.551  0.00  0.00    -0.312 N 
ATOM     17  C   UNL     1      -0.327  -2.884   5.705  0.00  0.00    +0.224 C 
ATOM     18  O   UNL     1       0.855  -3.097   5.871  0.00  0.00    -0.275 OA
ATOM     19  H   UNL     1      -1.867  -3.078   4.418  0.00  0.00    +0.149 HD
BRANCH  16  20
ATOM     20  C   UNL     1      -0.140  -3.903   3.499  0.00  0.00    +0.070 C 
ATOM     21  C   UNL     1      -0.077  -5.407   3.771  0.00  0.00    +0.028 C 
BRANCH  20  22
ATOM     22  C   UNL     1      -0.805  -3.658   2.143  0.00  0.00    +0.020 C 
BRANCH  22  23
ATOM     23  C   UNL     1      -0.756  -2.164   1.814  0.00  0.00    -0.017 C 
BRANCH  23  24
ATOM     24  C   UNL     1      -1.421  -1.919   0.458  0.00  0.00    -0.079 C 
BRANCH  24  25
ATOM     25  N   UNL     1      -1.374  -0.485   0.142  0.00  0.00    +0.379 N 
ATOM     26  H   UNL     1      -1.792   0.039   0.895  0.00  0.00    -0.082 HD
BRANCH  25  28
ATOM     27  C   UNL     1       0.082   1.451  -0.216  0.00  0.00    -0.017 C 
ATOM     28  C   UNL     1       0.024  -0.066  -0.029  0.00  0.00    -0.082 C 
ENDBRANCH  25  28
BRANCH  25  29
ATOM     29  C   UNL     1      -2.116  -0.233  -1.101  0.00  0.00    -0.082 C 
ATOM     30  C   UNL     1      -3.600  -0.533  -0.879  0.00  0.00    -0.017 C 
ENDBRANCH  25  29
ENDBRANCH  24  25
ENDBRANCH  23  24
ENDBRANCH  22  23
ENDBRANCH  20  22
ENDBRANCH  16  20
ENDBRANCH  15  17
ENDBRANCH  14  15
ENDBRANCH   1  14
BRANCH  11  31
ATOM     31  C   UNL     1       0.017   0.439  13.380  0.00  0.00    +0.159 C 
BRANCH  31  32
ATOM     32  C   UNL     1       0.759   1.711  13.061  0.00  0.00    -0.026 A 
ATOM     33  C   UNL     1       1.620   1.757  11.979  0.00  0.00    +0.005 A 
ATOM     34  C   UNL     1       2.301   2.923  11.686  0.00  0.00    +0.002 A 
ATOM     35  C   UNL     1       2.123   4.045  12.474  0.00  0.00    +0.020 A 
ATOM     36  C   UNL     1       1.262   4.000  13.556  0.00  0.00    +0.041 A 
ATOM     37  C   UNL     1       0.576   2.833  13.846  0.00  0.00    +0.025 A 
ATOM     38 CL   UNL     1       1.038   5.408  14.547  0.00  0.00    -0.084 Cl
ENDBRANCH  31  32
ENDBRANCH  11  31
TORSDOF 12
