REMARK  Name = ZINC36283743
REMARK  5 active torsions:
REMARK  status: ('A' for Active; 'I' for Inactive)
REMARK    1  A    between atoms: C_1  and  N_2
REMARK    2  A    between atoms: C_5  and  S_7
REMARK    3  A    between atoms: S_7  and  N_10
REMARK    4  A    between atoms: N_10  and  C_11
REMARK    5  A    between atoms: C_16  and  N_20
REMARK                            x       y       z     vdW  Elec       q    Type
REMARK                         _______ _______ _______ _____ _____    ______ ____
ROOT
ATOM      1  C   UNL     1       1.969  -4.974   2.802  0.00  0.00    +0.202 A 
ATOM      2  N   UNL     1       1.168  -5.822   3.405  0.00  0.00    -0.222 NA
ATOM      3  C   UNL     1       1.630  -6.849   4.154  0.00  0.00    +0.080 A 
ATOM      4  C   UNL     1       0.880  -7.825   4.851  0.00  0.00    +0.031 A 
ATOM      5  C   UNL     1       1.505  -8.808   5.571  0.00  0.00    +0.025 A 
ATOM      6  C   UNL     1       2.894  -8.884   5.644  0.00  0.00    +0.026 A 
ATOM      7  C   UNL     1       3.659  -7.941   4.971  0.00  0.00    +0.040 A 
ATOM      8  C   UNL     1       3.036  -6.955   4.248  0.00  0.00    +0.043 A 
ATOM      9  S   UNL     1       3.585  -5.587   3.256  0.00  0.00    -0.049 S 
ENDROOT
BRANCH   6  10
ATOM     10  N   UNL     1       3.511  -9.897   6.387  0.00  0.00    -0.358 N 
ATOM     11  H   UNL     1       2.971 -10.552   6.856  0.00  0.00    +0.142 HD
ATOM     12  H   UNL     1       4.479  -9.944   6.434  0.00  0.00    +0.142 HD
ENDBRANCH   6  10
BRANCH   1  13
ATOM     13  N   UNL     1       1.645  -3.889   2.012  0.00  0.00    -0.070 NA
BRANCH  13  14
ATOM     14  S   UNL     1       0.057  -3.514   1.730  0.00  0.00    +0.095 S 
ATOM     15  O   UNL     1      -0.495  -3.119   2.978  0.00  0.00    -0.148 OA
ATOM     16  O   UNL     1      -0.482  -4.582   0.963  0.00  0.00    -0.148 OA
BRANCH  14  21
ATOM     17  C   UNL     1      -0.018   1.461   0.010  0.00  0.00    +0.148 C 
ATOM     18  N   UNL     1       0.002  -0.004   0.002  0.00  0.00    -0.354 N 
ATOM     19  C   UNL     1       0.008  -0.792  -1.110  0.00  0.00    +0.087 A 
ATOM     20  C   UNL     1       0.027  -2.081  -0.714  0.00  0.00    +0.048 A 
ATOM     21  C   UNL     1       0.033  -2.089   0.695  0.00  0.00    +0.128 A 
ATOM     22  C   UNL     1       0.023  -0.804   1.106  0.00  0.00    +0.114 A 
ENDBRANCH  14  21
ENDBRANCH  13  14
ENDBRANCH   1  13
TORSDOF 4
