REMARK  Name = ZINC59474651
REMARK  6 active torsions:
REMARK  status: ('A' for Active; 'I' for Inactive)
REMARK    1  A    between atoms: C_7  and  C_11
REMARK    2  A    between atoms: C_7  and  O_30
REMARK    3  A    between atoms: C_11  and  C_12
REMARK    4  A    between atoms: C_12  and  C_14
REMARK    5  A    between atoms: C_17  and  N_20
REMARK    6  A    between atoms: N_23  and  C_24
REMARK                            x       y       z     vdW  Elec       q    Type
REMARK                         _______ _______ _______ _____ _____    ______ ____
ROOT
ATOM      1  C   UNL     1       1.159  -5.147   2.379  0.00  0.00    +0.018 A 
ATOM      2  C   UNL     1       0.346  -4.659   3.409  0.00  0.00    +0.013 A 
ATOM      3  C   UNL     1      -0.011  -5.478   4.442  0.00  0.00    +0.024 A 
ATOM      4  C   UNL     1       0.434  -6.797   4.473  0.00  0.00    +0.035 A 
ATOM      5  C   UNL     1       1.243  -7.287   3.451  0.00  0.00    +0.024 A 
ATOM      6  C   UNL     1       1.599  -6.477   2.410  0.00  0.00    +0.013 A 
ENDROOT
BRANCH   4   7
ATOM      7  N   UNL     1       0.069  -7.629   5.529  0.00  0.00    -0.269 N 
ATOM      8  C   UNL     1      -0.159  -8.939   5.307  0.00  0.00    +0.304 C 
ATOM      9  O   UNL     1       0.034  -9.411   4.204  0.00  0.00    -0.253 OA
ATOM     10  N   UNL     1      -0.601  -9.725   6.309  0.00  0.00    -0.296 N 
ATOM     11  H   UNL     1      -0.021  -7.266   6.423  0.00  0.00    +0.156 HD
ATOM     12  H   UNL     1      -0.755  -9.347   7.189  0.00  0.00    +0.151 HD
BRANCH  10  13
ATOM     13  C   UNL     1      -0.849 -11.148   6.068  0.00  0.00    +0.074 C 
ATOM     14  C   UNL     1      -2.258 -11.331   5.500  0.00  0.00    +0.022 C 
ATOM     15  C   UNL     1      -2.517 -12.818   5.248  0.00  0.00    +0.002 C 
ATOM     16  C   UNL     1      -2.395 -13.587   6.566  0.00  0.00    +0.000 C 
ATOM     17  C   UNL     1      -0.986 -13.404   7.134  0.00  0.00    +0.002 C 
ATOM     18  C   UNL     1      -0.727 -11.917   7.385  0.00  0.00    +0.022 C 
ENDBRANCH  10  13
ENDBRANCH   4   7
BRANCH   1  19
ATOM     19  C   UNL     1       1.544  -4.271   1.266  0.00  0.00    +0.167 C 
ATOM     20  O   UNL     1       2.244  -4.697   0.372  0.00  0.00    -0.292 OA
BRANCH  19  21
ATOM     21  C   UNL     1       1.069  -2.841   1.234  0.00  0.00    +0.129 C 
BRANCH  21  28
ATOM     22  C   UNL     1       0.024   1.369  -0.009  0.00  0.00    +0.000 A 
ATOM     23  C   UNL     1       1.214   2.074  -0.007  0.00  0.00    +0.002 A 
ATOM     24  C   UNL     1       2.421   1.406  -0.011  0.00  0.00    +0.024 A 
ATOM     25  C   UNL     1       2.449   0.012  -0.015  0.00  0.00    +0.040 A 
ATOM     26  C   UNL     1       1.248  -0.684  -0.017  0.00  0.00    +0.014 A 
ATOM     27  C   UNL     1       0.044  -0.015  -0.014  0.00  0.00    +0.009 A 
ATOM     28  C   UNL     1       1.607  -2.152  -0.022  0.00  0.00    +0.175 C 
ATOM     29  C   UNL     1       3.121  -2.160  -0.023  0.00  0.00    +0.254 C 
ATOM     30  O   UNL     1       3.837  -3.140  -0.027  0.00  0.00    -0.272 OA
ATOM     31  N   UNL     1       3.523  -0.878  -0.019  0.00  0.00    -0.282 N 
ATOM     32  H   UNL     1       4.454  -0.603  -0.019  0.00  0.00    +0.155 HD
BRANCH  28  33
ATOM     33  O   UNL     1       1.102  -2.787  -1.198  0.00  0.00    -0.374 OA
ATOM     34  H   UNL     1       1.305  -3.731  -1.253  0.00  0.00    +0.211 HD
ENDBRANCH  28  33
ENDBRANCH  21  28
ENDBRANCH  19  21
ENDBRANCH   1  19
TORSDOF 6
