REMARK  Name = ZINC62870625
REMARK  4 active torsions:
REMARK  status: ('A' for Active; 'I' for Inactive)
REMARK    1  A    between atoms: C_1  and  C_2
REMARK    2  A    between atoms: C_2  and  C_3
REMARK    3  A    between atoms: C_3  and  C_18
REMARK    4  A    between atoms: C_9  and  C_11
REMARK                            x       y       z     vdW  Elec       q    Type
REMARK                         _______ _______ _______ _____ _____    ______ ____
ROOT
ATOM      1  C   UNL     1       1.048  -0.781  -1.551  0.00  0.00    +0.087 C 
ATOM      2  C   UNL     1       1.366  -2.271  -1.700  0.00  0.00    +0.021 C 
ATOM      3  C   UNL     1       2.075  -2.772  -0.440  0.00  0.00    +0.020 C 
ATOM      4  C   UNL     1       3.393  -2.011  -0.264  0.00  0.00    +0.108 C 
ATOM      5  N   UNL     1       3.111  -0.569  -0.266  0.00  0.00    -0.294 N 
ATOM      6  C   UNL     1       2.355   0.002  -1.389  0.00  0.00    +0.126 C 
ATOM      7  C   UNL     1       3.538   0.215   0.744  0.00  0.00    +0.286 C 
ATOM      8  O   UNL     1       3.397   1.421   0.678  0.00  0.00    -0.267 OA
ENDROOT
BRANCH   7   9
ATOM      9  C   UNL     1       4.177  -0.391   1.931  0.00  0.00    +0.238 A 
ATOM     10  N   UNL     1       4.763   0.284   2.933  0.00  0.00    -0.190 NA
ATOM     11  C   UNL     1       5.227  -0.561   3.824  0.00  0.00    +0.209 A 
ATOM     12  N   UNL     1       4.942  -1.815   3.402  0.00  0.00    -0.246 N 
ATOM     13  H   UNL     1       5.162  -2.644   3.855  0.00  0.00    +0.192 HD
ATOM     14  N   UNL     1       4.260  -1.680   2.182  0.00  0.00    -0.146 NA
ATOM     15  N   UNL     1       5.892  -0.229   4.990  0.00  0.00    -0.328 N 
ATOM     16  H   UNL     1       6.051   0.702   5.209  0.00  0.00    +0.145 HD
ATOM     17  H   UNL     1       6.199  -0.927   5.589  0.00  0.00    +0.145 HD
ENDBRANCH   7   9
BRANCH   1  18
ATOM     18  C   UNL     1       0.321  -0.296  -2.779  0.00  0.00    +0.364 C 
ATOM     19  O   UNL     1      -0.024   0.870  -2.862  0.00  0.00    -0.246 OA
ATOM     20  O   UNL     1       0.077  -1.071  -3.689  0.00  0.00    -0.246 OA
ENDBRANCH   1  18
BRANCH   1  22
ATOM     21  C   UNL     1      -0.146   0.922  -0.168  0.00  0.00    +0.005 C 
ATOM     22  C   UNL     1       0.168  -0.568  -0.319  0.00  0.00    +0.016 C 
ENDBRANCH   1  22
TORSDOF 3
