REMARK  Name = ZINC13865325
REMARK  9 active torsions:
REMARK  status: ('A' for Active; 'I' for Inactive)
REMARK    1  A    between atoms: C_1  and  O_2
REMARK    2  A    between atoms: O_2  and  C_3
REMARK    3  A    between atoms: C_6  and  C_9
REMARK    4  A    between atoms: C_19  and  C_21
REMARK    5  A    between atoms: C_24  and  O_27
REMARK    6  A    between atoms: O_27  and  C_28
REMARK    7  A    between atoms: C_29  and  C_31
REMARK    8  A    between atoms: C_31  and  S_32
REMARK    9  A    between atoms: S_32  and  C_33
REMARK                            x       y       z     vdW  Elec       q    Type
REMARK                         _______ _______ _______ _____ _____    ______ ____
ROOT
ATOM      1  C   UNL     1      -4.954  -2.615   0.035  0.00  0.00    +0.013 C 
ATOM      2  C   UNL     1      -5.009  -3.959  -0.068  0.00  0.00    -0.024 C 
ATOM      3  C   UNL     1      -3.737  -4.752  -0.072  0.00  0.00    +0.037 C 
ATOM      4  C   UNL     1      -3.926  -6.229  -0.352  0.00  0.00    +0.005 C 
ATOM      5  C   UNL     1      -5.244  -6.785   0.183  0.00  0.00    +0.012 C 
ATOM      6  C   UNL     1      -6.389  -6.074  -0.540  0.00  0.00    +0.066 C 
ATOM      7  C   UNL     1      -6.266  -4.599  -0.165  0.00  0.00    +0.068 C 
ATOM      8  N   UNL     1      -7.451  -4.136   0.039  0.00  0.00    -0.181 NA
ATOM      9  N   UNL     1      -8.439  -5.127   0.081  0.00  0.00    -0.184 N 
ATOM     10  C   UNL     1      -7.761  -6.453   0.046  0.00  0.00    +0.140 C 
ATOM     11  C   UNL     1      -9.770  -4.921   0.124  0.00  0.00    +0.246 C 
ATOM     12  O   UNL     1     -10.529  -5.867   0.158  0.00  0.00    -0.273 OA
ENDROOT
BRANCH   1  16
ATOM     13  C   UNL     1      -1.246  -0.694   0.787  0.00  0.00    +0.120 A 
ATOM     14  C   UNL     1      -2.119  -0.168  -0.156  0.00  0.00    +0.046 A 
ATOM     15  C   UNL     1      -3.324  -0.787  -0.404  0.00  0.00    +0.011 A 
ATOM     16  C   UNL     1      -3.668  -1.949   0.296  0.00  0.00    -0.024 A 
ATOM     17  C   UNL     1      -2.784  -2.475   1.244  0.00  0.00    +0.011 A 
ATOM     18  C   UNL     1      -1.579  -1.851   1.481  0.00  0.00    +0.046 A 
BRANCH  13  20
ATOM     19  C   UNL     1       0.222   1.105   0.280  0.00  0.00    +0.277 C 
ATOM     20  O   UNL     1      -0.058  -0.080   1.028  0.00  0.00    -0.495 OA
ENDBRANCH  13  20
ENDBRANCH   1  16
BRANCH  10  21
ATOM     21  C   UNL     1      -8.480  -7.429  -0.850  0.00  0.00    -0.024 A 
ATOM     22  C   UNL     1      -9.141  -6.974  -1.976  0.00  0.00    +0.009 A 
ATOM     23  C   UNL     1      -9.801  -7.866  -2.798  0.00  0.00    +0.046 A 
ATOM     24  C   UNL     1      -9.801  -9.219  -2.494  0.00  0.00    +0.120 A 
ATOM     25  C   UNL     1      -9.137  -9.673  -1.363  0.00  0.00    +0.046 A 
ATOM     26  C   UNL     1      -8.473  -8.778  -0.547  0.00  0.00    +0.009 A 
BRANCH  24  27
ATOM     27  O   UNL     1     -10.450 -10.099  -3.301  0.00  0.00    -0.495 OA
ATOM     28  C   UNL     1     -10.408 -11.477  -2.925  0.00  0.00    +0.277 C 
ENDBRANCH  24  27
ENDBRANCH  10  21
BRANCH  11  29
ATOM     29  C   UNL     1     -10.315  -3.517   0.131  0.00  0.00    +0.175 C 
BRANCH  29  30
ATOM     30  S   UNL     1     -12.127  -3.572   0.193  0.00  0.00    -0.075 S 
BRANCH  30  31
ATOM     31  C   UNL     1     -12.605  -1.876   0.196  0.00  0.00    +0.210 A 
ATOM     32  N   UNL     1     -13.864  -1.423   0.240  0.00  0.00    -0.188 NA
ATOM     33  C   UNL     1     -13.861  -0.107   0.228  0.00  0.00    +0.209 A 
ATOM     34  N   UNL     1     -12.577   0.307   0.174  0.00  0.00    -0.246 N 
ATOM     35  H   UNL     1     -12.263   1.224   0.154  0.00  0.00    +0.192 HD
ATOM     36  N   UNL     1     -11.786  -0.853   0.160  0.00  0.00    -0.144 NA
ATOM     37  N   UNL     1     -14.977   0.709   0.263  0.00  0.00    -0.328 N 
ATOM     38  H   UNL     1     -15.863   0.317   0.300  0.00  0.00    +0.145 HD
ATOM     39  H   UNL     1     -14.873   1.673   0.250  0.00  0.00    +0.145 HD
ENDBRANCH  30  31
ENDBRANCH  29  30
ENDBRANCH  11  29
TORSDOF 7
