REMARK  Name = ZINC36295967
REMARK  4 active torsions:
REMARK  status: ('A' for Active; 'I' for Inactive)
REMARK    1  A    between atoms: C_4  and  N_8
REMARK    2  A    between atoms: C_6  and  N_7
REMARK    3  A    between atoms: N_8  and  S_9
REMARK    4  A    between atoms: S_9  and  C_12
REMARK                            x       y       z     vdW  Elec       q    Type
REMARK                         _______ _______ _______ _____ _____    ______ ____
ROOT
ATOM      1  N   UNL     1       3.626  -0.646  -0.036  0.00  0.00    -0.099 NA
ENDROOT
BRANCH   1   5
ATOM      2  C   UNL     1      -0.017   1.385   0.010  0.00  0.00    +0.025 A 
ATOM      3  C   UNL     1       1.170   2.094   0.002  0.00  0.00    +0.042 A 
ATOM      4  C   UNL     1       2.379   1.423  -0.013  0.00  0.00    +0.148 A 
ATOM      5  C   UNL     1       2.404   0.032  -0.021  0.00  0.00    +0.111 A 
ATOM      6  C   UNL     1       1.214  -0.681  -0.013  0.00  0.00    +0.052 A 
ATOM      7  C   UNL     1       0.002  -0.004   0.002  0.00  0.00    +0.027 A 
ATOM      8  F   UNL     1       3.537   2.119  -0.021  0.00  0.00    -0.203 F 
BRANCH   7   9
ATOM      9  N   UNL     1      -1.199  -0.720   0.010  0.00  0.00    -0.358 N 
ATOM     10  H   UNL     1      -2.046  -0.247   0.021  0.00  0.00    +0.142 HD
ATOM     11  H   UNL     1      -1.185  -1.690   0.005  0.00  0.00    +0.142 HD
ENDBRANCH   7   9
ENDBRANCH   1   5
BRANCH   1  12
ATOM     12  S   UNL     1       5.046   0.206  -0.046  0.00  0.00    +0.067 S 
ATOM     13  O   UNL     1       5.034   0.916  -1.277  0.00  0.00    -0.153 OA
ATOM     14  O   UNL     1       5.059   0.903   1.192  0.00  0.00    -0.153 OA
BRANCH  12  15
ATOM     15  C   UNL     1       6.348  -1.057  -0.066  0.00  0.00    +0.175 C 
ATOM     16  C   UNL     1       6.204  -1.918  -1.331  0.00  0.00    +0.052 C 
ATOM     17  C   UNL     1       7.495  -2.773  -1.484  0.00  0.00    +0.168 C 
ATOM     18  S   UNL     1       8.777  -1.536  -1.014  0.00  0.00    -0.029 S 
ATOM     19  O   UNL     1       9.240  -0.882  -2.188  0.00  0.00    -0.174 OA
ATOM     20  O   UNL     1       9.713  -2.150  -0.140  0.00  0.00    -0.174 OA
ATOM     21  C   UNL     1       7.733  -0.367  -0.052  0.00  0.00    +0.194 C 
ENDBRANCH  12  15
ENDBRANCH   1  12
TORSDOF 4
