REMARK  Name = ZINC04282064
REMARK  9 active torsions:
REMARK  status: ('A' for Active; 'I' for Inactive)
REMARK    1  A    between atoms: C_4  and  C_7
REMARK    2  A    between atoms: C_7  and  O_8
REMARK    3  A    between atoms: O_8  and  C_9
REMARK    4  A    between atoms: C_12  and  C_15
REMARK    5  A    between atoms: C_16  and  C_26
REMARK    6  A    between atoms: N_18  and  C_20
REMARK    7  A    between atoms: N_27  and  N_28
REMARK    8  A    between atoms: N_28  and  S_29
REMARK    9  A    between atoms: S_29  and  C_32
REMARK                            x       y       z     vdW  Elec       q    Type
REMARK                         _______ _______ _______ _____ _____    ______ ____
ROOT
ATOM      1  C   UNL     1      -4.711   0.069   2.196  0.00  0.00    +0.102 A 
ATOM      2  C   UNL     1      -3.963   0.953   3.094  0.00  0.00    +0.040 A 
ATOM      3  C   UNL     1      -4.857   1.425   4.014  0.00  0.00    +0.124 A 
ATOM      4  N   UNL     1      -6.067   0.899   3.728  0.00  0.00    -0.239 N 
ATOM      5  N   UNL     1      -5.960   0.066   2.610  0.00  0.00    -0.166 NA
ENDROOT
BRANCH   1   9
ATOM      6  C   UNL     1      -3.140  -2.081  -1.119  0.00  0.00    +0.121 A 
ATOM      7  C   UNL     1      -4.067  -2.684  -0.279  0.00  0.00    +0.046 A 
ATOM      8  C   UNL     1      -4.578  -1.989   0.797  0.00  0.00    +0.013 A 
ATOM      9  C   UNL     1      -4.164  -0.680   1.041  0.00  0.00    +0.003 A 
ATOM     10  C   UNL     1      -3.237  -0.076   0.192  0.00  0.00    +0.013 A 
ATOM     11  C   UNL     1      -2.725  -0.778  -0.879  0.00  0.00    +0.046 A 
BRANCH   6  12
ATOM     12  O   UNL     1      -2.638  -2.768  -2.178  0.00  0.00    -0.487 OA
BRANCH  12  13
ATOM     13  C   UNL     1      -1.608  -2.130  -2.936  0.00  0.00    +0.264 C 
BRANCH  13  17
ATOM     14  C   UNL     1      -0.536  -4.606  -6.248  0.00  0.00    +0.000 A 
ATOM     15  C   UNL     1      -1.539  -3.665  -6.385  0.00  0.00    +0.000 A 
ATOM     16  C   UNL     1      -1.887  -2.865  -5.313  0.00  0.00    +0.007 A 
ATOM     17  C   UNL     1      -1.230  -3.004  -4.105  0.00  0.00    -0.010 A 
ATOM     18  C   UNL     1      -0.223  -3.941  -3.969  0.00  0.00    +0.007 A 
ATOM     19  C   UNL     1       0.121  -4.746  -5.040  0.00  0.00    +0.000 A 
ENDBRANCH  13  17
ENDBRANCH  12  13
ENDBRANCH   6  12
ENDBRANCH   1   9
BRANCH   4  20
ATOM     20  C   UNL     1      -7.246   1.146   4.443  0.00  0.00    +0.065 A 
ATOM     21  C   UNL     1      -7.228   1.992   5.544  0.00  0.00    +0.028 A 
ATOM     22  C   UNL     1      -8.393   2.236   6.245  0.00  0.00    +0.002 A 
ATOM     23  C   UNL     1      -9.575   1.633   5.856  0.00  0.00    +0.000 A 
ATOM     24  C   UNL     1      -9.595   0.787   4.762  0.00  0.00    +0.002 A 
ATOM     25  C   UNL     1      -8.435   0.542   4.055  0.00  0.00    +0.028 A 
ENDBRANCH   4  20
BRANCH   2  26
ATOM     26  C   UNL     1      -2.524   1.269   3.022  0.00  0.00    +0.143 C 
ATOM     27  N   UNL     1      -1.974   2.001   3.940  0.00  0.00    -0.174 NA
BRANCH  27  28
ATOM     28  N   UNL     1      -0.589   2.214   3.930  0.00  0.00    -0.137 N 
ATOM     29  H   UNL     1      -0.052   1.876   3.197  0.00  0.00    +0.197 HD
BRANCH  28  30
ATOM     30  S   UNL     1       0.130   3.044   5.170  0.00  0.00    +0.086 S 
ATOM     31  O   UNL     1      -0.503   4.314   5.229  0.00  0.00    -0.149 OA
ATOM     32  O   UNL     1       1.533   2.899   4.996  0.00  0.00    -0.149 OA
BRANCH  30  33
ATOM     33  C   UNL     1      -0.281   2.206   6.665  0.00  0.00    +0.110 A 
ATOM     34  C   UNL     1      -1.356   2.631   7.422  0.00  0.00    +0.029 A 
ATOM     35  C   UNL     1      -1.682   1.971   8.592  0.00  0.00    +0.002 A 
ATOM     36  C   UNL     1      -0.926   0.892   9.010  0.00  0.00    +0.000 A 
ATOM     37  C   UNL     1       0.153   0.470   8.256  0.00  0.00    +0.002 A 
ATOM     38  C   UNL     1       0.475   1.127   7.083  0.00  0.00    +0.029 A 
ENDBRANCH  30  33
ENDBRANCH  28  30
ENDBRANCH  27  28
ENDBRANCH   2  26
TORSDOF 9
