REMARK  Name = ZINC36527163
REMARK  15 active torsions:
REMARK  status: ('A' for Active; 'I' for Inactive)
REMARK    1  A    between atoms: C_1  and  C_2
REMARK    2  A    between atoms: C_2  and  C_3
REMARK    3  A    between atoms: C_3  and  C_4
REMARK    4  A    between atoms: C_4  and  C_5
REMARK    5  A    between atoms: C_5  and  C_7
REMARK    6  A    between atoms: C_5  and  C_9
REMARK    7  A    between atoms: C_7  and  C_8
REMARK    8  A    between atoms: N_11  and  C_12
REMARK    9  A    between atoms: N_11  and  C_13
REMARK   10  A    between atoms: C_13  and  C_15
REMARK   11  A    between atoms: C_13  and  C_24
REMARK   12  A    between atoms: N_26  and  C_27
REMARK   13  A    between atoms: C_27  and  S_28
REMARK   14  A    between atoms: S_28  and  C_31
REMARK   15  A    between atoms: C_34  and  C_37
REMARK                            x       y       z     vdW  Elec       q    Type
REMARK                         _______ _______ _______ _____ _____    ______ ____
ROOT
ATOM      1  C   UNL     1       2.792  -6.077  -3.197  0.00  0.00    +0.192 C 
ENDROOT
BRANCH   1   2
ATOM      2  C   UNL     1       4.197  -6.451  -2.800  0.00  0.00    -0.015 A 
ATOM      3  C   UNL     1       4.407  -7.320  -1.745  0.00  0.00    +0.010 A 
ATOM      4  C   UNL     1       5.693  -7.667  -1.377  0.00  0.00    +0.050 A 
ATOM      5  C   UNL     1       6.776  -7.143  -2.064  0.00  0.00    +0.166 A 
ATOM      6  C   UNL     1       6.564  -6.268  -3.127  0.00  0.00    +0.167 A 
ATOM      7  C   UNL     1       5.272  -5.929  -3.494  0.00  0.00    +0.055 A 
ATOM      8  O   UNL     1       7.776  -5.896  -3.634  0.00  0.00    -0.453 OA
ATOM      9  C   UNL     1       8.738  -6.229  -2.615  0.00  0.00    +0.466 C 
ATOM     10  O   UNL     1       8.120  -7.319  -1.906  0.00  0.00    -0.453 OA
ENDBRANCH   1   2
BRANCH   1  13
ATOM     11  C   UNL     1       1.772  -4.026  -2.366  0.00  0.00    +0.219 C 
ATOM     12  O   UNL     1       1.616  -2.824  -2.406  0.00  0.00    -0.275 OA
ATOM     13  N   UNL     1       2.655  -4.619  -3.194  0.00  0.00    -0.289 N 
ATOM     14  C   UNL     1       3.479  -3.804  -4.091  0.00  0.00    +0.133 C 
BRANCH  11  15
ATOM     15  C   UNL     1       0.979  -4.857  -1.391  0.00  0.00    +0.075 C 
BRANCH  15  16
ATOM     16  C   UNL     1       1.906  -5.370  -0.287  0.00  0.00    +0.009 C 
ATOM     17  C   UNL     1       2.446  -4.186   0.517  0.00  0.00    +0.004 C 
ENDBRANCH  15  16
BRANCH  15  18
ATOM     18  C   UNL     1      -0.126  -4.000  -0.771  0.00  0.00    +0.013 C 
BRANCH  18  19
ATOM     19  C   UNL     1      -1.008  -4.873   0.124  0.00  0.00    +0.000 C 
BRANCH  19  21
ATOM     20  C   UNL     1      -2.929  -4.870   1.722  0.00  0.00    +0.004 C 
ATOM     21  C   UNL     1      -2.047  -3.997   0.827  0.00  0.00    -0.003 C 
ENDBRANCH  19  21
ENDBRANCH  18  19
ENDBRANCH  15  18
ENDBRANCH  11  15
ENDBRANCH   1  13
BRANCH   1  22
ATOM     22  C   UNL     1       2.503  -6.606  -4.578  0.00  0.00    +0.239 C 
ATOM     23  O   UNL     1       2.212  -5.840  -5.472  0.00  0.00    -0.273 OA
ATOM     24  N   UNL     1       2.568  -7.930  -4.820  0.00  0.00    -0.294 N 
ATOM     25  H   UNL     1       2.801  -8.543  -4.105  0.00  0.00    +0.150 HD
BRANCH  24  26
ATOM     26  C   UNL     1       2.288  -8.444  -6.163  0.00  0.00    +0.278 C 
BRANCH  26  27
ATOM     27  S   UNL     1       3.844  -8.640  -7.073  0.00  0.00    +0.013 S 
ATOM     28  O   UNL     1       3.595  -9.198  -8.356  0.00  0.00    -0.168 OA
ATOM     29  O   UNL     1       4.643  -7.473  -6.934  0.00  0.00    -0.168 OA
BRANCH  27  30
ATOM     30  C   UNL     1       4.723  -9.894  -6.202  0.00  0.00    +0.090 A 
ATOM     31  C   UNL     1       5.573  -9.550  -5.166  0.00  0.00    +0.027 A 
ATOM     32  C   UNL     1       6.262 -10.534  -4.482  0.00  0.00    +0.005 A 
ATOM     33  C   UNL     1       6.103 -11.861  -4.834  0.00  0.00    -0.050 A 
ATOM     34  C   UNL     1       5.253 -12.205  -5.868  0.00  0.00    +0.005 A 
ATOM     35  C   UNL     1       4.560 -11.222  -6.549  0.00  0.00    +0.027 A 
ATOM     36  C   UNL     1       6.855 -12.934  -4.089  0.00  0.00    +0.044 C 
ENDBRANCH  27  30
ENDBRANCH  26  27
ENDBRANCH  24  26
ENDBRANCH   1  22
TORSDOF 11
