REMARK  Name = ZINC20759472
REMARK  2 active torsions:
REMARK  status: ('A' for Active; 'I' for Inactive)
REMARK    1  A    between atoms: C_1  and  N_2
REMARK    2  A    between atoms: C_5  and  C_11
REMARK                            x       y       z     vdW  Elec       q    Type
REMARK                         _______ _______ _______ _____ _____    ______ ____
ROOT
ATOM      1  C   UNL     1      -1.144  -3.539  -0.006  0.00  0.00    +0.018 C 
ATOM      2  C   UNL     1      -0.428  -2.208  -0.005  0.00  0.00    +0.011 A 
ATOM      3  C   UNL     1       0.916  -2.099  -0.016  0.00  0.00    -0.022 A 
ATOM      4  C   UNL     1       1.239  -0.678  -0.013  0.00  0.00    +0.004 A 
ATOM      5  C   UNL     1       2.428   0.055  -0.021  0.00  0.00    +0.030 A 
ATOM      6  C   UNL     1       2.386   1.421  -0.012  0.00  0.00    +0.042 A 
ATOM      7  C   UNL     1       1.168   2.089   0.002  0.00  0.00    +0.022 A 
ATOM      8  C   UNL     1      -0.017   1.387   0.010  0.00  0.00    +0.027 A 
ATOM      9  C   UNL     1       0.002  -0.004   0.002  0.00  0.00    +0.047 A 
ATOM     10  N   UNL     1      -0.988  -0.964   0.006  0.00  0.00    -0.359 N 
ATOM     11  H   UNL     1      -2.082  -0.854   0.016  0.00  0.00    +0.166 HD
ATOM     12 CL   UNL     1       3.866   2.328  -0.021  0.00  0.00    -0.084 Cl
ATOM     13  C   UNL     1       1.853  -3.280  -0.025  0.00  0.00    +0.018 C 
ATOM     14  C   UNL     1       1.047  -4.524   0.372  0.00  0.00    -0.076 C 
ATOM     15  N   UNL     1      -0.190  -4.580  -0.420  0.00  0.00    +0.388 N 
ATOM     16  H   UNL     1      -0.646  -5.572  -0.284  0.00  0.00    -0.084 HD
ATOM     17  H   UNL     1       0.070  -4.439  -1.480  0.00  0.00    -0.084 HD
ENDROOT
BRANCH   1  22
ATOM     18  C   UNL     1      -2.880  -3.106  -4.634  0.00  0.00    +0.154 C 
ATOM     19  N   UNL     1      -3.115  -3.285  -3.200  0.00  0.00    -0.291 N 
ATOM     20  C   UNL     1      -2.069  -3.316  -2.350  0.00  0.00    +0.260 A 
ATOM     21  O   UNL     1      -0.931  -3.195  -2.772  0.00  0.00    -0.267 OA
ATOM     22  C   UNL     1      -2.298  -3.495  -0.974  0.00  0.00    +0.073 A 
ATOM     23  C   UNL     1      -3.580  -3.622  -0.527  0.00  0.00    +0.258 A 
ATOM     24  N   UNL     1      -4.616  -3.578  -1.426  0.00  0.00    -0.302 N 
ATOM     25  C   UNL     1      -4.372  -3.413  -2.739  0.00  0.00    +0.163 A 
ATOM     26  S   UNL     1      -5.683  -3.363  -3.840  0.00  0.00    -0.013 S 
ATOM     27  O   UNL     1      -3.829  -3.788   0.789  0.00  0.00    -0.267 OA
ATOM     28  H   UNL     1      -5.653  -3.679  -1.075  0.00  0.00    +0.171 HD
ENDBRANCH   1  22
TORSDOF 1
