REMARK  Name = ZINC05140083
REMARK  11 active torsions:
REMARK  status: ('A' for Active; 'I' for Inactive)
REMARK    1  A    between atoms: C_1  and  C_2
REMARK    2  A    between atoms: C_2  and  O_3
REMARK    3  A    between atoms: O_3  and  C_4
REMARK    4  A    between atoms: C_7  and  C_12
REMARK    5  A    between atoms: C_9  and  O_10
REMARK    6  A    between atoms: O_10  and  C_11
REMARK    7  A    between atoms: C_13  and  C_14
REMARK    8  A    between atoms: C_15  and  C_29
REMARK    9  A    between atoms: C_15  and  C_30
REMARK   10  A    between atoms: C_18  and  C_28
REMARK   11  A    between atoms: C_25  and  O_27
REMARK                            x       y       z     vdW  Elec       q    Type
REMARK                         _______ _______ _______ _____ _____    ______ ____
ROOT
ATOM      1  C   UNL     1       0.738  -8.340   1.003  0.00  0.00    +0.159 C 
ATOM      2  C   UNL     1       1.563  -8.937  -0.145  0.00  0.00    +0.037 C 
ATOM      3  C   UNL     1       2.853  -9.350   0.505  0.00  0.00    -0.016 A 
ATOM      4  C   UNL     1       4.002  -9.858  -0.072  0.00  0.00    +0.009 A 
ATOM      5  C   UNL     1       5.065 -10.144   0.776  0.00  0.00    -0.050 A 
ATOM      6  C   UNL     1       4.977  -9.929   2.136  0.00  0.00    +0.005 A 
ATOM      7  C   UNL     1       3.828  -9.427   2.725  0.00  0.00    +0.024 A 
ATOM      8  C   UNL     1       2.747  -9.139   1.884  0.00  0.00    +0.036 A 
ATOM      9  N   UNL     1       1.498  -8.671   2.224  0.00  0.00    -0.301 N 
ATOM     10  C   UNL     1       0.880  -8.553   3.556  0.00  0.00    +0.117 C 
ATOM     11  C   UNL     1      -0.356  -9.465   3.537  0.00  0.00    +0.114 C 
ATOM     12  C   UNL     1      -1.042  -9.422   2.208  0.00  0.00    +0.186 C 
ATOM     13  N   UNL     1      -0.583  -8.944   1.123  0.00  0.00    -0.224 NA
ATOM     14  C   UNL     1       6.340 -10.701   0.198  0.00  0.00    +0.044 C 
ATOM     15  C   UNL     1       0.850 -10.152  -0.741  0.00  0.00    +0.020 C 
ATOM     16  C   UNL     1       1.820  -7.883  -1.224  0.00  0.00    +0.020 C 
ENDROOT
BRANCH   1  18
ATOM     17  C   UNL     1       1.140  -6.039   1.758  0.00  0.00    +0.008 C 
ATOM     18  C   UNL     1       0.619  -6.846   0.844  0.00  0.00    +0.024 C 
BRANCH  17  22
ATOM     19  C   UNL     1       0.802  -1.825   1.306  0.00  0.00    +0.162 A 
ATOM     20  C   UNL     1       0.259  -2.671   0.350  0.00  0.00    +0.050 A 
ATOM     21  C   UNL     1       0.367  -4.038   0.494  0.00  0.00    +0.012 A 
ATOM     22  C   UNL     1       1.024  -4.574   1.602  0.00  0.00    -0.022 A 
ATOM     23  C   UNL     1       1.571  -3.723   2.564  0.00  0.00    +0.057 A 
ATOM     24  C   UNL     1       1.464  -2.353   2.412  0.00  0.00    +0.162 A 
BRANCH  24  25
ATOM     25  O   UNL     1       2.000  -1.521   3.345  0.00  0.00    -0.491 OA
ATOM     26  C   UNL     1       2.664  -2.131   4.453  0.00  0.00    +0.277 C 
ENDBRANCH  24  25
BRANCH  19  27
ATOM     27  O   UNL     1       0.693  -0.477   1.160  0.00  0.00    -0.489 OA
BRANCH  27  29
ATOM     28  C   UNL     1      -0.019   1.526   0.010  0.00  0.00    +0.048 C 
ATOM     29  C   UNL     1       0.002  -0.004   0.002  0.00  0.00    +0.226 C 
ENDBRANCH  27  29
ENDBRANCH  19  27
ENDBRANCH  17  22
ENDBRANCH   1  18
BRANCH  12  30
ATOM     30  O   UNL     1      -2.291  -9.930   2.160  0.00  0.00    -0.496 OA
ATOM     31  H   UNL     1      -2.701  -9.885   1.286  0.00  0.00    +0.293 HD
ENDBRANCH  12  30
TORSDOF 6
