REMARK  Name = ZINC35171944
REMARK  10 active torsions:
REMARK  status: ('A' for Active; 'I' for Inactive)
REMARK    1  A    between atoms: C_1  and  C_2
REMARK    2  A    between atoms: C_2  and  C_3
REMARK    3  A    between atoms: C_3  and  N_4
REMARK    4  A    between atoms: N_4  and  C_5
REMARK    5  A    between atoms: C_5  and  C_6
REMARK    6  A    between atoms: N_8  and  C_9
REMARK    7  A    between atoms: C_11  and  C_21
REMARK    8  A    between atoms: N_13  and  C_14
REMARK    9  A    between atoms: C_27  and  C_29
REMARK   10  A    between atoms: C_30  and  C_31
REMARK                            x       y       z     vdW  Elec       q    Type
REMARK                         _______ _______ _______ _____ _____    ______ ____
ROOT
ATOM      1  C   UNL     1      -0.074  -2.886  -3.361  0.00  0.00    +0.236 C 
ATOM      2  O   UNL     1       0.985  -2.505  -3.814  0.00  0.00    -0.274 OA
ATOM      3  N   UNL     1      -0.941  -3.556  -4.147  0.00  0.00    -0.269 N 
ATOM      4  H   UNL     1      -1.787  -3.861  -3.785  0.00  0.00    +0.156 HD
ENDROOT
BRANCH   3   5
ATOM      5  C   UNL     1      -0.621  -3.809  -5.481  0.00  0.00    +0.129 A 
ATOM      6  C   UNL     1       0.467  -3.342  -6.147  0.00  0.00    +0.074 A 
ATOM      7  C   UNL     1       0.409  -3.833  -7.465  0.00  0.00    +0.095 A 
ATOM      8  N   UNL     1      -0.677  -4.569  -7.582  0.00  0.00    -0.165 NA
ATOM      9  N   UNL     1      -1.339  -4.575  -6.348  0.00  0.00    -0.216 N 
BRANCH   9  10
ATOM     10  C   UNL     1      -2.534  -5.247  -6.058  0.00  0.00    +0.086 A 
ATOM     11  C   UNL     1      -3.571  -4.580  -5.419  0.00  0.00    +0.029 A 
ATOM     12  C   UNL     1      -4.747  -5.246  -5.135  0.00  0.00    +0.002 A 
ATOM     13  C   UNL     1      -4.893  -6.576  -5.485  0.00  0.00    +0.002 A 
ATOM     14  C   UNL     1      -3.863  -7.244  -6.121  0.00  0.00    +0.022 A 
ATOM     15  C   UNL     1      -2.685  -6.582  -6.413  0.00  0.00    +0.066 A 
ATOM     16 CL   UNL     1      -1.395  -7.419  -7.219  0.00  0.00    -0.081 Cl
ENDBRANCH   9  10
BRANCH   7  17
ATOM     17  C   UNL     1       1.400  -3.567  -8.537  0.00  0.00    +0.002 A 
ATOM     18  C   UNL     1       2.514  -2.771  -8.278  0.00  0.00    +0.010 A 
ATOM     19  C   UNL     1       3.432  -2.528  -9.279  0.00  0.00    +0.001 A 
ATOM     20  C   UNL     1       3.249  -3.072 -10.537  0.00  0.00    +0.000 A 
ATOM     21  C   UNL     1       2.145  -3.863 -10.800  0.00  0.00    +0.001 A 
ATOM     22  C   UNL     1       1.223  -4.118  -9.805  0.00  0.00    +0.010 A 
ENDBRANCH   7  17
ENDBRANCH   3   5
BRANCH   1  23
ATOM     23  C   UNL     1      -0.420  -2.612  -1.921  0.00  0.00    +0.204 C 
BRANCH  23  24
ATOM     24  N   UNL     1       0.677  -1.877  -1.286  0.00  0.00    -0.289 N 
ATOM     25  C   UNL     1       1.679  -2.547  -0.684  0.00  0.00    +0.240 C 
ATOM     26  O   UNL     1       1.672  -3.764  -0.666  0.00  0.00    -0.271 OA
BRANCH  25  27
ATOM     27  C   UNL     1       2.775  -1.812  -0.050  0.00  0.00    +0.068 C 
ATOM     28  C   UNL     1       3.777  -2.483   0.553  0.00  0.00    +0.013 C 
BRANCH  28  29
ATOM     29  C   UNL     1       4.879  -1.744   1.190  0.00  0.00    -0.025 A 
ATOM     30  C   UNL     1       4.887  -0.345   1.177  0.00  0.00    +0.008 A 
ATOM     31  C   UNL     1       5.923   0.340   1.776  0.00  0.00    +0.001 A 
ATOM     32  C   UNL     1       6.953  -0.352   2.389  0.00  0.00    +0.000 A 
ATOM     33  C   UNL     1       6.952  -1.736   2.406  0.00  0.00    +0.001 A 
ATOM     34  C   UNL     1       5.920  -2.436   1.816  0.00  0.00    +0.008 A 
ENDBRANCH  28  29
ENDBRANCH  25  27
BRANCH  24  35
ATOM     35  C   UNL     1       0.685  -0.412  -1.308  0.00  0.00    +0.108 C 
BRANCH  35  37
ATOM     36  C   UNL     1      -0.036   1.650  -0.095  0.00  0.00    +0.005 C 
ATOM     37  C   UNL     1      -0.045   0.120  -0.073  0.00  0.00    +0.016 C 
ENDBRANCH  35  37
ENDBRANCH  24  35
ENDBRANCH  23  24
ENDBRANCH   1  23
TORSDOF 9
