REMARK  Name = ZINC14476216
REMARK  4 active torsions:
REMARK  status: ('A' for Active; 'I' for Inactive)
REMARK    1  A    between atoms: C_6  and  C_7
REMARK    2  A    between atoms: C_23  and  C_26
REMARK    3  A    between atoms: C_28  and  N_33
REMARK    4  A    between atoms: C_31  and  O_32
REMARK                            x       y       z     vdW  Elec       q    Type
REMARK                         _______ _______ _______ _____ _____    ______ ____
ROOT
ATOM      1  C   UNL     1       1.982   5.884  -0.747  0.00  0.00    +0.015 A 
ATOM      2  C   UNL     1       0.923   5.406  -0.014  0.00  0.00    +0.024 A 
ATOM      3  C   UNL     1       0.893   4.077   0.403  0.00  0.00    +0.031 A 
ATOM      4  C   UNL     1       1.963   3.229   0.079  0.00  0.00    -0.019 A 
ATOM      5  C   UNL     1       3.020   3.703  -0.658  0.00  0.00    +0.019 A 
ATOM      6  C   UNL     1       3.042   5.036  -1.080  0.00  0.00    +0.037 A 
ATOM      7  C   UNL     1       1.897   1.833   0.561  0.00  0.00    +0.049 C 
ATOM      8  C   UNL     1       2.602   0.726  -0.135  0.00  0.00    -0.023 C 
ATOM      9  C   UNL     1       1.903  -0.390   0.026  0.00  0.00    -0.030 C 
ATOM     10  C   UNL     1       0.634  -0.101   0.830  0.00  0.00    +0.033 C 
ATOM     11  C   UNL     1       0.405   1.385   0.522  0.00  0.00    +0.029 C 
ATOM     12  C   UNL     1      -0.293   2.214   1.584  0.00  0.00    +0.108 C 
ATOM     13  N   UNL     1      -0.213   3.614   1.115  0.00  0.00    -0.336 N 
ATOM     14  H   UNL     1      -1.036   4.313   1.325  0.00  0.00    +0.147 HD
ENDROOT
BRANCH   6  15
ATOM     15  C   UNL     1       4.178   5.544  -1.872  0.00  0.00    +0.247 C 
ATOM     16  O   UNL     1       4.614   6.660  -1.663  0.00  0.00    -0.270 OA
ATOM     17  N   UNL     1       4.733   4.772  -2.827  0.00  0.00    -0.298 N 
ATOM     18  C   UNL     1       5.919   5.249  -3.502  0.00  0.00    +0.108 C 
ATOM     19  C   UNL     1       5.520   6.084  -4.737  0.00  0.00    +0.019 C 
ATOM     20  C   UNL     1       4.976   5.211  -5.789  0.00  0.00    +0.002 C 
ATOM     21  C   UNL     1       3.697   4.477  -5.397  0.00  0.00    +0.002 C 
ATOM     22  C   UNL     1       4.053   3.210  -4.660  0.00  0.00    +0.019 C 
ATOM     23  C   UNL     1       4.101   3.476  -3.144  0.00  0.00    +0.108 C 
ENDBRANCH   6  15
BRANCH  12  24
ATOM     24  C   UNL     1      -1.734   1.790   1.712  0.00  0.00    +0.017 A 
ATOM     25  C   UNL     1      -2.719   2.470   1.022  0.00  0.00    +0.041 A 
ATOM     26  C   UNL     1      -4.040   2.078   1.134  0.00  0.00    +0.127 A 
ATOM     27  C   UNL     1      -4.380   1.012   1.946  0.00  0.00    +0.036 A 
ATOM     28  C   UNL     1      -3.400   0.332   2.642  0.00  0.00    +0.048 A 
ATOM     29  C   UNL     1      -2.073   0.720   2.527  0.00  0.00    +0.122 A 
BRANCH  26  30
ATOM     30  N   UNL     1      -5.092   2.805   0.389  0.00  0.00    +0.056 N 
ATOM     31  O   UNL     1      -6.257   2.464   0.492  0.00  0.00    -0.126 OA
ATOM     32  O   UNL     1      -4.793   3.744  -0.327  0.00  0.00    -0.126 OA
ENDBRANCH  26  30
BRANCH  29  33
ATOM     33  O   UNL     1      -1.107   0.052   3.211  0.00  0.00    -0.506 OA
ATOM     34  H   UNL     1      -1.377  -0.796   3.857  0.00  0.00    +0.292 HD
ENDBRANCH  29  33
ENDBRANCH  12  24
TORSDOF 4
