REMARK  Name = ZINC19816747
REMARK  11 active torsions:
REMARK  status: ('A' for Active; 'I' for Inactive)
REMARK    1  A    between atoms: C_1  and  N_2
REMARK    2  A    between atoms: C_13  and  C_16
REMARK    3  A    between atoms: C_19  and  O_22
REMARK    4  A    between atoms: O_22  and  C_23
REMARK    5  A    between atoms: C_23  and  C_25
REMARK    6  A    between atoms: C_27  and  O_35
REMARK    7  A    between atoms: C_28  and  O_33
REMARK    8  A    between atoms: C_29  and  O_31
REMARK    9  A    between atoms: O_31  and  C_32
REMARK   10  A    between atoms: O_33  and  C_34
REMARK   11  A    between atoms: O_35  and  C_36
REMARK                            x       y       z     vdW  Elec       q    Type
REMARK                         _______ _______ _______ _____ _____    ______ ____
ROOT
ATOM      1  C   UNL     1      -3.832   5.755  -3.816  0.00  0.00    -0.009 A 
ATOM      2  C   UNL     1      -4.390   6.525  -2.812  0.00  0.00    +0.010 A 
ATOM      3  C   UNL     1      -5.745   6.450  -2.554  0.00  0.00    +0.047 A 
ATOM      4  C   UNL     1      -6.544   5.592  -3.296  0.00  0.00    +0.132 A 
ATOM      5  C   UNL     1      -5.981   4.816  -4.299  0.00  0.00    +0.047 A 
ATOM      6  C   UNL     1      -4.627   4.899  -4.556  0.00  0.00    +0.010 A 
ENDROOT
BRANCH   1  19
ATOM      7  C   UNL     1      -0.253   0.287   1.916  0.00  0.00    -0.096 C 
ATOM      8  N   UNL     1      -0.708   1.126   0.800  0.00  0.00    +0.381 N 
ATOM      9  C   UNL     1      -0.053   0.734  -0.456  0.00  0.00    -0.074 C 
ATOM     10  C   UNL     1      -0.797   1.342  -1.647  0.00  0.00    +0.018 C 
ATOM     11  C   UNL     1      -0.951   2.839  -1.399  0.00  0.00    -0.027 A 
ATOM     12  C   UNL     1      -0.795   3.336  -0.150  0.00  0.00    -0.021 A 
ATOM     13  S   UNL     1      -1.054   5.081  -0.319  0.00  0.00    -0.080 S 
ATOM     14  C   UNL     1      -1.361   5.145  -2.002  0.00  0.00    +0.080 A 
ATOM     15  C   UNL     1      -1.266   3.811  -2.430  0.00  0.00    +0.068 A 
ATOM     16  C   UNL     1      -1.482   3.538  -3.870  0.00  0.00    +0.248 C 
ATOM     17  O   UNL     1      -1.295   2.431  -4.340  0.00  0.00    -0.270 OA
ATOM     18  N   UNL     1      -1.894   4.567  -4.639  0.00  0.00    -0.289 N 
ATOM     19  C   UNL     1      -2.354   5.843  -4.098  0.00  0.00    +0.190 C 
ATOM     20  N   UNL     1      -1.644   6.183  -2.852  0.00  0.00    -0.316 N 
ATOM     21  C   UNL     1      -0.474   2.555   1.085  0.00  0.00    -0.036 C 
ATOM     22  H   UNL     1      -1.872   4.407  -5.727  0.00  0.00    +0.151 HD
ATOM     23  H   UNL     1      -1.367   7.227  -2.644  0.00  0.00    +0.149 HD
ATOM     24  H   UNL     1      -1.790   0.968   0.682  0.00  0.00    -0.082 HD
ENDBRANCH   1  19
BRANCH   4  25
ATOM     25  O   UNL     1      -7.877   5.512  -3.040  0.00  0.00    -0.422 OA
BRANCH  25  26
ATOM     26  C   UNL     1      -8.328   4.365  -2.496  0.00  0.00    +0.345 C 
ATOM     27  O   UNL     1      -7.542   3.502  -2.159  0.00  0.00    -0.245 OA
BRANCH  26  28
ATOM     28  C   UNL     1      -9.776   4.157  -2.309  0.00  0.00    +0.067 A 
ATOM     29  C   UNL     1     -10.681   5.151  -2.691  0.00  0.00    +0.064 A 
ATOM     30  C   UNL     1     -12.038   4.951  -2.519  0.00  0.00    +0.166 A 
ATOM     31  C   UNL     1     -12.503   3.765  -1.956  0.00  0.00    +0.204 A 
ATOM     32  C   UNL     1     -11.603   2.775  -1.570  0.00  0.00    +0.166 A 
ATOM     33  C   UNL     1     -10.245   2.967  -1.745  0.00  0.00    +0.064 A 
BRANCH  32  34
ATOM     34  O   UNL     1     -12.060   1.618  -1.022  0.00  0.00    -0.491 OA
ATOM     35  C   UNL     1     -11.081   0.646  -0.649  0.00  0.00    +0.277 C 
ENDBRANCH  32  34
BRANCH  31  36
ATOM     36  O   UNL     1     -13.837   3.574  -1.784  0.00  0.00    -0.488 OA
ATOM     37  C   UNL     1     -14.399   4.003  -0.542  0.00  0.00    +0.277 C 
ENDBRANCH  31  36
BRANCH  30  38
ATOM     38  O   UNL     1     -12.920   5.915  -2.896  0.00  0.00    -0.491 OA
ATOM     39  C   UNL     1     -12.374   7.106  -3.467  0.00  0.00    +0.277 C 
ENDBRANCH  30  38
ENDBRANCH  26  28
ENDBRANCH  25  26
ENDBRANCH   4  25
TORSDOF 7
