REMARK  Name = ZINC09550737
REMARK  10 active torsions:
REMARK  status: ('A' for Active; 'I' for Inactive)
REMARK    1  A    between atoms: C_1  and  S_2
REMARK    2  A    between atoms: S_2  and  C_3
REMARK    3  A    between atoms: C_6  and  S_12
REMARK    4  A    between atoms: C_8  and  N_9
REMARK    5  A    between atoms: S_12  and  N_15
REMARK    6  A    between atoms: N_15  and  C_16
REMARK    7  A    between atoms: C_16  and  C_17
REMARK    8  A    between atoms: C_17  and  O_19
REMARK    9  A    between atoms: O_19  and  C_20
REMARK   10  A    between atoms: C_20  and  C_21
REMARK                            x       y       z     vdW  Elec       q    Type
REMARK                         _______ _______ _______ _____ _____    ______ ____
ROOT
ATOM      1  S   UNL     1      -0.017   1.417   0.010  0.00  0.00    +0.059 S 
ATOM      2  O   UNL     1       0.002  -0.004   0.002  0.00  0.00    -0.153 OA
ATOM      3  O   UNL     1       1.172   2.195   0.003  0.00  0.00    -0.153 OA
ENDROOT
BRANCH   1   7
ATOM      4  C   UNL     1      -2.355   2.659   3.684  0.00  0.00    +0.038 A 
ATOM      5  C   UNL     1      -1.431   3.530   3.120  0.00  0.00    +0.019 A 
ATOM      6  C   UNL     1      -0.716   3.146   2.003  0.00  0.00    +0.030 A 
ATOM      7  C   UNL     1      -0.927   1.900   1.439  0.00  0.00    +0.107 A 
ATOM      8  C   UNL     1      -1.846   1.031   1.999  0.00  0.00    +0.062 A 
ATOM      9  C   UNL     1      -2.560   1.407   3.119  0.00  0.00    +0.141 A 
BRANCH   9  10
ATOM     10  N   UNL     1      -3.544   0.476   3.717  0.00  0.00    +0.058 N 
ATOM     11  O   UNL     1      -3.724  -0.621   3.220  0.00  0.00    -0.126 OA
ATOM     12  O   UNL     1      -4.174   0.808   4.705  0.00  0.00    -0.126 OA
ENDBRANCH   9  10
BRANCH   4  14
ATOM     13  C   UNL     1      -2.665   4.817   5.470  0.00  0.00    +0.090 C 
ATOM     14  S   UNL     1      -3.265   3.143   5.114  0.00  0.00    -0.126 S 
ENDBRANCH   4  14
ENDBRANCH   1   7
BRANCH   1  15
ATOM     15  N   UNL     1      -0.897   1.885  -1.312  0.00  0.00    -0.179 NA
ATOM     16  H   UNL     1      -1.263   1.218  -1.913  0.00  0.00    +0.149 HD
BRANCH  15  17
ATOM     17  C   UNL     1      -1.125   3.309  -1.574  0.00  0.00    +0.226 C 
BRANCH  17  18
ATOM     18  C   UNL     1      -1.614   3.488  -2.988  0.00  0.00    +0.323 C 
ATOM     19  O   UNL     1      -1.758   2.525  -3.704  0.00  0.00    -0.249 OA
BRANCH  18  20
ATOM     20  O   UNL     1      -1.890   4.717  -3.452  0.00  0.00    -0.459 OA
BRANCH  20  21
ATOM     21  C   UNL     1      -2.357   4.814  -4.823  0.00  0.00    +0.267 C 
BRANCH  21  22
ATOM     22  C   UNL     1      -2.614   6.259  -5.166  0.00  0.00    -0.009 A 
ATOM     23  C   UNL     1      -3.864   6.809  -4.950  0.00  0.00    +0.007 A 
ATOM     24  C   UNL     1      -4.098   8.136  -5.260  0.00  0.00    +0.002 A 
ATOM     25  C   UNL     1      -3.086   8.910  -5.794  0.00  0.00    +0.020 A 
ATOM     26  C   UNL     1      -1.836   8.359  -6.014  0.00  0.00    +0.041 A 
ATOM     27  C   UNL     1      -1.601   7.032  -5.700  0.00  0.00    +0.027 A 
ATOM     28 CL   UNL     1      -0.565   9.332  -6.686  0.00  0.00    -0.084 Cl
ENDBRANCH  21  22
ENDBRANCH  20  21
ENDBRANCH  18  20
ENDBRANCH  17  18
ENDBRANCH  15  17
ENDBRANCH   1  15
TORSDOF 9
