REMARK  Name = ZINC21320390
REMARK  7 active torsions:
REMARK  status: ('A' for Active; 'I' for Inactive)
REMARK    1  A    between atoms: C_1  and  C_2
REMARK    2  A    between atoms: C_7  and  C_8
REMARK    3  A    between atoms: C_8  and  S_9
REMARK    4  A    between atoms: S_9  and  C_10
REMARK    5  A    between atoms: N_14  and  N_15
REMARK    6  A    between atoms: N_16  and  N_17
REMARK    7  A    between atoms: C_18  and  C_19
REMARK                            x       y       z     vdW  Elec       q    Type
REMARK                         _______ _______ _______ _____ _____    ______ ____
ROOT
ATOM      1  C   UNL     1       1.225   1.819   0.000  0.00  0.00    +0.210 A 
ATOM      2  N   UNL     1      -0.017   1.397   0.010  0.00  0.00    -0.119 NA
ATOM      3  N   UNL     1       0.002  -0.004   0.002  0.00  0.00    -0.109 NA
ATOM      4  C   UNL     1       1.254  -0.392  -0.012  0.00  0.00    +0.254 A 
ATOM      5  N   UNL     1       2.043   0.725  -0.014  0.00  0.00    -0.211 N 
ATOM      6  N   UNL     1       1.701  -1.706  -0.024  0.00  0.00    -0.204 N 
ATOM      7  H   UNL     1       2.780  -1.919  -0.036  0.00  0.00    +0.177 HD
ENDROOT
BRANCH   5   8
ATOM      8  N   UNL     1       3.409   0.744  -0.026  0.00  0.00    -0.294 N 
ATOM      9  H   UNL     1       3.971  -0.201  -0.037  0.00  0.00    +0.163 HD
ATOM     10  H   UNL     1       3.945   1.704  -0.026  0.00  0.00    +0.163 HD
ENDBRANCH   5   8
BRANCH   6  11
ATOM     11  N   UNL     1       0.778  -2.759  -0.021  0.00  0.00    -0.188 NA
ATOM     12  C   UNL     1       1.196  -3.989  -0.032  0.00  0.00    +0.138 C 
BRANCH  12  13
ATOM     13  C   UNL     1       0.225  -5.098  -0.029  0.00  0.00    -0.003 A 
ATOM     14  C   UNL     1      -1.146  -4.828  -0.009  0.00  0.00    +0.028 A 
ATOM     15  C   UNL     1      -2.051  -5.869  -0.011  0.00  0.00    +0.066 A 
ATOM     16  C   UNL     1      -1.602  -7.183  -0.023  0.00  0.00    +0.207 A 
ATOM     17  C   UNL     1      -0.240  -7.456  -0.039  0.00  0.00    +0.066 A 
ATOM     18  C   UNL     1       0.672  -6.421  -0.042  0.00  0.00    +0.028 A 
ATOM     19 BR   UNL     1       0.364  -9.248  -0.055  0.00  0.00    -0.046 Br
ATOM     20  O   UNL     1      -2.498  -8.206  -0.020  0.00  0.00    -0.286 OA
ATOM     21 BR   UNL     1      -3.907  -5.506   0.011  0.00  0.00    -0.046 Br
ENDBRANCH  12  13
ENDBRANCH   6  11
BRANCH   1  22
ATOM     22  S   UNL     1       1.747   3.502   0.004  0.00  0.00    -0.080 S 
BRANCH  22  23
ATOM     23  C   UNL     1       0.195   4.442   0.025  0.00  0.00    +0.112 C 
BRANCH  23  30
ATOM     24  C   UNL     1       0.465   5.870  -2.472  0.00  0.00    +0.044 C 
ATOM     25  C   UNL     1       0.631   6.601  -1.165  0.00  0.00    -0.046 A 
ATOM     26  C   UNL     1       0.912   7.955  -1.160  0.00  0.00    +0.003 A 
ATOM     27  C   UNL     1       1.065   8.624   0.039  0.00  0.00    +0.000 A 
ATOM     28  C   UNL     1       0.936   7.941   1.234  0.00  0.00    +0.000 A 
ATOM     29  C   UNL     1       0.649   6.589   1.230  0.00  0.00    +0.005 A 
ATOM     30  C   UNL     1       0.502   5.918   0.030  0.00  0.00    -0.034 A 
ENDBRANCH  23  30
ENDBRANCH  22  23
ENDBRANCH   1  22
TORSDOF 6
