REMARK  Name = ZINC54641731
REMARK  12 active torsions:
REMARK  status: ('A' for Active; 'I' for Inactive)
REMARK    1  A    between atoms: C_1  and  C_2
REMARK    2  A    between atoms: C_3  and  C_31
REMARK    3  A    between atoms: C_4  and  C_21
REMARK    4  A    between atoms: C_9  and  S_11
REMARK    5  A    between atoms: S_11  and  C_12
REMARK    6  A    between atoms: C_12  and  C_13
REMARK    7  A    between atoms: C_24  and  C_27
REMARK    8  A    between atoms: C_27  and  C_28
REMARK    9  A    between atoms: C_27  and  C_29
REMARK   10  A    between atoms: C_27  and  C_30
REMARK   11  A    between atoms: C_31  and  O_33
REMARK   12  A    between atoms: O_33  and  C_34
REMARK                            x       y       z     vdW  Elec       q    Type
REMARK                         _______ _______ _______ _____ _____    ______ ____
ROOT
ATOM      1  C   UNL     1      -0.018   1.503   0.010  0.00  0.00    +0.061 C 
ATOM      2  C   UNL     1       0.002  -0.004   0.002  0.00  0.00    +0.020 C 
ATOM      3  C   UNL     1      -1.164  -0.669   0.004  0.00  0.00    +0.082 C 
ATOM      4  C   UNL     1      -1.253  -2.171  -0.016  0.00  0.00    +0.179 C 
ATOM      5  N   UNL     1       0.065  -2.740   0.256  0.00  0.00    -0.220 N 
ATOM      6  C   UNL     1       1.210  -2.015   0.250  0.00  0.00    +0.219 A 
ATOM      7  N   UNL     1       2.201  -2.820   0.521  0.00  0.00    -0.187 NA
ATOM      8  C   UNL     1       1.731  -4.062   0.710  0.00  0.00    +0.211 A 
ATOM      9  N   UNL     1       0.424  -4.053   0.557  0.00  0.00    -0.141 NA
ATOM     10  N   UNL     1       1.212  -0.651  -0.013  0.00  0.00    -0.287 N 
ATOM     11  H   UNL     1       2.037  -0.173  -0.196  0.00  0.00    +0.155 HD
ENDROOT
BRANCH   4  12
ATOM     12  C   UNL     1      -1.728  -2.629  -1.371  0.00  0.00    -0.018 A 
ATOM     13  C   UNL     1      -0.990  -2.328  -2.500  0.00  0.00    +0.006 A 
ATOM     14  C   UNL     1      -1.427  -2.748  -3.743  0.00  0.00    +0.004 A 
ATOM     15  C   UNL     1      -2.600  -3.468  -3.856  0.00  0.00    -0.042 A 
ATOM     16  C   UNL     1      -3.338  -3.770  -2.727  0.00  0.00    +0.004 A 
ATOM     17  C   UNL     1      -2.900  -3.354  -1.483  0.00  0.00    +0.006 A 
BRANCH  15  18
ATOM     18  C   UNL     1      -3.076  -3.925  -5.211  0.00  0.00    -0.013 C 
ATOM     19  C   UNL     1      -2.021  -4.835  -5.842  0.00  0.00    +0.015 C 
ATOM     20  C   UNL     1      -4.389  -4.696  -5.058  0.00  0.00    +0.015 C 
ATOM     21  C   UNL     1      -3.302  -2.707  -6.109  0.00  0.00    +0.015 C 
ENDBRANCH  15  18
ENDBRANCH   4  12
BRANCH   3  22
ATOM     22  C   UNL     1      -2.364   0.077   0.026  0.00  0.00    +0.339 C 
ATOM     23  O   UNL     1      -2.324   1.293   0.043  0.00  0.00    -0.245 OA
BRANCH  22  24
ATOM     24  O   UNL     1      -3.554  -0.560   0.029  0.00  0.00    -0.465 OA
ATOM     25  C   UNL     1      -4.726   0.257   0.052  0.00  0.00    +0.280 C 
ENDBRANCH  22  24
ENDBRANCH   3  22
BRANCH   8  26
ATOM     26  S   UNL     1       2.706  -5.476   1.101  0.00  0.00    -0.080 S 
BRANCH  26  27
ATOM     27  C   UNL     1       4.401  -4.835   1.173  0.00  0.00    +0.115 C 
BRANCH  27  28
ATOM     28  C   UNL     1       5.349  -5.959   1.504  0.00  0.00    -0.002 A 
ATOM     29  C   UNL     1       5.644  -6.249   2.823  0.00  0.00    +0.007 A 
ATOM     30  C   UNL     1       6.514  -7.279   3.127  0.00  0.00    +0.000 A 
ATOM     31  C   UNL     1       7.090  -8.021   2.112  0.00  0.00    +0.003 A 
ATOM     32  C   UNL     1       6.797  -7.733   0.793  0.00  0.00    +0.038 A 
ATOM     33  C   UNL     1       5.921  -6.704   0.487  0.00  0.00    +0.127 A 
ATOM     34  F   UNL     1       5.630  -6.425  -0.802  0.00  0.00    -0.205 F 
ENDBRANCH  27  28
ENDBRANCH  26  27
ENDBRANCH   8  26
TORSDOF 7
