REMARK  Name = ZINC39469498
REMARK  5 active torsions:
REMARK  status: ('A' for Active; 'I' for Inactive)
REMARK    1  A    between atoms: C_1  and  C_2
REMARK    2  A    between atoms: C_2  and  O_3
REMARK    3  A    between atoms: O_3  and  P_4
REMARK    4  A    between atoms: C_12  and  C_23
REMARK    5  A    between atoms: C_28  and  O_29
REMARK                            x       y       z     vdW  Elec       q    Type
REMARK                         _______ _______ _______ _____ _____    ______ ____
ROOT
ATOM      1  P   UNL     1       0.906  -2.042   1.476  0.00  0.00    +0.421 P 
ATOM      2  O   UNL     1       1.405  -2.744   0.272  0.00  0.00    -0.239 OA
ATOM      3  N   UNL     1      -0.508  -2.719   1.992  0.00  0.00    -0.156 NA
ATOM      4  N   UNL     1      -0.881  -2.503   3.303  0.00  0.00    -0.228 NA
ATOM      5  C   UNL     1      -2.121  -3.264   3.534  0.00  0.00    +0.111 C 
ATOM      6  C   UNL     1      -2.638  -3.053   4.950  0.00  0.00    +0.035 C 
ATOM      7  C   UNL     1      -2.967  -1.603   5.185  0.00  0.00    -0.012 C 
ATOM      8  C   UNL     1      -3.007  -1.135   6.445  0.00  0.00    -0.005 C 
ATOM      9  C   UNL     1      -2.737  -2.060   7.568  0.00  0.00    +0.017 C 
ATOM     10  C   UNL     1      -2.058  -3.180   7.351  0.00  0.00    -0.008 C 
ATOM     11  C   UNL     1      -1.568  -3.485   5.957  0.00  0.00    +0.022 C 
ATOM     12  C   UNL     1      -0.291  -2.688   5.683  0.00  0.00    +0.031 C 
ATOM     13  C   UNL     1       0.176  -2.897   4.239  0.00  0.00    +0.100 C 
ATOM     14  C   UNL     1       1.441  -2.051   4.046  0.00  0.00    +0.191 C 
ATOM     15  O   UNL     1       1.946  -2.231   2.712  0.00  0.00    -0.294 OA
ATOM     16  I   UNL     1      -3.423  -1.603   9.494  0.00  0.00    -0.044 I 
ATOM     17  H   UNL     1      -1.058  -3.250   1.394  0.00  0.00    +0.153 HD
ENDROOT
BRANCH   8  18
ATOM     18  C   UNL     1      -3.318   0.291   6.705  0.00  0.00    +0.024 A 
ATOM     19  C   UNL     1      -4.626   0.755   6.588  0.00  0.00    +0.012 A 
ATOM     20  C   UNL     1      -4.910   2.083   6.832  0.00  0.00    +0.001 A 
ATOM     21  C   UNL     1      -3.900   2.957   7.193  0.00  0.00    +0.004 A 
ATOM     22  C   UNL     1      -2.599   2.508   7.312  0.00  0.00    +0.046 A 
ATOM     23  C   UNL     1      -2.300   1.175   7.076  0.00  0.00    +0.125 A 
BRANCH  23  24
ATOM     24  O   UNL     1      -1.022   0.731   7.198  0.00  0.00    -0.506 OA
ATOM     25  H   UNL     1      -0.505   0.790   6.383  0.00  0.00    +0.292 HD
ENDBRANCH  23  24
ENDBRANCH   8  18
BRANCH   1  26
ATOM     26  O   UNL     1       0.693  -0.477   1.160  0.00  0.00    -0.296 OA
BRANCH  26  28
ATOM     27  C   UNL     1      -0.019   1.526   0.010  0.00  0.00    +0.035 C 
ATOM     28  C   UNL     1       0.002  -0.004   0.002  0.00  0.00    +0.168 C 
ENDBRANCH  26  28
ENDBRANCH   1  26
TORSDOF 4
