REMARK  Name = ZINC58949565
REMARK  6 active torsions:
REMARK  status: ('A' for Active; 'I' for Inactive)
REMARK    1  A    between atoms: C_1  and  C_2
REMARK    2  A    between atoms: C_3  and  C_21
REMARK    3  A    between atoms: C_4  and  C_13
REMARK    4  A    between atoms: C_6  and  C_10
REMARK    5  A    between atoms: C_7  and  N_9
REMARK    6  A    between atoms: C_16  and  N_18
REMARK                            x       y       z     vdW  Elec       q    Type
REMARK                         _______ _______ _______ _____ _____    ______ ____
ROOT
ATOM      1  C   UNL     1      -0.022   1.503  -0.010  0.00  0.00    +0.087 C 
ATOM      2  C   UNL     1       0.000  -0.004  -0.007  0.00  0.00    +0.113 C 
ATOM      3  C   UNL     1      -1.159  -0.670   0.028  0.00  0.00    +0.064 C 
ATOM      4  C   UNL     1      -1.195  -2.174   0.031  0.00  0.00    +0.104 C 
ATOM      5  C   UNL     1       0.162  -2.718   0.387  0.00  0.00    +0.083 C 
ATOM      6  C   UNL     1       1.264  -1.928   0.331  0.00  0.00    +0.193 C 
ATOM      7  O   UNL     1       1.183  -0.638  -0.047  0.00  0.00    -0.446 OA
ENDROOT
BRANCH   5   8
ATOM      8  C   UNL     1       0.290  -4.062   0.782  0.00  0.00    +0.243 C 
ATOM      9  O   UNL     1      -0.006  -4.394   1.917  0.00  0.00    -0.271 OA
ATOM     10  N   UNL     1       0.740  -4.982  -0.094  0.00  0.00    -0.325 N 
ATOM     11  H   UNL     1       0.975  -4.718  -0.997  0.00  0.00    +0.145 HD
ATOM     12  H   UNL     1       0.828  -5.909   0.179  0.00  0.00    +0.145 HD
ENDBRANCH   5   8
BRANCH   4  13
ATOM     13  C   UNL     1      -1.587  -2.667  -1.337  0.00  0.00    +0.004 A 
ATOM     14  C   UNL     1      -2.655  -3.419  -1.700  0.00  0.00    +0.014 A 
ATOM     15  C   UNL     1      -2.817  -3.757  -3.030  0.00  0.00    +0.041 A 
ATOM     16  C   UNL     1      -1.901  -3.328  -3.933  0.00  0.00    +0.164 A 
ATOM     17  S   UNL     1      -0.770  -2.408  -2.903  0.00  0.00    -0.069 S 
BRANCH  16  18
ATOM     18  N   UNL     1      -1.855  -3.557  -5.395  0.00  0.00    +0.063 N 
ATOM     19  O   UNL     1      -2.720  -4.209  -5.932  0.00  0.00    -0.126 OA
ATOM     20  O   UNL     1      -0.953  -3.092  -6.052  0.00  0.00    -0.126 OA
ENDBRANCH  16  18
ENDBRANCH   4  13
BRANCH   3  21
ATOM     21  C   UNL     1      -2.415   0.077   0.065  0.00  0.00    +0.242 C 
ATOM     22  O   UNL     1      -2.399   1.294   0.063  0.00  0.00    -0.271 OA
ATOM     23  N   UNL     1      -3.590  -0.581   0.101  0.00  0.00    -0.325 N 
ATOM     24  H   UNL     1      -3.603  -1.551   0.103  0.00  0.00    +0.145 HD
ATOM     25  H   UNL     1      -4.424  -0.085   0.126  0.00  0.00    +0.145 HD
ENDBRANCH   3  21
BRANCH   6  26
ATOM     26  N   UNL     1       2.484  -2.455   0.661  0.00  0.00    -0.329 N 
ATOM     27  H   UNL     1       2.567  -3.402   0.858  0.00  0.00    +0.145 HD
ATOM     28  H   UNL     1       3.266  -1.883   0.698  0.00  0.00    +0.145 HD
ENDBRANCH   6  26
TORSDOF 5
