REMARK  Name = ZINC09380770
REMARK  12 active torsions:
REMARK  status: ('A' for Active; 'I' for Inactive)
REMARK    1  A    between atoms: C_1  and  C_2
REMARK    2  A    between atoms: C_7  and  C_8
REMARK    3  A    between atoms: N_9  and  N_10
REMARK    4  A    between atoms: C_11  and  C_13
REMARK    5  A    between atoms: C_13  and  S_14
REMARK    6  A    between atoms: S_14  and  C_15
REMARK    7  A    between atoms: C_18  and  C_26
REMARK    8  A    between atoms: N_19  and  C_20
REMARK    9  A    between atoms: C_29  and  O_34
REMARK   10  A    between atoms: C_30  and  O_32
REMARK   11  A    between atoms: O_32  and  C_33
REMARK   12  A    between atoms: O_34  and  C_35
REMARK                            x       y       z     vdW  Elec       q    Type
REMARK                         _______ _______ _______ _____ _____    ______ ____
ROOT
ATOM      1  C   UNL     1      -0.785  -1.714   3.727  0.00  0.00    +0.197 A 
ATOM      2  N   UNL     1       0.459  -2.136   3.760  0.00  0.00    -0.122 NA
ATOM      3  N   UNL     1       0.528  -3.262   4.375  0.00  0.00    -0.128 NA
ATOM      4  C   UNL     1      -0.667  -3.630   4.774  0.00  0.00    +0.169 A 
ATOM      5  N   UNL     1      -1.547  -2.647   4.377  0.00  0.00    -0.270 N 
ENDROOT
BRANCH   5   6
ATOM      6  C   UNL     1      -2.932  -2.611   4.591  0.00  0.00    +0.051 A 
ATOM      7  C   UNL     1      -3.433  -2.424   5.872  0.00  0.00    +0.026 A 
ATOM      8  C   UNL     1      -4.798  -2.384   6.079  0.00  0.00    +0.002 A 
ATOM      9  C   UNL     1      -5.665  -2.542   5.014  0.00  0.00    +0.000 A 
ATOM     10  C   UNL     1      -5.169  -2.734   3.737  0.00  0.00    +0.002 A 
ATOM     11  C   UNL     1      -3.805  -2.769   3.523  0.00  0.00    +0.026 A 
ENDBRANCH   5   6
BRANCH   4  12
ATOM     12  C   UNL     1      -1.004  -4.863   5.516  0.00  0.00    +0.023 A 
ATOM     13  C   UNL     1      -2.328  -5.302   5.579  0.00  0.00    +0.015 A 
ATOM     14  C   UNL     1      -2.641  -6.453   6.272  0.00  0.00    +0.050 A 
ATOM     15  C   UNL     1      -1.643  -7.178   6.906  0.00  0.00    +0.162 A 
ATOM     16  C   UNL     1      -0.320  -6.745   6.848  0.00  0.00    +0.162 A 
ATOM     17  C   UNL     1       0.001  -5.596   6.150  0.00  0.00    +0.061 A 
BRANCH  16  18
ATOM     18  O   UNL     1       0.656  -7.458   7.471  0.00  0.00    -0.491 OA
ATOM     19  C   UNL     1       1.990  -6.957   7.369  0.00  0.00    +0.277 C 
ENDBRANCH  16  18
BRANCH  15  20
ATOM     20  O   UNL     1      -1.956  -8.312   7.587  0.00  0.00    -0.491 OA
ATOM     21  C   UNL     1      -3.333  -8.697   7.607  0.00  0.00    +0.277 C 
ENDBRANCH  15  20
ENDBRANCH   4  12
BRANCH   1  22
ATOM     22  S   UNL     1      -1.364  -0.221   2.991  0.00  0.00    -0.076 S 
BRANCH  22  23
ATOM     23  C   UNL     1       0.198   0.446   2.364  0.00  0.00    +0.174 C 
BRANCH  23  25
ATOM     24  N   UNL     1       0.965   2.446   1.126  0.00  0.00    -0.206 N 
ATOM     25  C   UNL     1      -0.059   1.761   1.674  0.00  0.00    +0.242 C 
ATOM     26  O   UNL     1      -1.188   2.201   1.608  0.00  0.00    -0.273 OA
ATOM     27  H   UNL     1       1.866   2.092   1.176  0.00  0.00    +0.177 HD
BRANCH  24  29
ATOM     28  C   UNL     1       1.687   4.267  -0.149  0.00  0.00    +0.138 C 
ATOM     29  N   UNL     1       0.726   3.668   0.485  0.00  0.00    -0.188 NA
BRANCH  28  36
ATOM     30  C   UNL     1       4.126   5.800  -0.418  0.00  0.00    +0.044 C 
ATOM     31  C   UNL     1       4.150   4.296  -0.512  0.00  0.00    -0.042 A 
ATOM     32  C   UNL     1       5.341   3.636  -0.729  0.00  0.00    +0.004 A 
ATOM     33  C   UNL     1       5.365   2.255  -0.816  0.00  0.00    +0.000 A 
ATOM     34  C   UNL     1       4.195   1.527  -0.687  0.00  0.00    +0.001 A 
ATOM     35  C   UNL     1       2.997   2.174  -0.465  0.00  0.00    +0.010 A 
ATOM     36  C   UNL     1       2.965   3.568  -0.381  0.00  0.00    -0.003 A 
ENDBRANCH  28  36
ENDBRANCH  24  29
ENDBRANCH  23  25
ENDBRANCH  22  23
ENDBRANCH   1  22
TORSDOF 9
