REMARK  Name = ZINC02658349
REMARK  11 active torsions:
REMARK  status: ('A' for Active; 'I' for Inactive)
REMARK    1  A    between atoms: C_1  and  O_2
REMARK    2  A    between atoms: O_2  and  C_3
REMARK    3  A    between atoms: C_6  and  C_11
REMARK    4  A    between atoms: C_8  and  O_9
REMARK    5  A    between atoms: O_9  and  C_10
REMARK    6  A    between atoms: C_16  and  O_20
REMARK    7  A    between atoms: O_20  and  C_21
REMARK    8  A    between atoms: C_21  and  C_22
REMARK    9  A    between atoms: N_24  and  C_25
REMARK   10  A    between atoms: C_25  and  C_26
REMARK   11  A    between atoms: C_26  and  C_27
REMARK                            x       y       z     vdW  Elec       q    Type
REMARK                         _______ _______ _______ _____ _____    ______ ____
ROOT
ATOM      1  C   UNL     1      -5.837   5.955   6.696  0.00  0.00    +0.004 A 
ATOM      2  C   UNL     1      -6.393   6.486   7.809  0.00  0.00    +0.056 A 
ATOM      3  S   UNL     1      -7.908   7.212   7.214  0.00  0.00    -0.076 S 
ATOM      4  C   UNL     1      -7.766   6.791   5.498  0.00  0.00    +0.116 A 
ATOM      5  C   UNL     1      -6.544   6.089   5.426  0.00  0.00    +0.077 A 
ATOM      6  C   UNL     1      -6.177   5.635   4.134  0.00  0.00    +0.227 A 
ATOM      7  N   UNL     1      -6.979   5.878   3.112  0.00  0.00    -0.201 NA
ATOM      8  C   UNL     1      -8.115   6.539   3.251  0.00  0.00    +0.226 A 
ATOM      9  N   UNL     1      -8.507   6.991   4.426  0.00  0.00    -0.228 NA
ENDROOT
BRANCH   1  13
ATOM     10  C   UNL     1      -2.109   3.911   6.892  0.00  0.00    +0.162 A 
ATOM     11  C   UNL     1      -3.191   3.320   6.258  0.00  0.00    +0.050 A 
ATOM     12  C   UNL     1      -4.403   3.978   6.198  0.00  0.00    +0.012 A 
ATOM     13  C   UNL     1      -4.538   5.245   6.765  0.00  0.00    -0.013 A 
ATOM     14  C   UNL     1      -3.450   5.840   7.403  0.00  0.00    +0.058 A 
ATOM     15  C   UNL     1      -2.239   5.173   7.466  0.00  0.00    +0.162 A 
BRANCH  10  17
ATOM     16  C   UNL     1      -0.855   1.966   6.345  0.00  0.00    +0.277 C 
ATOM     17  O   UNL     1      -0.918   3.257   6.954  0.00  0.00    -0.491 OA
ENDBRANCH  10  17
BRANCH  15  18
ATOM     18  O   UNL     1      -1.176   5.751   8.087  0.00  0.00    -0.491 OA
ATOM     19  C   UNL     1      -1.381   7.047   8.653  0.00  0.00    +0.277 C 
ENDBRANCH  15  18
ENDBRANCH   1  13
BRANCH   6  20
ATOM     20  O   UNL     1      -5.021   4.953   3.950  0.00  0.00    -0.466 OA
BRANCH  20  21
ATOM     21  C   UNL     1      -4.726   4.524   2.619  0.00  0.00    +0.326 C 
BRANCH  21  22
ATOM     22  C   UNL     1      -3.410   3.788   2.609  0.00  0.00    +0.251 C 
ATOM     23  O   UNL     1      -2.787   3.646   3.639  0.00  0.00    -0.272 OA
ATOM     24  N   UNL     1      -2.927   3.289   1.454  0.00  0.00    -0.312 N 
ATOM     25  H   UNL     1      -3.425   3.402   0.630  0.00  0.00    +0.149 HD
BRANCH  24  26
ATOM     26  C   UNL     1      -1.648   2.574   1.444  0.00  0.00    +0.109 C 
BRANCH  26  27
ATOM     27  C   UNL     1      -1.332   2.114   0.020  0.00  0.00    +0.055 C 
BRANCH  27  28
ATOM     28  C   UNL     1      -0.017   1.378   0.010  0.00  0.00    -0.027 A 
ATOM     29  C   UNL     1       0.002  -0.004   0.002  0.00  0.00    +0.006 A 
ATOM     30  C   UNL     1       1.208  -0.679  -0.013  0.00  0.00    +0.020 A 
ATOM     31  C   UNL     1       2.397   0.028  -0.021  0.00  0.00    +0.042 A 
ATOM     32  C   UNL     1       2.379   1.411  -0.013  0.00  0.00    +0.040 A 
ATOM     33  C   UNL     1       1.172   2.086   0.002  0.00  0.00    +0.046 A 
ATOM     34 CL   UNL     1       1.148   3.822   0.012  0.00  0.00    -0.083 Cl
ATOM     35 CL   UNL     1       3.912  -0.820  -0.039  0.00  0.00    -0.083 Cl
ENDBRANCH  27  28
ENDBRANCH  26  27
ENDBRANCH  24  26
ENDBRANCH  21  22
ENDBRANCH  20  21
ENDBRANCH   6  20
TORSDOF 9
