REMARK  Name = ZINC13500279
REMARK  13 active torsions:
REMARK  status: ('A' for Active; 'I' for Inactive)
REMARK    1  A    between atoms: C_1  and  C_2
REMARK    2  A    between atoms: C_9  and  C_14
REMARK    3  A    between atoms: C_14  and  N_68
REMARK    4  A    between atoms: C_15  and  N_68
REMARK    5  A    between atoms: C_20  and  C_22
REMARK    6  A    between atoms: C_20  and  C_31
REMARK    7  A    between atoms: C_20  and  N_68
REMARK    8  A    between atoms: N_26  and  C_27
REMARK    9  A    between atoms: C_27  and  C_28
REMARK   10  A    between atoms: C_27  and  C_29
REMARK   11  A    between atoms: C_27  and  C_30
REMARK   12  A    between atoms: C_31  and  C_32
REMARK   13  A    between atoms: C_31  and  C_33
REMARK                            x       y       z     vdW  Elec       q    Type
REMARK                         _______ _______ _______ _____ _____    ______ ____
ROOT
ATOM      1  N   UNL     1       1.503   4.178   1.406  0.00  0.00    +0.391 N 
ATOM      2  H   UNL     1       0.924   3.397   1.736  0.00  0.00    -0.080 HD
ENDROOT
BRANCH   1   3
ATOM      3  C   UNL     1       2.790   4.163   2.132  0.00  0.00    -0.067 C 
ATOM      4  C   UNL     1       2.539   3.775   3.603  0.00  0.00    -0.015 C 
ATOM      5  C   UNL     1       3.554   4.633   4.400  0.00  0.00    -0.002 C 
ATOM      6  C   UNL     1       3.547   5.976   3.629  0.00  0.00    -0.002 C 
ATOM      7  C   UNL     1       3.431   5.561   2.148  0.00  0.00    -0.015 C 
ENDBRANCH   1   3
BRANCH   1   8
ATOM      8  C   UNL     1       1.738   4.022  -0.045  0.00  0.00    -0.036 C 
BRANCH   8  17
ATOM      9  C   UNL     1      -0.425  -2.870  -1.899  0.00  0.00    +0.044 C 
ATOM     10  C   UNL     1       0.655  -1.886  -1.529  0.00  0.00    -0.050 A 
ATOM     11  C   UNL     1       1.974  -2.312  -1.446  0.00  0.00    +0.005 A 
ATOM     12  C   UNL     1       2.978  -1.430  -1.109  0.00  0.00    +0.026 A 
ATOM     13  C   UNL     1       2.669  -0.099  -0.850  0.00  0.00    +0.049 A 
ATOM     14  C   UNL     1       1.331   0.329  -0.935  0.00  0.00    -0.001 A 
ATOM     15  C   UNL     1       0.328  -0.584  -1.279  0.00  0.00    +0.013 A 
ATOM     16  C   UNL     1       1.015   1.732  -0.661  0.00  0.00    +0.017 A 
ATOM     17  C   UNL     1       2.029   2.572  -0.333  0.00  0.00    +0.001 A 
ATOM     18  C   UNL     1       3.354   2.092  -0.261  0.00  0.00    +0.251 A 
ATOM     19  O   UNL     1       4.250   2.864   0.035  0.00  0.00    -0.268 OA
ATOM     20  N   UNL     1       3.653   0.805  -0.512  0.00  0.00    -0.322 N 
ATOM     21  H   UNL     1       4.575   0.509  -0.453  0.00  0.00    +0.169 HD
ENDBRANCH   8  17
ENDBRANCH   1   8
BRANCH   1  22
ATOM     22  C   UNL     1       0.790   5.447   1.669  0.00  0.00    +0.006 C 
BRANCH  22  23
ATOM     23  C   UNL     1      -0.440   5.509   0.800  0.00  0.00    +0.139 A 
ATOM     24  N   UNL     1      -1.404   4.623   0.744  0.00  0.00    -0.115 NA
ATOM     25  N   UNL     1      -2.273   5.034  -0.114  0.00  0.00    -0.023 NA
ATOM     26  N   UNL     1      -1.888   6.159  -0.606  0.00  0.00    -0.043 NA
ATOM     27  N   UNL     1      -0.765   6.488  -0.064  0.00  0.00    -0.226 N 
BRANCH  27  28
ATOM     28  C   UNL     1       0.013   7.699  -0.340  0.00  0.00    +0.059 C 
ATOM     29  C   UNL     1       1.340   7.314  -0.996  0.00  0.00    +0.036 C 
ATOM     30  C   UNL     1      -0.777   8.609  -1.282  0.00  0.00    +0.036 C 
ATOM     31  C   UNL     1       0.288   8.438   0.971  0.00  0.00    +0.036 C 
ENDBRANCH  27  28
ENDBRANCH  22  23
BRANCH  22  32
ATOM     32  C   UNL     1       0.378   5.486   3.141  0.00  0.00    -0.024 C 
ATOM     33  C   UNL     1      -0.361   6.794   3.430  0.00  0.00    +0.006 C 
ATOM     34  C   UNL     1      -0.544   4.303   3.444  0.00  0.00    +0.006 C 
ENDBRANCH  22  32
ENDBRANCH   1  22
TORSDOF 7
