REMARK  Name = ZINC24272668
REMARK  12 active torsions:
REMARK  status: ('A' for Active; 'I' for Inactive)
REMARK    1  A    between atoms: C_1  and  C_2
REMARK    2  A    between atoms: C_6  and  C_31
REMARK    3  A    between atoms: C_7  and  O_8
REMARK    4  A    between atoms: O_8  and  C_9
REMARK    5  A    between atoms: C_9  and  C_10
REMARK    6  A    between atoms: C_13  and  S_16
REMARK    7  A    between atoms: N_14  and  N_15
REMARK    8  A    between atoms: S_16  and  C_17
REMARK    9  A    between atoms: C_17  and  C_18
REMARK   10  A    between atoms: N_23  and  C_24
REMARK   11  A    between atoms: C_24  and  C_25
REMARK   12  A    between atoms: C_25  and  C_26
REMARK                            x       y       z     vdW  Elec       q    Type
REMARK                         _______ _______ _______ _____ _____    ______ ____
ROOT
ATOM      1  C   UNL     1      12.570  -2.300  -5.582  0.00  0.00    +0.189 A 
ATOM      2  N   UNL     1      12.307  -2.209  -4.309  0.00  0.00    -0.128 NA
ATOM      3  N   UNL     1      11.108  -1.780  -4.135  0.00  0.00    -0.121 NA
ATOM      4  C   UNL     1      10.536  -1.573  -5.298  0.00  0.00    +0.209 A 
ATOM      5  N   UNL     1      11.449  -1.904  -6.258  0.00  0.00    -0.225 N 
ENDROOT
BRANCH   5   6
ATOM      6  N   UNL     1      11.280  -1.847  -7.612  0.00  0.00    -0.295 N 
ATOM      7  H   UNL     1      10.322  -1.508  -8.033  0.00  0.00    +0.163 HD
ATOM      8  H   UNL     1      12.101  -2.142  -8.282  0.00  0.00    +0.163 HD
ENDBRANCH   5   6
BRANCH   1   9
ATOM      9  C   UNL     1      13.866  -2.762  -6.195  0.00  0.00    +0.306 C 
BRANCH   9  10
ATOM     10  O   UNL     1      13.822  -4.177  -6.391  0.00  0.00    -0.484 OA
BRANCH  10  17
ATOM     11  C   UNL     1      13.911  -4.398  -9.206  0.00  0.00    +0.047 C 
ATOM     12  C   UNL     1      15.021  -4.894  -8.317  0.00  0.00    -0.009 A 
ATOM     13  C   UNL     1      16.142  -5.481  -8.873  0.00  0.00    +0.007 A 
ATOM     14  C   UNL     1      17.159  -5.941  -8.057  0.00  0.00    +0.001 A 
ATOM     15  C   UNL     1      17.059  -5.812  -6.684  0.00  0.00    +0.007 A 
ATOM     16  C   UNL     1      15.943  -5.222  -6.124  0.00  0.00    -0.009 A 
ATOM     17  C   UNL     1      14.921  -4.758  -6.940  0.00  0.00    +0.127 A 
ATOM     18  C   UNL     1      15.835  -5.081  -4.627  0.00  0.00    +0.047 C 
ENDBRANCH  10  17
ENDBRANCH   9  10
ENDBRANCH   1   9
BRANCH   4  19
ATOM     19  S   UNL     1       8.897  -0.985  -5.570  0.00  0.00    -0.075 S 
BRANCH  19  20
ATOM     20  C   UNL     1       8.345  -0.791  -3.857  0.00  0.00    +0.173 C 
BRANCH  20  21
ATOM     21  C   UNL     1       6.926  -0.283  -3.841  0.00  0.00    +0.231 C 
ATOM     22  O   UNL     1       6.346  -0.073  -4.885  0.00  0.00    -0.274 OA
ATOM     23  N   UNL     1       6.303  -0.062  -2.667  0.00  0.00    -0.240 N 
ATOM     24  C   UNL     1       5.034   0.392  -2.653  0.00  0.00    +0.306 C 
ATOM     25  O   UNL     1       4.452   0.603  -3.699  0.00  0.00    -0.252 OA
ATOM     26  N   UNL     1       4.410   0.614  -1.478  0.00  0.00    -0.299 N 
ATOM     27  H   UNL     1       6.830  -0.252  -1.720  0.00  0.00    +0.159 HD
ATOM     28  H   UNL     1       4.937   0.423  -0.532  0.00  0.00    +0.150 HD
BRANCH  26  29
ATOM     29  C   UNL     1       3.031   1.107  -1.463  0.00  0.00    +0.111 C 
BRANCH  29  30
ATOM     30  C   UNL     1       2.565   1.272  -0.015  0.00  0.00    +0.061 C 
BRANCH  30  31
ATOM     31  C   UNL     1       1.146   1.780   0.001  0.00  0.00    -0.009 A 
ATOM     32  C   UNL     1      -0.013   1.076   0.008  0.00  0.00    +0.011 A 
ATOM     33  C   UNL     1      -1.213   1.761   0.017  0.00  0.00    +0.008 A 
ATOM     34  C   UNL     1      -1.196   3.116   0.030  0.00  0.00    +0.045 A 
ATOM     35  S   UNL     1       0.555   3.464   0.015  0.00  0.00    -0.102 S 
ENDBRANCH  30  31
ENDBRANCH  29  30
ENDBRANCH  26  29
ENDBRANCH  20  21
ENDBRANCH  19  20
ENDBRANCH   4  19
TORSDOF 10
