REMARK  Name = ZINC65564714
REMARK  6 active torsions:
REMARK  status: ('A' for Active; 'I' for Inactive)
REMARK    1  A    between atoms: C_1  and  C_2
REMARK    2  A    between atoms: C_4  and  C_7
REMARK    3  A    between atoms: C_7  and  N_14
REMARK    4  A    between atoms: N_14  and  S_15
REMARK    5  A    between atoms: S_15  and  C_18
REMARK    6  A    between atoms: C_23  and  C_24
REMARK                            x       y       z     vdW  Elec       q    Type
REMARK                         _______ _______ _______ _____ _____    ______ ____
ROOT
ATOM      1  N   UNL     1      -2.006  -3.009  -0.557  0.00  0.00    -0.176 NA
ATOM      2  H   UNL     1      -2.116  -3.898  -0.927  0.00  0.00    +0.149 HD
ENDROOT
BRANCH   1   3
ATOM      3  C   UNL     1      -0.937  -2.746   0.410  0.00  0.00    +0.102 C 
ATOM      4  C   UNL     1      -1.571  -2.415   1.776  0.00  0.00    +0.032 C 
ATOM      5  C   UNL     1      -2.737  -3.340   1.998  0.00  0.00    +0.002 C 
ATOM      6  C   UNL     1      -2.349  -4.594   2.805  0.00  0.00    +0.000 C 
ATOM      7  C   UNL     1      -0.993  -5.185   2.375  0.00  0.00    +0.000 C 
ATOM      8  C   UNL     1      -0.815  -5.190   0.880  0.00  0.00    +0.002 C 
ATOM      9  C   UNL     1      -0.061  -3.907   0.472  0.00  0.00    +0.032 C 
BRANCH   3  13
ATOM     10  C   UNL     1       0.240   1.975  -0.781  0.00  0.00    +0.112 C 
ATOM     11  C   UNL     1       0.358   0.488  -0.569  0.00  0.00    +0.224 A 
ATOM     12  N   UNL     1      -0.583  -0.297  -0.122  0.00  0.00    -0.194 NA
ATOM     13  C   UNL     1      -0.138  -1.557  -0.058  0.00  0.00    +0.193 A 
ATOM     14  N   UNL     1       1.099  -1.589  -0.466  0.00  0.00    -0.059 NA
ATOM     15  O   UNL     1       1.444  -0.256  -0.812  0.00  0.00    -0.338 OA
ENDBRANCH   3  13
ENDBRANCH   1   3
BRANCH   1  16
ATOM     16  S   UNL     1      -3.025  -1.788  -1.016  0.00  0.00    +0.060 S 
ATOM     17  O   UNL     1      -4.101  -2.398  -1.716  0.00  0.00    -0.153 OA
ATOM     18  O   UNL     1      -3.227  -0.974   0.131  0.00  0.00    -0.153 OA
BRANCH  16  19
ATOM     19  C   UNL     1      -2.158  -0.799  -2.189  0.00  0.00    +0.113 A 
ATOM     20  C   UNL     1      -1.015  -1.284  -2.791  0.00  0.00    +0.029 A 
ATOM     21  C   UNL     1      -0.334  -0.508  -3.712  0.00  0.00    +0.002 A 
ATOM     22  C   UNL     1      -0.793   0.756  -4.034  0.00  0.00    +0.001 A 
ATOM     23  C   UNL     1      -1.935   1.251  -3.438  0.00  0.00    +0.010 A 
ATOM     24  C   UNL     1      -2.629   0.472  -2.513  0.00  0.00    +0.008 A 
BRANCH  24  25
ATOM     25  C   UNL     1      -3.860   0.996  -1.873  0.00  0.00    -0.016 A 
ATOM     26  C   UNL     1      -5.056   0.287  -1.970  0.00  0.00    +0.008 A 
ATOM     27  C   UNL     1      -6.198   0.779  -1.372  0.00  0.00    +0.001 A 
ATOM     28  C   UNL     1      -6.158   1.974  -0.677  0.00  0.00    +0.000 A 
ATOM     29  C   UNL     1      -4.974   2.683  -0.577  0.00  0.00    +0.001 A 
ATOM     30  C   UNL     1      -3.824   2.197  -1.167  0.00  0.00    +0.008 A 
ENDBRANCH  24  25
ENDBRANCH  16  19
ENDBRANCH   1  16
TORSDOF 5
