REMARK  Name = ZINC13065099
REMARK  13 active torsions:
REMARK  status: ('A' for Active; 'I' for Inactive)
REMARK    1  A    between atoms: C_1  and  C_2
REMARK    2  A    between atoms: C_2  and  C_3
REMARK    3  A    between atoms: C_3  and  C_5
REMARK    4  A    between atoms: C_3  and  N_72
REMARK    5  A    between atoms: N_9  and  C_10
REMARK    6  A    between atoms: C_10  and  C_11
REMARK    7  A    between atoms: C_18  and  C_19
REMARK    8  A    between atoms: C_18  and  N_72
REMARK    9  A    between atoms: C_22  and  C_25
REMARK   10  A    between atoms: C_26  and  C_27
REMARK   11  A    between atoms: C_26  and  N_72
REMARK   12  A    between atoms: C_32  and  C_40
REMARK   13  A    between atoms: C_33  and  C_39
REMARK                            x       y       z     vdW  Elec       q    Type
REMARK                         _______ _______ _______ _____ _____    ______ ____
ROOT
ATOM      1  N   UNL     1       1.047   4.215  -1.159  0.00  0.00    +0.392 N 
ATOM      2  H   UNL     1       0.143   4.641  -0.924  0.00  0.00    -0.080 HD
ENDROOT
BRANCH   1   3
ATOM      3  C   UNL     1       1.320   3.116  -0.209  0.00  0.00    +0.003 C 
BRANCH   3   4
ATOM      4  C   UNL     1       0.350   1.991  -0.463  0.00  0.00    +0.138 A 
ATOM      5  N   UNL     1      -0.939   2.103  -0.677  0.00  0.00    -0.115 NA
ATOM      6  N   UNL     1      -1.417   0.920  -0.851  0.00  0.00    -0.023 NA
ATOM      7  N   UNL     1      -0.468   0.056  -0.753  0.00  0.00    -0.044 NA
ATOM      8  N   UNL     1       0.637   0.677  -0.513  0.00  0.00    -0.226 N 
BRANCH   8   9
ATOM      9  C   UNL     1       1.957   0.068  -0.332  0.00  0.00    +0.182 C 
BRANCH   9  10
ATOM     10  C   UNL     1       2.651  -0.034  -1.666  0.00  0.00    -0.026 A 
ATOM     11  C   UNL     1       2.495  -1.168  -2.441  0.00  0.00    +0.008 A 
ATOM     12  C   UNL     1       3.127  -1.260  -3.667  0.00  0.00    +0.038 A 
ATOM     13  C   UNL     1       3.925  -0.221  -4.114  0.00  0.00    +0.123 A 
ATOM     14  C   UNL     1       4.084   0.912  -3.334  0.00  0.00    +0.038 A 
ATOM     15  C   UNL     1       3.447   1.005  -2.111  0.00  0.00    +0.008 A 
ATOM     16  F   UNL     1       4.547  -0.312  -5.309  0.00  0.00    -0.205 F 
ENDBRANCH   9  10
ENDBRANCH   8   9
ENDBRANCH   3   4
BRANCH   3  18
ATOM     17  C   UNL     1       1.520   2.546   2.216  0.00  0.00    +0.002 C 
ATOM     18  C   UNL     1       1.134   3.639   1.217  0.00  0.00    -0.011 C 
ENDBRANCH   3  18
ENDBRANCH   1   3
BRANCH   1  19
ATOM     19  C   UNL     1       0.984   3.686  -2.538  0.00  0.00    -0.042 C 
BRANCH  19  20
ATOM     20  C   UNL     1       0.285   4.696  -3.411  0.00  0.00    -0.064 A 
ATOM     21  C   UNL     1      -1.096   4.735  -3.454  0.00  0.00    +0.002 A 
ATOM     22  C   UNL     1      -1.736   5.665  -4.252  0.00  0.00    +0.003 A 
ATOM     23  C   UNL     1      -0.996   6.549  -5.013  0.00  0.00    -0.050 A 
ATOM     24  C   UNL     1       0.385   6.507  -4.974  0.00  0.00    +0.003 A 
ATOM     25  C   UNL     1       1.026   5.580  -4.173  0.00  0.00    +0.002 A 
ATOM     26  C   UNL     1      -1.694   7.560  -5.886  0.00  0.00    +0.044 C 
ENDBRANCH  19  20
ENDBRANCH   1  19
BRANCH   1  27
ATOM     27  C   UNL     1       2.104   5.243  -1.060  0.00  0.00    -0.036 C 
BRANCH  27  28
ATOM     28  C   UNL     1       3.458   4.635  -1.316  0.00  0.00    +0.001 A 
ATOM     29  C   UNL     1       3.985   4.660  -2.565  0.00  0.00    +0.017 A 
ATOM     30  C   UNL     1       5.305   4.064  -2.779  0.00  0.00    -0.001 A 
ATOM     31  C   UNL     1       5.903   4.064  -4.044  0.00  0.00    +0.010 A 
ATOM     32  C   UNL     1       7.133   3.496  -4.212  0.00  0.00    +0.004 A 
ATOM     33  C   UNL     1       7.797   2.918  -3.139  0.00  0.00    -0.046 A 
ATOM     34  C   UNL     1       7.228   2.906  -1.883  0.00  0.00    -0.024 A 
ATOM     35  C   UNL     1       5.975   3.479  -1.688  0.00  0.00    +0.052 A 
ATOM     36  N   UNL     1       5.383   3.482  -0.444  0.00  0.00    -0.322 N 
ATOM     37  H   UNL     1       5.846   3.079   0.307  0.00  0.00    +0.169 HD
ATOM     38  C   UNL     1       4.172   4.036  -0.255  0.00  0.00    +0.251 A 
ATOM     39  O   UNL     1       3.678   4.021   0.859  0.00  0.00    -0.268 OA
ATOM     40  C   UNL     1       7.960   2.277  -0.727  0.00  0.00    +0.046 C 
ATOM     41  C   UNL     1       9.154   2.297  -3.348  0.00  0.00    +0.044 C 
ENDBRANCH  27  28
ENDBRANCH   1  27
TORSDOF 9
