REMARK  Name = ZINC30985612
REMARK  8 active torsions:
REMARK  status: ('A' for Active; 'I' for Inactive)
REMARK    1  A    between atoms: C_3  and  C_8
REMARK    2  A    between atoms: C_10  and  C_13
REMARK    3  A    between atoms: C_13  and  N_14
REMARK    4  A    between atoms: C_17  and  C_20
REMARK    5  A    between atoms: N_22  and  C_23
REMARK    6  A    between atoms: C_23  and  C_24
REMARK    7  A    between atoms: C_24  and  C_25
REMARK    8  A    between atoms: C_25  and  C_26
REMARK                            x       y       z     vdW  Elec       q    Type
REMARK                         _______ _______ _______ _____ _____    ______ ____
ROOT
ATOM      1  N   UNL     1       4.746   7.293   1.383  0.00  0.00    +0.386 N 
ATOM      2  C   UNL     1       3.474   7.526   2.079  0.00  0.00    -0.077 C 
ATOM      3  C   UNL     1       3.747   7.830   3.554  0.00  0.00    -0.006 C 
ATOM      4  C   UNL     1       4.642   9.069   3.658  0.00  0.00    +0.071 C 
ATOM      5  C   UNL     1       5.939   8.818   2.884  0.00  0.00    -0.006 C 
ATOM      6  C   UNL     1       5.602   8.485   1.428  0.00  0.00    -0.077 C 
ATOM      7  H   UNL     1       5.272   6.482   1.908  0.00  0.00    -0.081 HD
ENDROOT
BRANCH   4   8
ATOM      8  C   UNL     1       4.963   9.338   5.105  0.00  0.00    +0.216 C 
ATOM      9  O   UNL     1       6.116   9.330   5.482  0.00  0.00    -0.276 OA
ATOM     10  N   UNL     1       3.970   9.587   5.981  0.00  0.00    -0.315 N 
ATOM     11  H   UNL     1       2.924   9.594   5.639  0.00  0.00    +0.149 HD
BRANCH  10  12
ATOM     12  C   UNL     1       4.282   9.849   7.388  0.00  0.00    +0.104 C 
BRANCH  12  13
ATOM     13  C   UNL     1       2.985  10.100   8.161  0.00  0.00    +0.023 C 
BRANCH  13  14
ATOM     14  C   UNL     1       3.312  10.373   9.630  0.00  0.00    +0.036 C 
BRANCH  14  15
ATOM     15  C   UNL     1       2.034  10.620  10.391  0.00  0.00    -0.047 A 
ATOM     16  C   UNL     1       1.537  11.905  10.507  0.00  0.00    +0.005 A 
ATOM     17  C   UNL     1       0.362  12.131  11.200  0.00  0.00    +0.020 A 
ATOM     18  C   UNL     1      -0.309  11.073  11.786  0.00  0.00    +0.041 A 
ATOM     19  C   UNL     1       0.192   9.789  11.674  0.00  0.00    +0.020 A 
ATOM     20  C   UNL     1       1.363   9.563  10.976  0.00  0.00    +0.005 A 
ATOM     21 CL   UNL     1      -1.781  11.358  12.662  0.00  0.00    -0.084 Cl
ENDBRANCH  14  15
ENDBRANCH  13  14
ENDBRANCH  12  13
ENDBRANCH  10  12
ENDBRANCH   4   8
BRANCH   1  22
ATOM     22  C   UNL     1       4.516   6.862  -0.003  0.00  0.00    +0.022 C 
BRANCH  22  25
ATOM     23  C   UNL     1       2.428   3.937   0.000  0.00  0.00    +0.202 A 
ATOM     24  N   UNL     1       2.557   5.282   0.000  0.00  0.00    -0.193 NA
ATOM     25  C   UNL     1       3.847   5.512  -0.004  0.00  0.00    +0.211 A 
ATOM     26  O   UNL     1       4.458   4.323  -0.017  0.00  0.00    -0.340 OA
ATOM     27  N   UNL     1       3.635   3.433  -0.014  0.00  0.00    -0.056 NA
BRANCH  23  30
ATOM     28  C   UNL     1      -0.013   1.076   0.008  0.00  0.00    +0.002 A 
ATOM     29  C   UNL     1       1.174   1.781   0.000  0.00  0.00    +0.012 A 
ATOM     30  C   UNL     1       1.155   3.174   0.008  0.00  0.00    +0.024 A 
ATOM     31  C   UNL     1      -0.064   3.849   0.022  0.00  0.00    +0.031 A 
ATOM     32  C   UNL     1      -1.246   3.134   0.030  0.00  0.00    +0.042 A 
ATOM     33  C   UNL     1      -1.220   1.749   0.017  0.00  0.00    +0.020 A 
ATOM     34 CL   UNL     1      -2.766   3.972   0.048  0.00  0.00    -0.084 Cl
ENDBRANCH  23  30
ENDBRANCH  22  25
ENDBRANCH   1  22
TORSDOF 8
