REMARK  Name = ZINC62640739
REMARK  9 active torsions:
REMARK  status: ('A' for Active; 'I' for Inactive)
REMARK    1  A    between atoms: C_1  and  C_2
REMARK    2  A    between atoms: C_5  and  N_9
REMARK    3  A    between atoms: C_6  and  C_8
REMARK    4  A    between atoms: N_9  and  S_10
REMARK    5  A    between atoms: S_10  and  C_13
REMARK    6  A    between atoms: C_16  and  N_22
REMARK    7  A    between atoms: C_17  and  N_19
REMARK    8  A    between atoms: N_25  and  C_28
REMARK    9  A    between atoms: C_28  and  C_29
REMARK                            x       y       z     vdW  Elec       q    Type
REMARK                         _______ _______ _______ _____ _____    ______ ____
ROOT
ATOM      1  C   UNL     1       2.523  -4.560  -1.280  0.00  0.00    +0.111 A 
ATOM      2  C   UNL     1       3.291  -3.526  -1.784  0.00  0.00    +0.031 A 
ATOM      3  C   UNL     1       4.646  -3.478  -1.520  0.00  0.00    +0.027 A 
ATOM      4  C   UNL     1       5.237  -4.469  -0.748  0.00  0.00    +0.060 A 
ATOM      5  C   UNL     1       4.463  -5.506  -0.243  0.00  0.00    +0.149 A 
ATOM      6  C   UNL     1       3.108  -5.545  -0.506  0.00  0.00    +0.063 A 
ENDROOT
BRANCH   4   7
ATOM      7  N   UNL     1       6.607  -4.424  -0.479  0.00  0.00    -0.326 N 
ATOM      8  C   UNL     1       7.114  -3.806   0.755  0.00  0.00    +0.120 C 
ATOM      9  C   UNL     1       8.206  -2.797   0.382  0.00  0.00    +0.103 C 
ATOM     10  N   UNL     1       9.223  -3.464  -0.443  0.00  0.00    -0.295 NA
ATOM     11  C   UNL     1       8.654  -3.937  -1.711  0.00  0.00    +0.103 C 
ATOM     12  C   UNL     1       7.580  -4.998  -1.421  0.00  0.00    +0.120 C 
BRANCH  10  13
ATOM     13  C   UNL     1      10.372  -2.579  -0.679  0.00  0.00    +0.119 C 
BRANCH  13  14
ATOM     14  C   UNL     1      11.491  -3.367  -1.310  0.00  0.00    -0.033 A 
ATOM     15  C   UNL     1      12.428  -3.997  -0.513  0.00  0.00    +0.005 A 
ATOM     16  C   UNL     1      13.454  -4.720  -1.092  0.00  0.00    +0.000 A 
ATOM     17  C   UNL     1      13.543  -4.812  -2.468  0.00  0.00    +0.000 A 
ATOM     18  C   UNL     1      12.606  -4.182  -3.266  0.00  0.00    +0.000 A 
ATOM     19  C   UNL     1      11.577  -3.463  -2.686  0.00  0.00    +0.005 A 
ENDBRANCH  13  14
ENDBRANCH  10  13
ENDBRANCH   4   7
BRANCH   1  20
ATOM     20  S   UNL     1       0.795  -4.617  -1.619  0.00  0.00    +0.072 S 
ATOM     21  O   UNL     1       0.400  -5.975  -1.484  0.00  0.00    -0.150 OA
ATOM     22  O   UNL     1       0.591  -3.880  -2.816  0.00  0.00    -0.150 OA
BRANCH  20  23
ATOM     23  N   UNL     1       0.032  -3.779  -0.411  0.00  0.00    -0.216 N 
ATOM     24  H   UNL     1      -0.619  -4.226   0.153  0.00  0.00    +0.174 HD
BRANCH  23  29
ATOM     25  C   UNL     1       1.216   1.703   0.424  0.00  0.00    +0.044 C 
ATOM     26  C   UNL     1       0.902   0.246   0.202  0.00  0.00    -0.050 A 
ATOM     27  C   UNL     1       0.887  -0.269  -1.082  0.00  0.00    +0.005 A 
ATOM     28  C   UNL     1       0.599  -1.603  -1.289  0.00  0.00    +0.025 A 
ATOM     29  C   UNL     1       0.324  -2.429  -0.206  0.00  0.00    +0.051 A 
ATOM     30  C   UNL     1       0.340  -1.909   1.082  0.00  0.00    -0.028 A 
ATOM     31  C   UNL     1       0.634  -0.574   1.282  0.00  0.00    +0.008 A 
ATOM     32  C   UNL     1       0.041  -2.800   2.260  0.00  0.00    +0.046 C 
ENDBRANCH  23  29
ENDBRANCH  20  23
ENDBRANCH   1  20
BRANCH   5  33
ATOM     33  N   UNL     1       5.089  -6.565   0.580  0.00  0.00    +0.058 N 
ATOM     34  O   UNL     1       4.400  -7.407   1.108  0.00  0.00    -0.126 OA
ATOM     35  O   UNL     1       6.289  -6.588   0.725  0.00  0.00    -0.126 OA
ENDBRANCH   5  33
TORSDOF 7
