REMARK  Name = ZINC65622066
REMARK  9 active torsions:
REMARK  status: ('A' for Active; 'I' for Inactive)
REMARK    1  A    between atoms: C_1  and  C_2
REMARK    2  A    between atoms: C_2  and  C_3
REMARK    3  A    between atoms: C_3  and  C_4
REMARK    4  A    between atoms: C_4  and  C_5
REMARK    5  A    between atoms: C_5  and  C_6
REMARK    6  A    between atoms: C_5  and  N_23
REMARK    7  A    between atoms: N_8  and  N_9
REMARK    8  A    between atoms: C_10  and  C_12
REMARK    9  A    between atoms: C_12  and  C_13
REMARK                            x       y       z     vdW  Elec       q    Type
REMARK                         _______ _______ _______ _____ _____    ______ ____
ROOT
ATOM      1  C   UNL     1       1.584  -4.021  -2.473  0.00  0.00    +0.249 C 
ATOM      2  O   UNL     1       0.810  -4.718  -3.095  0.00  0.00    -0.272 OA
ATOM      3  N   UNL     1       2.559  -4.589  -1.736  0.00  0.00    -0.233 N 
ATOM      4  H   UNL     1       3.179  -4.032  -1.239  0.00  0.00    +0.173 HD
ENDROOT
BRANCH   3   5
ATOM      5  N   UNL     1       2.679  -5.984  -1.689  0.00  0.00    -0.234 N 
ATOM      6  C   UNL     1       3.655  -6.552  -0.952  0.00  0.00    +0.233 C 
ATOM      7  O   UNL     1       4.429  -5.855  -0.330  0.00  0.00    -0.274 OA
ATOM      8  H   UNL     1       2.061  -6.541  -2.186  0.00  0.00    +0.173 HD
BRANCH   6   9
ATOM      9  C   UNL     1       3.784  -8.053  -0.901  0.00  0.00    +0.132 C 
BRANCH   9  10
ATOM     10  C   UNL     1       4.944  -8.427  -0.015  0.00  0.00    -0.038 A 
ATOM     11  C   UNL     1       6.216  -8.561  -0.569  0.00  0.00    +0.005 A 
ATOM     12  C   UNL     1       7.285  -8.898   0.203  0.00  0.00    +0.009 A 
ATOM     13  C   UNL     1       7.107  -9.115   1.580  0.00  0.00    -0.018 A 
ATOM     14  C   UNL     1       8.187  -9.465   2.409  0.00  0.00    +0.008 A 
ATOM     15  C   UNL     1       7.977  -9.667   3.738  0.00  0.00    +0.001 A 
ATOM     16  C   UNL     1       6.705  -9.533   4.293  0.00  0.00    +0.001 A 
ATOM     17  C   UNL     1       5.636  -9.196   3.521  0.00  0.00    +0.008 A 
ATOM     18  C   UNL     1       5.814  -8.979   2.143  0.00  0.00    -0.018 A 
ATOM     19  C   UNL     1       4.735  -8.624   1.315  0.00  0.00    +0.012 A 
ENDBRANCH   9  10
ENDBRANCH   6   9
ENDBRANCH   3   5
BRANCH   1  20
ATOM     20  C   UNL     1       1.455  -2.521  -2.524  0.00  0.00    +0.162 C 
BRANCH  20  21
ATOM     21  N   UNL     1       0.682  -2.137  -3.708  0.00  0.00    -0.288 N 
ATOM     22  C   UNL     1      -0.583  -2.578  -3.859  0.00  0.00    +0.298 C 
ATOM     23  O   UNL     1      -1.082  -3.294  -3.012  0.00  0.00    -0.253 OA
ATOM     24  N   UNL     1      -1.294  -2.225  -4.948  0.00  0.00    -0.313 N 
ATOM     25  H   UNL     1       1.080  -1.566  -4.383  0.00  0.00    +0.151 HD
ATOM     26  H   UNL     1      -0.896  -1.654  -5.623  0.00  0.00    +0.146 HD
ATOM     27  H   UNL     1      -2.204  -2.542  -5.056  0.00  0.00    +0.146 HD
ENDBRANCH  20  21
BRANCH  20  28
ATOM     28  C   UNL     1       0.739  -2.027  -1.265  0.00  0.00    +0.032 C 
BRANCH  28  29
ATOM     29  C   UNL     1       0.718  -0.497  -1.257  0.00  0.00    +0.002 C 
BRANCH  29  31
ATOM     30  C   UNL     1      -0.019   1.526   0.010  0.00  0.00    +0.004 C 
ATOM     31  C   UNL     1       0.002  -0.004   0.002  0.00  0.00    -0.003 C 
ENDBRANCH  29  31
ENDBRANCH  28  29
ENDBRANCH  20  28
ENDBRANCH   1  20
TORSDOF 8
