REMARK  Name = ZINC40589160
REMARK  10 active torsions:
REMARK  status: ('A' for Active; 'I' for Inactive)
REMARK    1  A    between atoms: C_1  and  C_2
REMARK    2  A    between atoms: C_2  and  N_3
REMARK    3  A    between atoms: N_3  and  C_4
REMARK    4  A    between atoms: C_15  and  N_31
REMARK    5  A    between atoms: C_16  and  N_20
REMARK    6  A    between atoms: N_20  and  C_21
REMARK    7  A    between atoms: C_23  and  C_29
REMARK    8  A    between atoms: C_23  and  C_30
REMARK    9  A    between atoms: C_25  and  C_27
REMARK   10  A    between atoms: C_25  and  C_28
REMARK                            x       y       z     vdW  Elec       q    Type
REMARK                         _______ _______ _______ _____ _____    ______ ____
ROOT
ATOM      1  N   UNL     1      -0.208  -1.570  -1.146  0.00  0.00    -0.283 N 
ATOM      2  C   UNL     1      -0.628  -1.555  -2.468  0.00  0.00    +0.161 A 
ATOM      3  C   UNL     1      -1.883  -1.056  -2.805  0.00  0.00    +0.206 A 
ATOM      4  C   UNL     1      -2.257  -1.062  -4.145  0.00  0.00    +0.155 A 
ATOM      5  N   UNL     1      -1.406  -1.541  -5.051  0.00  0.00    -0.218 NA
ATOM      6  C   UNL     1      -0.227  -2.005  -4.692  0.00  0.00    +0.225 A 
ATOM      7  N   UNL     1       0.166  -2.012  -3.435  0.00  0.00    -0.218 NA
ENDROOT
BRANCH   1   8
ATOM      8  C   UNL     1      -1.090  -1.204  -0.130  0.00  0.00    +0.043 A 
ATOM      9  C   UNL     1      -1.179   0.111   0.273  0.00  0.00    +0.024 A 
ATOM     10  C   UNL     1      -2.056   0.487   1.286  0.00  0.00    +0.002 A 
ATOM     11  C   UNL     1      -2.849  -0.430   1.906  0.00  0.00    +0.008 A 
ATOM     12  C   UNL     1      -2.789  -1.781   1.525  0.00  0.00    -0.016 A 
ATOM     13  C   UNL     1      -1.905  -2.175   0.491  0.00  0.00    +0.003 A 
ATOM     14  C   UNL     1      -1.850  -3.524   0.107  0.00  0.00    +0.010 A 
ATOM     15  C   UNL     1      -2.650  -4.435   0.728  0.00  0.00    +0.001 A 
ATOM     16  C   UNL     1      -3.525  -4.047   1.741  0.00  0.00    +0.001 A 
ATOM     17  C   UNL     1      -3.595  -2.750   2.148  0.00  0.00    +0.008 A 
ENDBRANCH   1   8
BRANCH   3  18
ATOM     18  N   UNL     1      -2.796  -0.533  -1.764  0.00  0.00    +0.063 N 
ATOM     19  O   UNL     1      -2.788   0.644  -1.488  0.00  0.00    -0.126 OA
ATOM     20  O   UNL     1      -3.550  -1.283  -1.189  0.00  0.00    -0.126 OA
ENDBRANCH   3  18
BRANCH   1  22
ATOM     21  C   UNL     1       1.224  -3.492  -0.661  0.00  0.00    +0.025 C 
ATOM     22  C   UNL     1       1.162  -1.972  -0.817  0.00  0.00    +0.109 C 
ENDBRANCH   1  22
BRANCH   4  23
ATOM     23  N   UNL     1      -3.496  -0.576  -4.532  0.00  0.00    -0.324 N 
ATOM     24  H   UNL     1      -4.110  -0.229  -3.866  0.00  0.00    +0.148 HD
BRANCH  23  25
ATOM     25  C   UNL     1      -3.880  -0.588  -5.949  0.00  0.00    +0.069 C 
ATOM     26  C   UNL     1      -3.372   0.692  -6.617  0.00  0.00    +0.009 C 
ATOM     27  C   UNL     1      -3.774   0.701  -8.092  0.00  0.00    -0.072 C 
ATOM     28  N   UNL     1      -5.206   0.508  -8.271  0.00  0.00    +0.386 N 
ATOM     29  C   UNL     1      -5.843  -0.561  -7.518  0.00  0.00    -0.072 C 
ATOM     30  C   UNL     1      -5.404  -0.613  -6.058  0.00  0.00    +0.009 C 
ATOM     31  C   UNL     1      -5.625  -1.925  -8.178  0.00  0.00    -0.010 C 
ATOM     32  C   UNL     1      -7.367  -0.292  -7.529  0.00  0.00    -0.010 C 
ATOM     33  C   UNL     1      -2.954  -0.327  -8.870  0.00  0.00    -0.010 C 
ATOM     34  C   UNL     1      -3.417   2.095  -8.656  0.00  0.00    -0.010 C 
ATOM     35  H   UNL     1      -5.678   1.387  -8.044  0.00  0.00    -0.084 HD
ATOM     36  H   UNL     1      -5.387   0.355  -9.265  0.00  0.00    -0.084 HD
ENDBRANCH  23  25
ENDBRANCH   4  23
TORSDOF 5
