REMARK  Name = ZINC40341194
REMARK  14 active torsions:
REMARK  status: ('A' for Active; 'I' for Inactive)
REMARK    1  A    between atoms: C_1  and  C_2
REMARK    2  A    between atoms: C_2  and  O_3
REMARK    3  A    between atoms: O_3  and  C_4
REMARK    4  A    between atoms: C_7  and  C_13
REMARK    5  A    between atoms: C_9  and  O_10
REMARK    6  A    between atoms: O_10  and  C_11
REMARK    7  A    between atoms: C_11  and  C_12
REMARK    8  A    between atoms: C_16  and  C_34
REMARK    9  A    between atoms: N_23  and  C_24
REMARK   10  A    between atoms: C_24  and  C_25
REMARK   11  A    between atoms: C_25  and  C_26
REMARK   12  A    between atoms: C_29  and  O_32
REMARK   13  A    between atoms: O_32  and  C_33
REMARK   14  A    between atoms: C_37  and  C_40
REMARK                            x       y       z     vdW  Elec       q    Type
REMARK                         _______ _______ _______ _____ _____    ______ ____
ROOT
ATOM      1  C   UNL     1       1.107  -6.044  -1.844  0.00  0.00    +0.141 C 
ATOM      2  C   UNL     1       2.197  -6.588  -0.960  0.00  0.00    +0.035 A 
ATOM      3  C   UNL     1       3.555  -6.585  -0.626  0.00  0.00    +0.099 A 
ATOM      4  N   UNL     1       3.718  -7.433   0.370  0.00  0.00    -0.173 NA
ATOM      5  N   UNL     1       2.598  -7.971   0.698  0.00  0.00    -0.272 N 
ATOM      6  H   UNL     1       2.479  -8.625   1.404  0.00  0.00    +0.189 HD
ATOM      7  C   UNL     1       1.599  -7.486  -0.098  0.00  0.00    +0.126 A 
ATOM      8  C   UNL     1       0.163  -7.536  -0.398  0.00  0.00    +0.265 C 
ATOM      9  O   UNL     1      -0.644  -8.233   0.186  0.00  0.00    -0.268 OA
ATOM     10  N   UNL     1      -0.134  -6.702  -1.413  0.00  0.00    -0.285 N 
ENDROOT
BRANCH   3  11
ATOM     11  C   UNL     1       4.618  -5.776  -1.274  0.00  0.00    +0.002 A 
ATOM     12  C   UNL     1       4.557  -5.508  -2.640  0.00  0.00    +0.010 A 
ATOM     13  C   UNL     1       5.548  -4.754  -3.237  0.00  0.00    +0.004 A 
ATOM     14  C   UNL     1       6.599  -4.266  -2.483  0.00  0.00    -0.050 A 
ATOM     15  C   UNL     1       6.664  -4.530  -1.127  0.00  0.00    +0.004 A 
ATOM     16  C   UNL     1       5.676  -5.277  -0.518  0.00  0.00    +0.010 A 
ATOM     17  C   UNL     1       7.677  -3.445  -3.140  0.00  0.00    +0.044 C 
ENDBRANCH   3  11
BRANCH   1  21
ATOM     18  C   UNL     1       0.777  -1.811  -1.336  0.00  0.00    +0.162 A 
ATOM     19  C   UNL     1       0.243  -2.669  -0.388  0.00  0.00    +0.050 A 
ATOM     20  C   UNL     1       0.352  -4.037  -0.555  0.00  0.00    +0.009 A 
ATOM     21  C   UNL     1       0.992  -4.552  -1.667  0.00  0.00    -0.019 A 
ATOM     22  C   UNL     1       1.526  -3.702  -2.616  0.00  0.00    +0.055 A 
ATOM     23  C   UNL     1       1.416  -2.330  -2.458  0.00  0.00    +0.162 A 
BRANCH  18  24
ATOM     24  O   UNL     1       0.671  -0.465  -1.174  0.00  0.00    -0.489 OA
BRANCH  24  26
ATOM     25  C   UNL     1      -0.019   1.526   0.010  0.00  0.00    +0.048 C 
ATOM     26  C   UNL     1       0.002  -0.004   0.002  0.00  0.00    +0.226 C 
ENDBRANCH  24  26
ENDBRANCH  18  24
BRANCH  23  27
ATOM     27  O   UNL     1       1.936  -1.492  -3.394  0.00  0.00    -0.489 OA
BRANCH  27  28
ATOM     28  C   UNL     1       2.578  -2.095  -4.520  0.00  0.00    +0.226 C 
ATOM     29  C   UNL     1       3.096  -1.002  -5.457  0.00  0.00    +0.048 C 
ENDBRANCH  27  28
ENDBRANCH  23  27
ENDBRANCH   1  21
BRANCH  10  30
ATOM     30  C   UNL     1      -1.464  -6.487  -1.988  0.00  0.00    +0.114 C 
BRANCH  30  31
ATOM     31  C   UNL     1      -1.691  -7.476  -3.132  0.00  0.00    +0.054 C 
BRANCH  31  32
ATOM     32  C   UNL     1      -3.059  -7.255  -3.724  0.00  0.00    -0.046 A 
ATOM     33  C   UNL     1      -4.149  -7.938  -3.217  0.00  0.00    +0.007 A 
ATOM     34  C   UNL     1      -5.404  -7.737  -3.758  0.00  0.00    +0.046 A 
ATOM     35  C   UNL     1      -5.570  -6.848  -4.810  0.00  0.00    +0.120 A 
ATOM     36  C   UNL     1      -4.475  -6.163  -5.316  0.00  0.00    +0.046 A 
ATOM     37  C   UNL     1      -3.223  -6.364  -4.769  0.00  0.00    +0.007 A 
BRANCH  35  38
ATOM     38  O   UNL     1      -6.804  -6.649  -5.344  0.00  0.00    -0.495 OA
ATOM     39  C   UNL     1      -6.901  -5.720  -6.425  0.00  0.00    +0.277 C 
ENDBRANCH  35  38
ENDBRANCH  31  32
ENDBRANCH  30  31
ENDBRANCH  10  30
TORSDOF 10
