REMARK  Name = ZINC36046173
REMARK  10 active torsions:
REMARK  status: ('A' for Active; 'I' for Inactive)
REMARK    1  A    between atoms: C_1  and  N_2
REMARK    2  A    between atoms: N_2  and  C_3
REMARK    3  A    between atoms: N_2  and  S_10
REMARK    4  A    between atoms: S_10  and  C_13
REMARK    5  A    between atoms: C_15  and  C_20
REMARK    6  A    between atoms: C_20  and  O_22
REMARK    7  A    between atoms: O_22  and  C_23
REMARK    8  A    between atoms: C_23  and  C_24
REMARK    9  A    between atoms: N_26  and  C_27
REMARK   10  A    between atoms: C_27  and  C_28
REMARK                            x       y       z     vdW  Elec       q    Type
REMARK                         _______ _______ _______ _____ _____    ______ ____
ROOT
ATOM      1  C   UNL     1       1.682  -1.059  -1.905  0.00  0.00    +0.128 A 
ATOM      2  C   UNL     1       2.205  -2.333  -1.975  0.00  0.00    +0.045 A 
ATOM      3  C   UNL     1       3.538  -2.518  -2.346  0.00  0.00    +0.061 A 
ATOM      4  C   UNL     1       4.334  -1.409  -2.645  0.00  0.00    +0.016 A 
ATOM      5  C   UNL     1       3.800  -0.141  -2.572  0.00  0.00    +0.023 A 
ATOM      6  C   UNL     1       2.474   0.035  -2.208  0.00  0.00    +0.068 A 
ATOM      7 CL   UNL     1       1.806   1.635  -2.125  0.00  0.00    -0.082 Cl
ENDROOT
BRANCH   1   8
ATOM      8  S   UNL     1      -0.000  -0.824  -1.437  0.00  0.00    +0.076 S 
ATOM      9  O   UNL     1      -0.531  -2.115  -1.167  0.00  0.00    -0.150 OA
ATOM     10  O   UNL     1      -0.572   0.049  -2.401  0.00  0.00    -0.150 OA
BRANCH   8  12
ATOM     11  C   UNL     1      -0.018   1.461   0.010  0.00  0.00    +0.157 C 
ATOM     12  N   UNL     1       0.002  -0.004   0.002  0.00  0.00    -0.206 N 
BRANCH  12  13
ATOM     13  C   UNL     1       0.023  -0.709   1.208  0.00  0.00    +0.051 A 
ATOM     14  C   UNL     1       0.554  -1.992   1.255  0.00  0.00    +0.026 A 
ATOM     15  C   UNL     1       0.574  -2.686   2.449  0.00  0.00    +0.022 A 
ATOM     16  C   UNL     1       0.065  -2.106   3.597  0.00  0.00    +0.041 A 
ATOM     17  C   UNL     1      -0.465  -0.828   3.553  0.00  0.00    +0.022 A 
ATOM     18  C   UNL     1      -0.482  -0.127   2.364  0.00  0.00    +0.026 A 
ATOM     19 CL   UNL     1       0.091  -2.982   5.096  0.00  0.00    -0.084 Cl
ENDBRANCH  12  13
ENDBRANCH   8  12
ENDBRANCH   1   8
BRANCH   3  20
ATOM     20  C   UNL     1       4.105  -3.880  -2.423  0.00  0.00    +0.340 C 
ATOM     21  O   UNL     1       3.411  -4.842  -2.162  0.00  0.00    -0.245 OA
BRANCH  20  22
ATOM     22  O   UNL     1       5.392  -4.054  -2.781  0.00  0.00    -0.452 OA
BRANCH  22  23
ATOM     23  C   UNL     1       5.873  -5.399  -2.834  0.00  0.00    +0.328 C 
BRANCH  23  24
ATOM     24  C   UNL     1       7.322  -5.397  -3.251  0.00  0.00    +0.251 C 
ATOM     25  O   UNL     1       7.886  -4.348  -3.479  0.00  0.00    -0.272 OA
ATOM     26  N   UNL     1       7.990  -6.562  -3.369  0.00  0.00    -0.305 N 
ATOM     27  H   UNL     1       7.539  -7.401  -3.186  0.00  0.00    +0.149 HD
BRANCH  26  28
ATOM     28  C   UNL     1       9.398  -6.561  -3.773  0.00  0.00    +0.178 C 
BRANCH  28  29
ATOM     29  C   UNL     1       9.906  -7.978  -3.829  0.00  0.00    +0.122 A 
ATOM     30  C   UNL     1       9.875  -8.783  -4.906  0.00  0.00    +0.046 A 
ATOM     31  C   UNL     1      10.451 -10.014  -4.515  0.00  0.00    +0.041 A 
ATOM     32  C   UNL     1      10.799  -9.887  -3.222  0.00  0.00    +0.195 A 
ATOM     33  O   UNL     1      10.472  -8.650  -2.813  0.00  0.00    -0.466 OA
ENDBRANCH  28  29
ENDBRANCH  26  28
ENDBRANCH  23  24
ENDBRANCH  22  23
ENDBRANCH  20  22
ENDBRANCH   3  20
TORSDOF 9
