REMARK  Name = ZINC14547785
REMARK  4 active torsions:
REMARK  status: ('A' for Active; 'I' for Inactive)
REMARK    1  A    between atoms: C_1  and  C_2
REMARK    2  A    between atoms: C_2  and  C_4
REMARK    3  A    between atoms: C_17  and  C_20
REMARK    4  A    between atoms: C_29  and  O_30
REMARK                            x       y       z     vdW  Elec       q    Type
REMARK                         _______ _______ _______ _____ _____    ______ ____
ROOT
ATOM      1  C   UNL     1       1.845  -7.650  -0.475  0.00  0.00    +0.017 A 
ATOM      2  C   UNL     1       1.411  -7.516   0.851  0.00  0.00    +0.013 A 
ATOM      3  C   UNL     1       0.869  -6.339   1.275  0.00  0.00    +0.024 A 
ATOM      4  C   UNL     1       0.742  -5.261   0.400  0.00  0.00    +0.031 A 
ATOM      5  C   UNL     1       1.186  -5.391  -0.925  0.00  0.00    -0.019 A 
ATOM      6  C   UNL     1       1.723  -6.568  -1.355  0.00  0.00    +0.017 A 
ATOM      7  C   UNL     1       1.054  -4.212  -1.808  0.00  0.00    +0.049 C 
ATOM      8  C   UNL     1       0.904  -4.345  -3.280  0.00  0.00    -0.023 C 
ATOM      9  C   UNL     1       0.187  -3.339  -3.736  0.00  0.00    -0.030 C 
ATOM     10  C   UNL     1      -0.273  -2.461  -2.570  0.00  0.00    +0.033 C 
ATOM     11  C   UNL     1      -0.249  -3.458  -1.404  0.00  0.00    +0.029 C 
ATOM     12  C   UNL     1       0.022  -2.900  -0.019  0.00  0.00    +0.109 C 
ATOM     13  N   UNL     1       0.172  -4.077   0.863  0.00  0.00    -0.336 N 
ATOM     14  H   UNL     1      -0.132  -4.024   1.783  0.00  0.00    +0.147 HD
ENDROOT
BRANCH  12  15
ATOM     15  C   UNL     1       1.292  -2.087  -0.024  0.00  0.00    +0.022 A 
ATOM     16  C   UNL     1       2.417  -2.533   0.688  0.00  0.00    -0.009 A 
ATOM     17  C   UNL     1       2.391  -3.734   1.417  0.00  0.00    +0.009 A 
ATOM     18  C   UNL     1       3.501  -4.135   2.096  0.00  0.00    +0.001 A 
ATOM     19  C   UNL     1       4.666  -3.370   2.080  0.00  0.00    +0.001 A 
ATOM     20  C   UNL     1       4.728  -2.201   1.386  0.00  0.00    +0.008 A 
ATOM     21  C   UNL     1       3.603  -1.755   0.672  0.00  0.00    -0.017 A 
ATOM     22  C   UNL     1       3.631  -0.553  -0.055  0.00  0.00    +0.012 A 
ATOM     23  C   UNL     1       2.524  -0.149  -0.735  0.00  0.00    +0.046 A 
ATOM     24  C   UNL     1       1.353  -0.914  -0.721  0.00  0.00    +0.122 A 
BRANCH  24  25
ATOM     25  O   UNL     1       0.264  -0.485  -1.409  0.00  0.00    -0.506 OA
ATOM     26  H   UNL     1      -0.289   0.140  -0.920  0.00  0.00    +0.292 HD
ENDBRANCH  24  25
ENDBRANCH  12  15
BRANCH   1  28
ATOM     27  C   UNL     1       2.552 -10.079   0.013  0.00  0.00    +0.091 C 
ATOM     28  C   UNL     1       2.423  -8.917  -0.938  0.00  0.00    +0.160 C 
ATOM     29  O   UNL     1       2.798  -9.029  -2.086  0.00  0.00    -0.292 OA
ENDBRANCH   1  28
TORSDOF 3
