REMARK  Name = ZINC00651547
REMARK  7 active torsions:
REMARK  status: ('A' for Active; 'I' for Inactive)
REMARK    1  A    between atoms: C_1  and  C_2
REMARK    2  A    between atoms: C_3  and  C_8
REMARK    3  A    between atoms: N_5  and  C_7
REMARK    4  A    between atoms: C_15  and  C_33
REMARK    5  A    between atoms: C_16  and  C_24
REMARK    6  A    between atoms: C_17  and  C_19
REMARK    7  A    between atoms: N_26  and  C_27
REMARK                            x       y       z     vdW  Elec       q    Type
REMARK                         _______ _______ _______ _____ _____    ______ ____
ROOT
ATOM      1  C   UNL     1      -1.952   0.418  -4.532  0.00  0.00    +0.031 C 
ATOM      2  C   UNL     1      -2.247   0.874  -3.287  0.00  0.00    +0.081 A 
ATOM      3  C   UNL     1      -1.877   0.319  -1.980  0.00  0.00    +0.268 A 
ATOM      4  O   UNL     1      -1.209  -0.696  -1.896  0.00  0.00    -0.266 OA
ATOM      5  N   UNL     1      -2.295   0.963  -0.881  0.00  0.00    -0.274 N 
ATOM      6  C   UNL     1      -3.046   2.105  -1.032  0.00  0.00    +0.178 A 
ATOM      7  N   UNL     1      -3.509   2.814  -0.034  0.00  0.00    -0.228 NA
ATOM      8  C   UNL     1      -3.318   2.531   1.249  0.00  0.00    +0.052 C 
ATOM      9  C   UNL     1      -2.595   1.433   1.618  0.00  0.00    +0.063 C 
ATOM     10  C   UNL     1      -2.023   0.557   0.526  0.00  0.00    +0.166 C 
ATOM     11  C   UNL     1      -3.905   3.429   2.307  0.00  0.00    +0.066 C 
ATOM     12  S   UNL     1      -3.188   2.310  -2.797  0.00  0.00    -0.046 S 
ENDROOT
BRANCH   1  15
ATOM     13  C   UNL     1      -2.322  -1.904  -6.662  0.00  0.00    +0.068 C 
ATOM     14  C   UNL     1      -1.217  -1.784  -5.644  0.00  0.00    +0.067 A 
ATOM     15  C   UNL     1      -1.067  -0.741  -4.700  0.00  0.00    +0.017 A 
ATOM     16  C   UNL     1       0.075  -1.016  -3.968  0.00  0.00    +0.116 A 
ATOM     17  N   UNL     1       0.584  -2.169  -4.438  0.00  0.00    -0.274 N 
ATOM     18  N   UNL     1      -0.233  -2.624  -5.479  0.00  0.00    -0.176 NA
ATOM     19  C   UNL     1       1.794  -2.833  -3.947  0.00  0.00    +0.172 C 
ENDBRANCH   1  15
BRANCH  10  20
ATOM     20  C   UNL     1      -0.529   0.501   0.712  0.00  0.00    +0.017 A 
ATOM     21  C   UNL     1       0.218  -0.441   1.338  0.00  0.00    +0.013 A 
ATOM     22  C   UNL     1       1.591  -0.285   1.384  0.00  0.00    +0.008 A 
ATOM     23  C   UNL     1       2.148   0.809   0.811  0.00  0.00    +0.045 A 
ATOM     24  S   UNL     1       0.716   1.661   0.172  0.00  0.00    -0.099 S 
ENDBRANCH  10  20
BRANCH   9  25
ATOM     25  C   UNL     1      -2.388   1.125   2.975  0.00  0.00    +0.248 C 
ATOM     26  O   UNL     1      -2.995   0.203   3.490  0.00  0.00    -0.270 OA
ATOM     27  N   UNL     1      -1.517   1.851   3.705  0.00  0.00    -0.282 N 
ATOM     28  H   UNL     1      -1.097   2.635   3.319  0.00  0.00    +0.155 HD
BRANCH  27  29
ATOM     29  C   UNL     1      -1.221   1.472   5.018  0.00  0.00    +0.034 A 
ATOM     30  C   UNL     1      -1.230   0.130   5.374  0.00  0.00    +0.023 A 
ATOM     31  C   UNL     1      -0.932  -0.241   6.671  0.00  0.00    +0.002 A 
ATOM     32  C   UNL     1      -0.633   0.723   7.616  0.00  0.00    +0.000 A 
ATOM     33  C   UNL     1      -0.628   2.061   7.265  0.00  0.00    +0.002 A 
ATOM     34  C   UNL     1      -0.921   2.438   5.970  0.00  0.00    +0.023 A 
ENDBRANCH  27  29
ENDBRANCH   9  25
TORSDOF 4
