REMARK  Name = ZINC36506121
REMARK  16 active torsions:
REMARK  status: ('A' for Active; 'I' for Inactive)
REMARK    1  A    between atoms: C_1  and  C_2
REMARK    2  A    between atoms: C_2  and  C_3
REMARK    3  A    between atoms: C_2  and  C_4
REMARK    4  A    between atoms: C_2  and  C_5
REMARK    5  A    between atoms: C_5  and  C_6
REMARK    6  A    between atoms: C_6  and  C_7
REMARK    7  A    between atoms: C_6  and  C_8
REMARK    8  A    between atoms: C_6  and  N_9
REMARK    9  A    between atoms: C_10  and  C_12
REMARK   10  A    between atoms: C_12  and  C_14
REMARK   11  A    between atoms: C_12  and  N_22
REMARK   12  A    between atoms: C_17  and  O_20
REMARK   13  A    between atoms: O_20  and  C_21
REMARK   14  A    between atoms: N_22  and  C_23
REMARK   15  A    between atoms: C_23  and  C_24
REMARK   16  A    between atoms: C_29  and  C_31
REMARK                            x       y       z     vdW  Elec       q    Type
REMARK                         _______ _______ _______ _____ _____    ______ ____
ROOT
ATOM      1  C   UNL     1       5.681  -1.221  -3.439  0.00  0.00    +0.193 C 
ENDROOT
BRANCH   1   2
ATOM      2  C   UNL     1       4.784  -0.703  -4.533  0.00  0.00    -0.018 A 
ATOM      3  C   UNL     1       4.598   0.658  -4.687  0.00  0.00    +0.009 A 
ATOM      4  C   UNL     1       3.776   1.135  -5.690  0.00  0.00    +0.046 A 
ATOM      5  C   UNL     1       3.137   0.247  -6.543  0.00  0.00    +0.120 A 
ATOM      6  C   UNL     1       3.325  -1.118  -6.387  0.00  0.00    +0.046 A 
ATOM      7  C   UNL     1       4.152  -1.590  -5.386  0.00  0.00    +0.009 A 
BRANCH   5   8
ATOM      8  O   UNL     1       2.328   0.714  -7.530  0.00  0.00    -0.495 OA
ATOM      9  C   UNL     1       1.703  -0.257  -8.370  0.00  0.00    +0.277 C 
ENDBRANCH   5   8
ENDBRANCH   1   2
BRANCH   1  11
ATOM     10  N   UNL     1       3.830  -2.253  -2.161  0.00  0.00    -0.308 N 
ATOM     11  C   UNL     1       4.878  -1.405  -2.176  0.00  0.00    +0.239 C 
ATOM     12  O   UNL     1       5.174  -0.790  -1.174  0.00  0.00    -0.273 OA
ATOM     13  H   UNL     1       3.593  -2.745  -2.963  0.00  0.00    +0.149 HD
BRANCH  10  14
ATOM     14  C   UNL     1       3.050  -2.432  -0.934  0.00  0.00    +0.030 C 
ATOM     15  C   UNL     1       2.614  -1.065  -0.404  0.00  0.00    +0.031 C 
ATOM     16  C   UNL     1       3.908  -3.137   0.118  0.00  0.00    +0.031 C 
BRANCH  14  17
ATOM     17  C   UNL     1       1.813  -3.280  -1.236  0.00  0.00    +0.031 C 
BRANCH  17  19
ATOM     18  C   UNL     1       1.797  -3.010  -3.720  0.00  0.00    +0.010 C 
ATOM     19  C   UNL     1       1.058  -2.677  -2.422  0.00  0.00    -0.036 C 
ATOM     20  C   UNL     1       0.977  -1.158  -2.256  0.00  0.00    +0.010 C 
ATOM     21  C   UNL     1      -0.356  -3.260  -2.476  0.00  0.00    +0.010 C 
ENDBRANCH  17  19
ENDBRANCH  14  17
ENDBRANCH  10  14
ENDBRANCH   1  11
BRANCH   1  22
ATOM     22  N   UNL     1       6.759  -0.261  -3.196  0.00  0.00    -0.275 N 
ATOM     23  C   UNL     1       7.707  -0.061  -4.132  0.00  0.00    +0.249 C 
ATOM     24  O   UNL     1       8.615   0.721  -3.922  0.00  0.00    -0.270 OA
BRANCH  23  25
ATOM     25  C   UNL     1       7.644  -0.791  -5.415  0.00  0.00    +0.055 A 
ATOM     26  C   UNL     1       6.604  -1.690  -5.660  0.00  0.00    +0.014 A 
ATOM     27  C   UNL     1       6.551  -2.369  -6.859  0.00  0.00    +0.001 A 
ATOM     28  C   UNL     1       7.525  -2.161  -7.820  0.00  0.00    +0.001 A 
ATOM     29  C   UNL     1       8.558  -1.272  -7.586  0.00  0.00    +0.021 A 
ATOM     30  C   UNL     1       8.621  -0.581  -6.391  0.00  0.00    +0.053 A 
ATOM     31 CL   UNL     1       9.915   0.539  -6.101  0.00  0.00    -0.083 Cl
ENDBRANCH  23  25
BRANCH  22  32
ATOM     32  C   UNL     1       6.808   0.483  -1.934  0.00  0.00    +0.183 C 
BRANCH  32  33
ATOM     33  C   UNL     1       7.395  -0.393  -0.857  0.00  0.00    +0.122 A 
ATOM     34  C   UNL     1       8.685  -0.416  -0.479  0.00  0.00    +0.046 A 
ATOM     35  C   UNL     1       8.792  -1.375   0.554  0.00  0.00    +0.041 A 
ATOM     36  C   UNL     1       7.560  -1.881   0.745  0.00  0.00    +0.195 A 
ATOM     37  O   UNL     1       6.717  -1.278  -0.109  0.00  0.00    -0.466 OA
ENDBRANCH  32  33
ENDBRANCH  22  32
ENDBRANCH   1  22
TORSDOF 10
