REMARK  Name = ZINC13499638
REMARK  11 active torsions:
REMARK  status: ('A' for Active; 'I' for Inactive)
REMARK    1  A    between atoms: C_1  and  C_2
REMARK    2  A    between atoms: C_2  and  C_3
REMARK    3  A    between atoms: C_3  and  C_4
REMARK    4  A    between atoms: C_4  and  C_6
REMARK    5  A    between atoms: C_4  and  N_78
REMARK    6  A    between atoms: N_10  and  C_11
REMARK    7  A    between atoms: C_17  and  C_18
REMARK    8  A    between atoms: C_17  and  N_78
REMARK    9  A    between atoms: C_23  and  C_31
REMARK   10  A    between atoms: C_24  and  C_30
REMARK   11  A    between atoms: C_32  and  N_78
REMARK                            x       y       z     vdW  Elec       q    Type
REMARK                         _______ _______ _______ _____ _____    ______ ____
ROOT
ATOM      1  N   UNL     1       2.797  -4.535  -1.390  0.00  0.00    +0.391 N 
ATOM      2  H   UNL     1       2.077  -4.138  -2.006  0.00  0.00    -0.080 HD
ENDROOT
BRANCH   1   3
ATOM      3  C   UNL     1       4.130  -4.219  -1.944  0.00  0.00    -0.067 C 
ATOM      4  C   UNL     1       5.205  -5.078  -1.275  0.00  0.00    -0.015 C 
ATOM      5  C   UNL     1       6.573  -4.738  -1.870  0.00  0.00    -0.002 C 
ATOM      6  C   UNL     1       6.880  -3.258  -1.629  0.00  0.00    -0.000 C 
ATOM      7  C   UNL     1       5.805  -2.399  -2.298  0.00  0.00    -0.002 C 
ATOM      8  C   UNL     1       4.437  -2.740  -1.703  0.00  0.00    -0.015 C 
ENDBRANCH   1   3
BRANCH   1   9
ATOM      9  C   UNL     1       2.613  -6.000  -1.319  0.00  0.00    +0.003 C 
BRANCH   9  10
ATOM     10  C   UNL     1       3.394  -6.658  -2.428  0.00  0.00    +0.138 A 
ATOM     11  N   UNL     1       3.519  -6.227  -3.659  0.00  0.00    -0.115 NA
ATOM     12  N   UNL     1       4.262  -7.062  -4.300  0.00  0.00    -0.023 NA
ATOM     13  N   UNL     1       4.614  -8.015  -3.509  0.00  0.00    -0.044 NA
ATOM     14  N   UNL     1       4.103  -7.799  -2.344  0.00  0.00    -0.228 N 
BRANCH  14  15
ATOM     15  C   UNL     1       4.262  -8.639  -1.154  0.00  0.00    +0.111 C 
ATOM     16  C   UNL     1       5.745  -8.732  -0.790  0.00  0.00    +0.027 C 
ATOM     17  C   UNL     1       5.912  -9.609   0.452  0.00  0.00    +0.002 C 
ATOM     18  C   UNL     1       5.368 -11.010   0.163  0.00  0.00    +0.000 C 
ATOM     19  C   UNL     1       3.885 -10.917  -0.200  0.00  0.00    +0.002 C 
ATOM     20  C   UNL     1       3.719 -10.040  -1.443  0.00  0.00    +0.027 C 
ENDBRANCH  14  15
ENDBRANCH   9  10
BRANCH   9  21
ATOM     21  C   UNL     1       1.125  -6.313  -1.488  0.00  0.00    -0.008 C 
BRANCH  21  23
ATOM     22  C   UNL     1      -1.143  -6.015  -0.483  0.00  0.00    +0.004 C 
ATOM     23  C   UNL     1       0.326  -5.596  -0.398  0.00  0.00    -0.005 C 
ENDBRANCH  21  23
ENDBRANCH   9  21
ENDBRANCH   1   9
BRANCH   1  24
ATOM     24  C   UNL     1       2.656  -3.943  -0.043  0.00  0.00    -0.036 C 
BRANCH  24  25
ATOM     25  C   UNL     1       3.673  -4.529   0.901  0.00  0.00    +0.001 A 
ATOM     26  C   UNL     1       4.840  -3.876   1.128  0.00  0.00    +0.017 A 
ATOM     27  C   UNL     1       5.807  -4.473   2.051  0.00  0.00    -0.001 A 
ATOM     28  C   UNL     1       7.027  -3.845   2.326  0.00  0.00    +0.010 A 
ATOM     29  C   UNL     1       7.908  -4.428   3.192  0.00  0.00    +0.004 A 
ATOM     30  C   UNL     1       7.603  -5.637   3.803  0.00  0.00    -0.046 A 
ATOM     31  C   UNL     1       6.408  -6.273   3.547  0.00  0.00    -0.024 A 
ATOM     32  C   UNL     1       5.495  -5.698   2.669  0.00  0.00    +0.052 A 
ATOM     33  N   UNL     1       4.291  -6.312   2.395  0.00  0.00    -0.322 N 
ATOM     34  H   UNL     1       4.078  -7.157   2.821  0.00  0.00    +0.169 HD
ATOM     35  C   UNL     1       3.409  -5.757   1.546  0.00  0.00    +0.251 A 
ATOM     36  O   UNL     1       2.355  -6.328   1.327  0.00  0.00    -0.268 OA
ATOM     37  C   UNL     1       6.090  -7.584   4.218  0.00  0.00    +0.046 C 
ATOM     38  C   UNL     1       8.591  -6.261   4.755  0.00  0.00    +0.044 C 
ENDBRANCH  24  25
ENDBRANCH   1  24
TORSDOF 8
