REMARK  Name = ZINC37971425
REMARK  8 active torsions:
REMARK  status: ('A' for Active; 'I' for Inactive)
REMARK    1  A    between atoms: C_1  and  O_2
REMARK    2  A    between atoms: O_2  and  C_3
REMARK    3  A    between atoms: C_5  and  C_11
REMARK    4  A    between atoms: C_8  and  O_9
REMARK    5  A    between atoms: C_11  and  C_13
REMARK    6  A    between atoms: C_11  and  N_16
REMARK    7  A    between atoms: N_16  and  C_17
REMARK    8  A    between atoms: C_17  and  C_18
REMARK                            x       y       z     vdW  Elec       q    Type
REMARK                         _______ _______ _______ _____ _____    ______ ____
ROOT
ATOM      1  C   UNL     1      -4.871   0.258   0.039  0.00  0.00    +0.171 C 
ENDROOT
BRANCH   1   4
ATOM      2  C   UNL     1      -1.201  -0.638   0.010  0.00  0.00    +0.163 A 
ATOM      3  C   UNL     1      -2.374   0.100   0.019  0.00  0.00    +0.055 A 
ATOM      4  C   UNL     1      -3.597  -0.546   0.028  0.00  0.00    -0.017 A 
ATOM      5  C   UNL     1      -3.653  -1.927   0.028  0.00  0.00    +0.024 A 
ATOM      6  C   UNL     1      -2.486  -2.669   0.018  0.00  0.00    +0.063 A 
ATOM      7  C   UNL     1      -1.257  -2.028   0.003  0.00  0.00    +0.173 A 
ATOM      8 BR   UNL     1      -2.567  -4.559   0.019  0.00  0.00    -0.046 Br
BRANCH   2  10
ATOM      9  C   UNL     1      -0.017   1.425   0.010  0.00  0.00    +0.277 C 
ATOM     10  O   UNL     1       0.002  -0.004   0.002  0.00  0.00    -0.491 OA
ENDBRANCH   2  10
BRANCH   7  11
ATOM     11  O   UNL     1      -0.108  -2.756  -0.012  0.00  0.00    -0.503 OA
ATOM     12  H   UNL     1       0.233  -2.971   0.867  0.00  0.00    +0.292 HD
ENDBRANCH   7  11
ENDBRANCH   1   4
BRANCH   1  13
ATOM     13  C   UNL     1      -5.417   0.316   1.443  0.00  0.00    +0.232 C 
ATOM     14  O   UNL     1      -6.520  -0.128   1.683  0.00  0.00    -0.274 OA
ATOM     15  N   UNL     1      -4.680   0.861   2.430  0.00  0.00    -0.328 N 
ATOM     16  H   UNL     1      -3.798   1.216   2.238  0.00  0.00    +0.145 HD
ATOM     17  H   UNL     1      -5.031   0.898   3.334  0.00  0.00    +0.145 HD
ENDBRANCH   1  13
BRANCH   1  18
ATOM     18  N   UNL     1      -5.858  -0.377  -0.844  0.00  0.00    -0.294 NA
ATOM     19  H   UNL     1      -5.405  -0.849  -1.613  0.00  0.00    +0.123 HD
BRANCH  18  20
ATOM     20  C   UNL     1      -6.837   0.605  -1.332  0.00  0.00    +0.196 C 
BRANCH  20  21
ATOM     21  C   UNL     1      -7.846  -0.093  -2.247  0.00  0.00    +0.402 C 
ATOM     22  F   UNL     1      -8.508  -1.095  -1.531  0.00  0.00    -0.169 F 
ATOM     23  F   UNL     1      -8.777   0.842  -2.712  0.00  0.00    -0.169 F 
ATOM     24  F   UNL     1      -7.174  -0.662  -3.334  0.00  0.00    -0.169 F 
ENDBRANCH  20  21
ENDBRANCH  18  20
ENDBRANCH   1  18
TORSDOF 7
