REMARK  Name = ZINC05175941
REMARK  2 active torsions:
REMARK  status: ('A' for Active; 'I' for Inactive)
REMARK    1  A    between atoms: C_1  and  C_2
REMARK    2  A    between atoms: N_16  and  C_17
REMARK                            x       y       z     vdW  Elec       q    Type
REMARK                         _______ _______ _______ _____ _____    ______ ____
ROOT
ATOM      1  C   UNL     1      -0.009   1.530   0.004  0.00  0.00    +0.029 C 
ATOM      2  C   UNL     1       0.003  -0.000   0.003  0.00  0.00    +0.086 C 
ATOM      3  C   UNL     1      -1.435  -0.520   0.017  0.00  0.00    +0.081 C 
ATOM      4  C   UNL     1      -1.457  -1.973   0.410  0.00  0.00    +0.055 C 
ATOM      5  N   UNL     1      -1.275  -2.336   1.699  0.00  0.00    -0.311 N 
ATOM      6  C   UNL     1      -0.969  -1.375   2.669  0.00  0.00    +0.053 A 
ATOM      7  C   UNL     1      -1.668  -1.323   3.864  0.00  0.00    +0.025 A 
ATOM      8  C   UNL     1      -1.332  -0.381   4.817  0.00  0.00    +0.002 A 
ATOM      9  C   UNL     1      -0.298   0.508   4.584  0.00  0.00    +0.002 A 
ATOM     10  C   UNL     1       0.399   0.469   3.391  0.00  0.00    +0.025 A 
ATOM     11  C   UNL     1       0.060  -0.464   2.425  0.00  0.00    +0.059 A 
ATOM     12  N   UNL     1       0.716  -0.482   1.188  0.00  0.00    -0.250 N 
ATOM     13  C   UNL     1       1.982  -0.934   1.091  0.00  0.00    +0.311 C 
ATOM     14  O   UNL     1       2.543  -0.945   0.013  0.00  0.00    -0.252 OA
ATOM     15  N   UNL     1       2.626  -1.375   2.190  0.00  0.00    -0.269 N 
ATOM     16  S   UNL     1      -1.697  -3.095  -0.704  0.00  0.00    -0.040 S 
ATOM     17  H   UNL     1       2.203  -1.305   3.061  0.00  0.00    +0.156 HD
ATOM     18  H   UNL     1      -1.357  -3.268   1.953  0.00  0.00    +0.152 HD
ENDROOT
BRANCH  15  19
ATOM     19  C   UNL     1       3.903  -1.934   2.075  0.00  0.00    +0.035 A 
ATOM     20  C   UNL     1       4.280  -2.985   2.901  0.00  0.00    +0.023 A 
ATOM     21  C   UNL     1       5.542  -3.535   2.785  0.00  0.00    +0.002 A 
ATOM     22  C   UNL     1       6.430  -3.039   1.848  0.00  0.00    +0.000 A 
ATOM     23  C   UNL     1       6.058  -1.992   1.024  0.00  0.00    +0.002 A 
ATOM     24  C   UNL     1       4.796  -1.442   1.132  0.00  0.00    +0.023 A 
ENDBRANCH  15  19
TORSDOF 1
