REMARK  Name = ZINC38884149
REMARK  9 active torsions:
REMARK  status: ('A' for Active; 'I' for Inactive)
REMARK    1  A    between atoms: C_1  and  C_2
REMARK    2  A    between atoms: C_2  and  C_4
REMARK    3  A    between atoms: C_2  and  C_15
REMARK    4  A    between atoms: C_4  and  C_5
REMARK    5  A    between atoms: C_15  and  N_16
REMARK    6  A    between atoms: C_17  and  C_19
REMARK    7  A    between atoms: N_22  and  C_25
REMARK    8  A    between atoms: C_25  and  C_26
REMARK    9  A    between atoms: C_28  and  C_31
REMARK                            x       y       z     vdW  Elec       q    Type
REMARK                         _______ _______ _______ _____ _____    ______ ____
ROOT
ATOM      1  N   UNL     1      -2.105  -0.148  -1.230  0.00  0.00    -0.315 N 
ATOM      2  C   UNL     1      -3.387  -0.508  -1.443  0.00  0.00    +0.216 C 
ATOM      3  O   UNL     1      -3.983  -1.151  -0.606  0.00  0.00    -0.276 OA
ATOM      4  H   UNL     1      -1.628   0.366  -1.901  0.00  0.00    +0.149 HD
ENDROOT
BRANCH   2   5
ATOM      5  C   UNL     1      -4.078  -0.112  -2.723  0.00  0.00    +0.071 C 
ATOM      6  C   UNL     1      -3.331  -0.713  -3.916  0.00  0.00    -0.006 C 
ATOM      7  C   UNL     1      -4.082  -0.373  -5.205  0.00  0.00    -0.077 C 
ATOM      8  N   UNL     1      -5.439  -0.929  -5.145  0.00  0.00    +0.386 N 
ATOM      9  C   UNL     1      -6.186  -0.304  -4.047  0.00  0.00    -0.077 C 
ATOM     10  C   UNL     1      -5.515  -0.641  -2.713  0.00  0.00    -0.006 C 
ATOM     11  H   UNL     1      -5.388  -1.925  -4.992  0.00  0.00    -0.081 HD
BRANCH   8  12
ATOM     12  C   UNL     1      -6.130  -0.668  -6.415  0.00  0.00    +0.022 C 
BRANCH  12  13
ATOM     13  C   UNL     1      -7.478  -1.343  -6.402  0.00  0.00    +0.211 A 
ATOM     14  N   UNL     1      -8.590  -0.811  -5.986  0.00  0.00    -0.192 NA
ATOM     15  C   UNL     1      -9.600  -1.692  -6.116  0.00  0.00    +0.209 A 
ATOM     16  N   UNL     1      -9.121  -2.804  -6.623  0.00  0.00    -0.056 NA
ATOM     17  O   UNL     1      -7.732  -2.589  -6.822  0.00  0.00    -0.340 OA
BRANCH  15  18
ATOM     18  C   UNL     1     -11.010  -1.449  -5.749  0.00  0.00    +0.060 A 
ATOM     19  C   UNL     1     -12.085  -2.292  -5.846  0.00  0.00    +0.019 A 
ATOM     20  C   UNL     1     -13.320  -1.841  -5.437  0.00  0.00    +0.008 A 
ATOM     21  C   UNL     1     -13.435  -0.577  -4.951  0.00  0.00    +0.046 A 
ATOM     22  S   UNL     1     -11.756   0.019  -5.057  0.00  0.00    -0.093 S 
ENDBRANCH  15  18
ENDBRANCH  12  13
ENDBRANCH   8  12
ENDBRANCH   2   5
BRANCH   1  23
ATOM     23  C   UNL     1      -1.433  -0.534   0.013  0.00  0.00    +0.107 C 
BRANCH  23  25
ATOM     24  C   UNL     1      -0.019   1.526   0.010  0.00  0.00    +0.009 C 
ATOM     25  C   UNL     1       0.002  -0.004   0.002  0.00  0.00    +0.007 C 
BRANCH  25  26
ATOM     26  C   UNL     1       0.742  -0.511   1.242  0.00  0.00    +0.040 C 
BRANCH  26  27
ATOM     27  C   UNL     1       2.188  -0.092   1.170  0.00  0.00    -0.039 A 
ATOM     28  C   UNL     1       3.122  -0.941   0.659  0.00  0.00    +0.004 A 
ATOM     29  C   UNL     1       4.463  -0.572   0.585  0.00  0.00    +0.001 A 
ATOM     30  C   UNL     1       4.879   0.649   1.021  0.00  0.00    +0.008 A 
ATOM     31  C   UNL     1       3.944   1.552   1.554  0.00  0.00    -0.018 A 
ATOM     32  C   UNL     1       2.579   1.179   1.624  0.00  0.00    -0.015 A 
ATOM     33  C   UNL     1       1.643   2.085   2.151  0.00  0.00    +0.009 A 
ATOM     34  C   UNL     1       2.058   3.308   2.581  0.00  0.00    +0.001 A 
ATOM     35  C   UNL     1       3.399   3.677   2.506  0.00  0.00    +0.001 A 
ATOM     36  C   UNL     1       4.336   2.821   2.014  0.00  0.00    +0.008 A 
ENDBRANCH  26  27
ENDBRANCH  25  26
ENDBRANCH  23  25
ENDBRANCH   1  23
TORSDOF 8
