REMARK  Name = ZINC55306688
REMARK  5 active torsions:
REMARK  status: ('A' for Active; 'I' for Inactive)
REMARK    1  A    between atoms: C_3  and  S_8
REMARK    2  A    between atoms: S_8  and  C_9
REMARK    3  A    between atoms: C_11  and  N_19
REMARK    4  A    between atoms: C_13  and  S_15
REMARK    5  A    between atoms: S_15  and  N_18
REMARK                            x       y       z     vdW  Elec       q    Type
REMARK                         _______ _______ _______ _____ _____    ______ ____
ROOT
ATOM      1  C   UNL     1       5.238   1.168  -0.044  0.00  0.00    +0.016 A 
ATOM      2  C   UNL     1       4.989  -0.196  -0.134  0.00  0.00    +0.038 A 
ATOM      3  C   UNL     1       6.048  -1.091  -0.150  0.00  0.00    +0.027 A 
ATOM      4  C   UNL     1       7.354  -0.622  -0.076  0.00  0.00    +0.051 A 
ATOM      5  C   UNL     1       7.599   0.735   0.014  0.00  0.00    +0.108 A 
ATOM      6  C   UNL     1       6.547   1.630   0.025  0.00  0.00    +0.043 A 
ENDROOT
BRANCH   5   7
ATOM      7  S   UNL     1       9.256   1.325   0.108  0.00  0.00    +0.056 S 
ATOM      8  O   UNL     1       9.199   2.599   0.735  0.00  0.00    -0.153 OA
ATOM      9  O   UNL     1      10.039   0.257   0.624  0.00  0.00    -0.153 OA
BRANCH   7  10
ATOM     10  N   UNL     1       9.773   1.584  -1.443  0.00  0.00    -0.204 NA
ATOM     11  H   UNL     1       9.178   1.406  -2.189  0.00  0.00    +0.144 HD
ATOM     12  H   UNL     1      10.670   1.913  -1.607  0.00  0.00    +0.144 HD
ENDBRANCH   7  10
ENDBRANCH   5   7
BRANCH   3  13
ATOM     13  N   UNL     1       5.802  -2.463  -0.241  0.00  0.00    -0.358 N 
ATOM     14  H   UNL     1       4.890  -2.790  -0.292  0.00  0.00    +0.142 HD
ATOM     15  H   UNL     1       6.543  -3.089  -0.252  0.00  0.00    +0.142 HD
ENDBRANCH   3  13
BRANCH   1  16
ATOM     16  S   UNL     1       3.896   2.310  -0.023  0.00  0.00    -0.089 S 
BRANCH  16  19
ATOM     17  C   UNL     1       4.084   2.105   3.989  0.00  0.00    +0.002 A 
ATOM     18  C   UNL     1       4.311   1.875   2.647  0.00  0.00    +0.015 A 
ATOM     19  C   UNL     1       3.609   2.600   1.691  0.00  0.00    +0.014 A 
ATOM     20  C   UNL     1       2.681   3.554   2.090  0.00  0.00    +0.030 A 
ATOM     21  C   UNL     1       2.459   3.779   3.435  0.00  0.00    +0.019 A 
ATOM     22  C   UNL     1       3.160   3.055   4.384  0.00  0.00    +0.015 A 
ATOM     23 BR   UNL     1       1.198   5.078   3.980  0.00  0.00    -0.050 Br
ENDBRANCH  16  19
ENDBRANCH   1  16
TORSDOF 5
