REMARK  Name = ZINC35094282
REMARK  13 active torsions:
REMARK  status: ('A' for Active; 'I' for Inactive)
REMARK    1  A    between atoms: C_1  and  C_2
REMARK    2  A    between atoms: C_6  and  N_8
REMARK    3  A    between atoms: N_11  and  C_12
REMARK    4  A    between atoms: N_11  and  C_16
REMARK    5  A    between atoms: C_12  and  C_13
REMARK    6  A    between atoms: C_13  and  O_14
REMARK    7  A    between atoms: O_14  and  C_15
REMARK    8  A    between atoms: C_16  and  C_18
REMARK    9  A    between atoms: C_16  and  C_19
REMARK   10  A    between atoms: N_29  and  C_30
REMARK   11  A    between atoms: C_32  and  C_38
REMARK   12  A    between atoms: C_35  and  O_36
REMARK   13  A    between atoms: O_36  and  C_37
REMARK                            x       y       z     vdW  Elec       q    Type
REMARK                         _______ _______ _______ _____ _____    ______ ____
ROOT
ATOM      1  C   UNL     1       1.708  -6.461   4.116  0.00  0.00    +0.138 A 
ATOM      2  N   UNL     1       2.354  -6.169   5.203  0.00  0.00    -0.231 NA
ATOM      3  C   UNL     1       3.587  -6.675   5.456  0.00  0.00    +0.078 A 
ATOM      4  C   UNL     1       4.283  -6.362   6.625  0.00  0.00    +0.028 A 
ATOM      5  C   UNL     1       5.532  -6.899   6.841  0.00  0.00    +0.002 A 
ATOM      6  C   UNL     1       6.110  -7.751   5.908  0.00  0.00    +0.001 A 
ATOM      7  C   UNL     1       5.444  -8.075   4.747  0.00  0.00    +0.015 A 
ATOM      8  C   UNL     1       4.179  -7.542   4.510  0.00  0.00    +0.065 A 
ATOM      9  C   UNL     1       3.421  -7.853   3.289  0.00  0.00    +0.266 A 
ATOM     10  O   UNL     1       3.873  -8.592   2.435  0.00  0.00    -0.267 OA
ATOM     11  N   UNL     1       2.197  -7.289   3.155  0.00  0.00    -0.259 N 
ENDROOT
BRANCH  11  12
ATOM     12  C   UNL     1       1.431  -7.557   2.012  0.00  0.00    +0.093 A 
ATOM     13  C   UNL     1       1.609  -6.803   0.862  0.00  0.00    +0.033 A 
ATOM     14  C   UNL     1       0.853  -7.069  -0.263  0.00  0.00    -0.048 A 
ATOM     15  C   UNL     1      -0.084  -8.086  -0.246  0.00  0.00    +0.007 A 
ATOM     16  C   UNL     1      -0.268  -8.842   0.896  0.00  0.00    +0.048 A 
ATOM     17  C   UNL     1       0.491  -8.586   2.027  0.00  0.00    +0.144 A 
ATOM     18  C   UNL     1       1.048  -6.248  -1.512  0.00  0.00    +0.044 C 
BRANCH  17  19
ATOM     19  O   UNL     1       0.316  -9.333   3.149  0.00  0.00    -0.493 OA
ATOM     20  C   UNL     1      -0.664 -10.370   3.091  0.00  0.00    +0.277 C 
ENDBRANCH  17  19
ENDBRANCH  11  12
BRANCH   1  21
ATOM     21  C   UNL     1       0.343  -5.856   3.911  0.00  0.00    +0.141 C 
ATOM     22  C   UNL     1      -0.534  -6.152   5.129  0.00  0.00    +0.036 C 
BRANCH  21  26
ATOM     23  N   UNL     1       0.069  -2.472   2.499  0.00  0.00    -0.269 N 
ATOM     24  C   UNL     1      -0.049  -3.806   2.654  0.00  0.00    +0.307 C 
ATOM     25  O   UNL     1      -0.625  -4.467   1.812  0.00  0.00    -0.252 OA
ATOM     26  N   UNL     1       0.471  -4.406   3.743  0.00  0.00    -0.273 N 
ATOM     27  H   UNL     1       0.598  -1.956   3.127  0.00  0.00    +0.156 HD
BRANCH  23  33
ATOM     28  C   UNL     1      -3.770  -2.155  -0.556  0.00  0.00    +0.044 C 
ATOM     29  C   UNL     1      -2.433  -1.657  -0.069  0.00  0.00    -0.049 A 
ATOM     30  C   UNL     1      -1.839  -0.567  -0.677  0.00  0.00    +0.003 A 
ATOM     31  C   UNL     1      -0.613  -0.107  -0.233  0.00  0.00    +0.002 A 
ATOM     32  C   UNL     1       0.023  -0.737   0.820  0.00  0.00    +0.023 A 
ATOM     33  C   UNL     1      -0.572  -1.832   1.432  0.00  0.00    +0.035 A 
ATOM     34  C   UNL     1      -1.806  -2.288   0.988  0.00  0.00    +0.026 A 
ENDBRANCH  23  33
BRANCH  26  35
ATOM     35  C   UNL     1       1.165  -3.610   4.758  0.00  0.00    +0.138 C 
BRANCH  35  36
ATOM     36  C   UNL     1       0.137  -2.945   5.675  0.00  0.00    +0.178 C 
BRANCH  36  37
ATOM     37  O   UNL     1      -0.529  -3.946   6.449  0.00  0.00    -0.381 OA
ATOM     38  C   UNL     1      -1.515  -3.428   7.344  0.00  0.00    +0.194 C 
ENDBRANCH  36  37
ENDBRANCH  35  36
ENDBRANCH  26  35
ENDBRANCH  21  26
ENDBRANCH   1  21
TORSDOF 8
