REMARK  Name = ZINC12282835
REMARK  7 active torsions:
REMARK  status: ('A' for Active; 'I' for Inactive)
REMARK    1  A    between atoms: C_1  and  C_2
REMARK    2  A    between atoms: C_2  and  O_3
REMARK    3  A    between atoms: O_3  and  C_4
REMARK    4  A    between atoms: C_9  and  N_71
REMARK    5  A    between atoms: C_18  and  C_28
REMARK    6  A    between atoms: C_20  and  O_21
REMARK    7  A    between atoms: O_21  and  C_22
REMARK                            x       y       z     vdW  Elec       q    Type
REMARK                         _______ _______ _______ _____ _____    ______ ____
ROOT
ATOM      1  C   UNL     1      -1.524   0.060   1.348  0.00  0.00    -0.036 C 
ATOM      2  C   UNL     1      -2.744   0.193   0.462  0.00  0.00    +0.211 C 
ATOM      3  O   UNL     1      -2.413  -0.087  -0.903  0.00  0.00    -0.490 OA
ATOM      4  C   UNL     1      -1.929   0.969  -1.614  0.00  0.00    +0.163 A 
ATOM      5  C   UNL     1      -0.684   1.488  -1.315  0.00  0.00    -0.018 A 
ATOM      6  C   UNL     1      -0.204   2.592  -1.986  0.00  0.00    +0.014 A 
ATOM      7  C   UNL     1      -0.976   3.182  -2.987  0.00  0.00    -0.013 A 
ATOM      8  C   UNL     1      -2.225   2.650  -3.304  0.00  0.00    +0.058 A 
ATOM      9  C   UNL     1      -2.702   1.546  -2.619  0.00  0.00    +0.163 A 
ATOM     10  C   UNL     1       0.156   0.828  -0.238  0.00  0.00    -0.039 C 
ATOM     11  N   UNL     1      -0.493   1.085   1.068  0.00  0.00    +0.387 N 
ATOM     12  H   UNL     1      -0.945   2.007   1.035  0.00  0.00    -0.081 HD
ENDROOT
BRANCH   7  13
ATOM     13  C   UNL     1      -0.469   4.370  -3.714  0.00  0.00    -0.003 A 
ATOM     14  C   UNL     1       0.009   5.439  -3.035  0.00  0.00    +0.055 A 
ATOM     15  S   UNL     1       0.486   6.572  -4.326  0.00  0.00    -0.096 S 
ATOM     16  C   UNL     1       0.029   5.599  -5.737  0.00  0.00    +0.020 A 
ATOM     17  C   UNL     1      -0.482   4.410  -5.175  0.00  0.00    -0.003 A 
ATOM     18  C   UNL     1      -0.934   3.425  -6.081  0.00  0.00    +0.009 A 
ATOM     19  C   UNL     1      -0.871   3.632  -7.424  0.00  0.00    +0.001 A 
ATOM     20  C   UNL     1      -0.364   4.811  -7.952  0.00  0.00    +0.001 A 
ATOM     21  C   UNL     1       0.088   5.798  -7.100  0.00  0.00    +0.015 A 
ENDBRANCH   7  13
BRANCH  11  27
ATOM     22  C   UNL     1       1.744  -0.452   5.745  0.00  0.00    +0.403 C 
ATOM     23  O   UNL     1       1.222  -0.046   6.764  0.00  0.00    -0.226 OA
ATOM     24  N   UNL     1       1.631   0.255   4.603  0.00  0.00    -0.268 N 
ATOM     25  C   UNL     1       0.879   1.516   4.574  0.00  0.00    +0.109 C 
ATOM     26  C   UNL     1      -0.171   1.440   3.462  0.00  0.00    +0.004 C 
ATOM     27  C   UNL     1       0.517   1.088   2.140  0.00  0.00    -0.065 C 
ATOM     28  C   UNL     1       1.192  -0.280   2.263  0.00  0.00    +0.004 C 
ATOM     29  C   UNL     1       2.257  -0.223   3.362  0.00  0.00    +0.109 C 
BRANCH  22  30
ATOM     30  O   UNL     1       2.436  -1.607   5.757  0.00  0.00    -0.451 OA
BRANCH  30  32
ATOM     31  C   UNL     1       3.337  -3.593   6.840  0.00  0.00    +0.048 C 
ATOM     32  C   UNL     1       2.517  -2.314   7.022  0.00  0.00    +0.230 C 
ENDBRANCH  30  32
ENDBRANCH  22  30
ENDBRANCH  11  27
BRANCH   9  33
ATOM     33  O   UNL     1      -3.920   1.025  -2.927  0.00  0.00    -0.483 OA
BRANCH  33  34
ATOM     34  C   UNL     1      -4.604   1.593  -4.046  0.00  0.00    +0.201 C 
ATOM     35  C   UNL     1      -5.724   0.642  -4.549  0.00  0.00    +0.075 C 
ATOM     36  C   UNL     1      -6.717   1.659  -5.168  0.00  0.00    +0.163 C 
ATOM     37  O   UNL     1      -6.659   2.809  -4.310  0.00  0.00    -0.376 OA
ATOM     38  C   UNL     1      -5.402   2.845  -3.624  0.00  0.00    +0.204 C 
ENDBRANCH  33  34
ENDBRANCH   9  33
TORSDOF 6
