REMARK  Name = ZINC13064876
REMARK  12 active torsions:
REMARK  status: ('A' for Active; 'I' for Inactive)
REMARK    1  A    between atoms: C_1  and  C_2
REMARK    2  A    between atoms: C_2  and  C_3
REMARK    3  A    between atoms: C_3  and  C_5
REMARK    4  A    between atoms: C_3  and  N_66
REMARK    5  A    between atoms: N_9  and  C_10
REMARK    6  A    between atoms: C_10  and  C_11
REMARK    7  A    between atoms: C_17  and  C_18
REMARK    8  A    between atoms: C_17  and  N_66
REMARK    9  A    between atoms: C_23  and  C_24
REMARK   10  A    between atoms: C_23  and  N_66
REMARK   11  A    between atoms: C_27  and  C_37
REMARK   12  A    between atoms: C_29  and  C_36
REMARK                            x       y       z     vdW  Elec       q    Type
REMARK                         _______ _______ _______ _____ _____    ______ ____
ROOT
ATOM      1  N   UNL     1      -1.934   0.897   1.346  0.00  0.00    +0.394 N 
ATOM      2  H   UNL     1      -1.774  -0.117   1.385  0.00  0.00    -0.080 HD
ENDROOT
BRANCH   1   3
ATOM      3  C   UNL     1      -0.634   1.582   1.186  0.00  0.00    +0.003 C 
BRANCH   3   4
ATOM      4  C   UNL     1       0.215   1.312   2.401  0.00  0.00    +0.138 A 
ATOM      5  N   UNL     1       0.369   0.161   3.009  0.00  0.00    -0.115 NA
ATOM      6  N   UNL     1       1.172   0.339   4.001  0.00  0.00    -0.023 NA
ATOM      7  N   UNL     1       1.528   1.576   4.047  0.00  0.00    -0.044 NA
ATOM      8  N   UNL     1       0.959   2.208   3.077  0.00  0.00    -0.226 N 
BRANCH   8   9
ATOM      9  C   UNL     1       1.096   3.634   2.769  0.00  0.00    +0.182 C 
BRANCH   9  10
ATOM     10  C   UNL     1       0.033   4.411   3.503  0.00  0.00    -0.026 A 
ATOM     11  C   UNL     1      -1.191   4.642   2.904  0.00  0.00    +0.005 A 
ATOM     12  C   UNL     1      -2.168   5.350   3.579  0.00  0.00    +0.000 A 
ATOM     13  C   UNL     1      -1.916   5.837   4.848  0.00  0.00    +0.000 A 
ATOM     14  C   UNL     1      -0.690   5.611   5.444  0.00  0.00    +0.000 A 
ATOM     15  C   UNL     1       0.285   4.897   4.772  0.00  0.00    +0.005 A 
ENDBRANCH   9  10
ENDBRANCH   8   9
ENDBRANCH   3   4
BRANCH   3  17
ATOM     16  C   UNL     1       1.385   1.777  -0.273  0.00  0.00    +0.002 C 
ATOM     17  C   UNL     1       0.066   1.032  -0.058  0.00  0.00    -0.011 C 
ENDBRANCH   3  17
ENDBRANCH   1   3
BRANCH   1  18
ATOM     18  C   UNL     1      -2.582   1.329   2.602  0.00  0.00    -0.002 C 
BRANCH  18  19
ATOM     19  C   UNL     1      -3.738   0.407   2.894  0.00  0.00    +0.089 A 
ATOM     20  C   UNL     1      -3.696  -0.682   3.682  0.00  0.00    +0.042 A 
ATOM     21  C   UNL     1      -4.993  -1.244   3.673  0.00  0.00    +0.041 A 
ATOM     22  C   UNL     1      -5.750  -0.465   2.880  0.00  0.00    +0.195 A 
ATOM     23  O   UNL     1      -4.986   0.536   2.415  0.00  0.00    -0.470 OA
ENDBRANCH  18  19
ENDBRANCH   1  18
BRANCH   1  24
ATOM     24  C   UNL     1      -2.810   1.201   0.195  0.00  0.00    -0.036 C 
BRANCH  24  25
ATOM     25  C   UNL     1      -2.917   2.690  -0.008  0.00  0.00    +0.001 A 
ATOM     26  C   UNL     1      -2.086   3.314  -0.879  0.00  0.00    +0.017 A 
ATOM     27  C   UNL     1      -2.215   4.762  -1.054  0.00  0.00    +0.002 A 
ATOM     28  C   UNL     1      -1.386   5.461  -1.938  0.00  0.00    -0.041 A 
ATOM     29  C   UNL     1      -1.533   6.812  -2.078  0.00  0.00    +0.007 A 
ATOM     30  C   UNL     1      -2.497   7.498  -1.351  0.00  0.00    -0.048 A 
ATOM     31  C   UNL     1      -3.324   6.830  -0.475  0.00  0.00    +0.029 A 
ATOM     32  C   UNL     1      -3.194   5.454  -0.315  0.00  0.00    +0.050 A 
ATOM     33  N   UNL     1      -4.008   4.760   0.554  0.00  0.00    -0.322 N 
ATOM     34  H   UNL     1      -4.682   5.238   1.062  0.00  0.00    +0.169 HD
ATOM     35  C   UNL     1      -3.886   3.430   0.704  0.00  0.00    +0.251 A 
ATOM     36  O   UNL     1      -4.626   2.848   1.478  0.00  0.00    -0.268 OA
ATOM     37  C   UNL     1      -2.640   8.988  -1.523  0.00  0.00    +0.044 C 
ATOM     38  C   UNL     1      -0.336   4.727  -2.731  0.00  0.00    +0.044 C 
ENDBRANCH  24  25
ENDBRANCH   1  24
TORSDOF 9
