REMARK  Name = ZINC40008836
REMARK  16 active torsions:
REMARK  status: ('A' for Active; 'I' for Inactive)
REMARK    1  A    between atoms: C_1  and  C_2
REMARK    2  A    between atoms: C_2  and  C_3
REMARK    3  A    between atoms: C_3  and  C_4
REMARK    4  A    between atoms: C_4  and  N_5
REMARK    5  A    between atoms: N_5  and  C_6
REMARK    6  A    between atoms: N_5  and  C_10
REMARK    7  A    between atoms: C_6  and  C_7
REMARK    8  A    between atoms: C_7  and  C_8
REMARK    9  A    between atoms: C_8  and  C_9
REMARK   10  A    between atoms: C_10  and  C_11
REMARK   11  A    between atoms: C_11  and  C_12
REMARK   12  A    between atoms: C_12  and  N_13
REMARK   13  A    between atoms: C_14  and  C_31
REMARK   14  A    between atoms: C_21  and  C_30
REMARK   15  A    between atoms: C_22  and  C_29
REMARK   16  A    between atoms: C_34  and  N_37
REMARK                            x       y       z     vdW  Elec       q    Type
REMARK                         _______ _______ _______ _____ _____    ______ ____
ROOT
ATOM      1  N   UNL     1      -2.043  -5.993  -3.176  0.00  0.00    -0.284 N 
ATOM      2  C   UNL     1      -2.939  -6.322  -2.056  0.00  0.00    +0.144 C 
ATOM      3  C   UNL     1      -4.292  -6.516  -2.659  0.00  0.00    +0.072 A 
ATOM      4  C   UNL     1      -5.580  -6.867  -2.051  0.00  0.00    +0.199 A 
ATOM      5  O   UNL     1      -5.764  -6.891  -0.847  0.00  0.00    -0.287 OA
ATOM      6  C   UNL     1      -6.637  -7.188  -3.042  0.00  0.00    +0.065 A 
ATOM      7  C   UNL     1      -7.853  -7.730  -2.627  0.00  0.00    +0.019 A 
ATOM      8  C   UNL     1      -8.815  -8.025  -3.553  0.00  0.00    -0.047 A 
ATOM      9  C   UNL     1      -8.583  -7.788  -4.901  0.00  0.00    -0.044 A 
ATOM     10  C   UNL     1      -7.390  -7.252  -5.328  0.00  0.00    +0.050 A 
ATOM     11  C   UNL     1      -6.393  -6.940  -4.403  0.00  0.00    +0.140 A 
ATOM     12  O   UNL     1      -5.232  -6.405  -4.843  0.00  0.00    -0.450 OA
ATOM     13  C   UNL     1      -4.181  -6.311  -4.005  0.00  0.00    +0.199 A 
ATOM     14  C   UNL     1      -2.777  -5.984  -4.308  0.00  0.00    +0.283 C 
ATOM     15  O   UNL     1      -2.342  -5.744  -5.417  0.00  0.00    -0.267 OA
ATOM     16  C   UNL     1      -9.652  -8.121  -5.910  0.00  0.00    +0.044 C 
ATOM     17  C   UNL     1     -10.130  -8.611  -3.109  0.00  0.00    +0.044 C 
ENDROOT
BRANCH   2  18
ATOM     18  C   UNL     1      -2.969  -5.188  -1.064  0.00  0.00    -0.022 A 
ATOM     19  C   UNL     1      -2.990  -3.880  -1.510  0.00  0.00    +0.008 A 
ATOM     20  C   UNL     1      -3.018  -2.839  -0.600  0.00  0.00    +0.033 A 
ATOM     21  C   UNL     1      -3.024  -3.107   0.756  0.00  0.00    +0.126 A 
ATOM     22  C   UNL     1      -3.003  -4.416   1.202  0.00  0.00    +0.033 A 
ATOM     23  C   UNL     1      -2.980  -5.456   0.292  0.00  0.00    +0.008 A 
BRANCH  21  24
ATOM     24  N   UNL     1      -3.052  -1.994   1.731  0.00  0.00    +0.056 N 
ATOM     25  O   UNL     1      -3.069  -0.850   1.341  0.00  0.00    -0.126 OA
ATOM     26  O   UNL     1      -3.057  -2.228   2.917  0.00  0.00    -0.126 OA
ENDBRANCH  21  24
ENDBRANCH   2  18
BRANCH   1  27
ATOM     27  C   UNL     1      -0.608  -5.717  -3.079  0.00  0.00    +0.107 C 
BRANCH  27  28
ATOM     28  C   UNL     1      -0.391  -4.220  -2.851  0.00  0.00    +0.000 C 
BRANCH  28  29
ATOM     29  C   UNL     1       1.109  -3.932  -2.749  0.00  0.00    -0.077 C 
BRANCH  29  30
ATOM     30  N   UNL     1       1.317  -2.494  -2.531  0.00  0.00    +0.380 N 
ATOM     31  H   UNL     1       0.856  -1.972  -3.261  0.00  0.00    -0.082 HD
BRANCH  30  32
ATOM     32  C   UNL     1       0.758  -2.110  -1.228  0.00  0.00    -0.079 C 
BRANCH  32  33
ATOM     33  C   UNL     1       0.850  -0.592  -1.060  0.00  0.00    -0.019 C 
BRANCH  33  35
ATOM     34  C   UNL     1       0.242   1.339   0.403  0.00  0.00    +0.004 C 
ATOM     35  C   UNL     1       0.150  -0.179   0.236  0.00  0.00    -0.005 C 
ENDBRANCH  33  35
ENDBRANCH  32  33
ENDBRANCH  30  32
BRANCH  30  36
ATOM     36  C   UNL     1       2.756  -2.199  -2.552  0.00  0.00    -0.079 C 
BRANCH  36  37
ATOM     37  C   UNL     1       3.310  -2.463  -3.954  0.00  0.00    -0.019 C 
BRANCH  37  38
ATOM     38  C   UNL     1       4.776  -2.030  -4.013  0.00  0.00    -0.005 C 
ATOM     39  C   UNL     1       5.330  -2.294  -5.414  0.00  0.00    +0.004 C 
ENDBRANCH  37  38
ENDBRANCH  36  37
ENDBRANCH  30  36
ENDBRANCH  29  30
ENDBRANCH  28  29
ENDBRANCH  27  28
ENDBRANCH   1  27
TORSDOF 12
