REMARK  Name = ZINC07800490
REMARK  7 active torsions:
REMARK  status: ('A' for Active; 'I' for Inactive)
REMARK    1  A    between atoms: C_1  and  C_2
REMARK    2  A    between atoms: C_2  and  C_4
REMARK    3  A    between atoms: C_2  and  N_41
REMARK    4  A    between atoms: C_9  and  C_10
REMARK    5  A    between atoms: C_9  and  N_41
REMARK    6  A    between atoms: N_12  and  C_13
REMARK    7  A    between atoms: C_14  and  C_21
REMARK                            x       y       z     vdW  Elec       q    Type
REMARK                         _______ _______ _______ _____ _____    ______ ____
ROOT
ATOM      1  C   UNL     1       2.151   2.543  -3.527  0.00  0.00    +0.201 C 
ATOM      2  O   UNL     1       3.180   3.154  -3.331  0.00  0.00    -0.278 OA
ATOM      3  N   UNL     1       1.423   2.098  -2.484  0.00  0.00    -0.281 N 
ATOM      4  H   UNL     1       0.599   1.609  -2.641  0.00  0.00    +0.155 HD
ENDROOT
BRANCH   3   5
ATOM      5  C   UNL     1       1.850   2.337  -1.187  0.00  0.00    +0.084 A 
ATOM      6  C   UNL     1       1.245   1.963   0.001  0.00  0.00    +0.068 A 
ATOM      7  C   UNL     1       1.905   2.349   1.247  0.00  0.00    -0.023 A 
ATOM      8  C   UNL     1       3.057   3.028   1.097  0.00  0.00    -0.004 A 
ATOM      9  S   UNL     1       3.269   3.176  -0.660  0.00  0.00    -0.077 S 
ATOM     10  C   UNL     1       3.680   3.381   2.421  0.00  0.00    +0.043 C 
ATOM     11  C   UNL     1       2.986   2.449   3.439  0.00  0.00    +0.010 C 
ATOM     12  C   UNL     1       1.638   2.172   2.743  0.00  0.00    +0.037 C 
BRANCH   6  13
ATOM     13  C   UNL     1      -0.014   1.213   0.009  0.00  0.00    +0.244 C 
ATOM     14  O   UNL     1       0.002  -0.004   0.002  0.00  0.00    -0.270 OA
ATOM     15  N   UNL     1      -1.191   1.871   0.018  0.00  0.00    -0.325 N 
ATOM     16  H   UNL     1      -2.024   1.375   0.019  0.00  0.00    +0.145 HD
ATOM     17  H   UNL     1      -1.204   2.841   0.023  0.00  0.00    +0.145 HD
ENDBRANCH   6  13
ENDBRANCH   3   5
BRANCH   1  18
ATOM     18  C   UNL     1       1.686   2.283  -4.937  0.00  0.00    +0.016 C 
BRANCH  18  19
ATOM     19  N   UNL     1       2.655   2.871  -5.881  0.00  0.00    +0.391 N 
ATOM     20  H   UNL     1       2.718   3.883  -5.716  0.00  0.00    -0.084 HD
ATOM     21  H   UNL     1       3.576   2.442  -5.733  0.00  0.00    -0.084 HD
BRANCH  19  23
ATOM     22  C   UNL     1       2.712   1.254  -7.726  0.00  0.00    -0.006 C 
ATOM     23  C   UNL     1       2.225   2.631  -7.272  0.00  0.00    -0.007 C 
BRANCH  23  24
ATOM     24  C   UNL     1       2.817   3.693  -8.162  0.00  0.00    +0.091 A 
ATOM     25  C   UNL     1       2.192   4.295  -9.190  0.00  0.00    +0.043 A 
ATOM     26  C   UNL     1       3.109   5.219  -9.742  0.00  0.00    +0.041 A 
ATOM     27  C   UNL     1       4.242   5.120  -9.024  0.00  0.00    +0.195 A 
ATOM     28  O   UNL     1       4.059   4.194  -8.069  0.00  0.00    -0.469 OA
ENDBRANCH  23  24
ENDBRANCH  19  23
ENDBRANCH  18  19
ENDBRANCH   1  18
TORSDOF 6
