REMARK  Name = ZINC36313011
REMARK  12 active torsions:
REMARK  status: ('A' for Active; 'I' for Inactive)
REMARK    1  A    between atoms: C_1  and  O_2
REMARK    2  A    between atoms: O_2  and  C_3
REMARK    3  A    between atoms: C_3  and  C_4
REMARK    4  A    between atoms: C_4  and  C_6
REMARK    5  A    between atoms: C_4  and  O_36
REMARK    6  A    between atoms: C_6  and  N_7
REMARK    7  A    between atoms: N_7  and  C_8
REMARK    8  A    between atoms: N_7  and  C_18
REMARK    9  A    between atoms: C_8  and  C_9
REMARK   10  A    between atoms: C_18  and  C_19
REMARK   11  A    between atoms: C_20  and  C_30
REMARK   12  A    between atoms: C_23  and  N_24
REMARK                            x       y       z     vdW  Elec       q    Type
REMARK                         _______ _______ _______ _____ _____    ______ ____
ROOT
ATOM      1  N   UNL     1       0.620  -3.488   2.287  0.00  0.00    +0.387 N 
ATOM      2  H   UNL     1       0.671  -2.498   2.099  0.00  0.00    -0.081 HD
ENDROOT
BRANCH   1   3
ATOM      3  C   UNL     1       1.101  -3.752   3.650  0.00  0.00    -0.044 C 
BRANCH   3   4
ATOM      4  C   UNL     1       2.482  -3.121   3.835  0.00  0.00    +0.124 C 
BRANCH   4   5
ATOM      5  O   UNL     1       3.437  -3.822   3.037  0.00  0.00    -0.391 OA
ATOM      6  H   UNL     1       3.471  -4.773   3.208  0.00  0.00    +0.210 HD
ENDBRANCH   4   5
BRANCH   4   7
ATOM      7  C   UNL     1       2.888  -3.205   5.308  0.00  0.00    +0.188 C 
BRANCH   7   9
ATOM      8  C   UNL     1       4.594  -2.532   6.851  0.00  0.00    +0.194 C 
ATOM      9  O   UNL     1       4.123  -2.514   5.502  0.00  0.00    -0.381 OA
ENDBRANCH   7   9
ENDBRANCH   4   7
ENDBRANCH   3   4
ENDBRANCH   1   3
BRANCH   1  10
ATOM     10  C   UNL     1      -0.772  -3.938   2.163  0.00  0.00    -0.042 C 
BRANCH  10  11
ATOM     11  C   UNL     1      -1.651  -3.109   3.063  0.00  0.00    -0.060 A 
ATOM     12  C   UNL     1      -1.875  -3.510   4.368  0.00  0.00    +0.005 A 
ATOM     13  C   UNL     1      -2.680  -2.752   5.198  0.00  0.00    +0.050 A 
ATOM     14  C   UNL     1      -3.265  -1.589   4.724  0.00  0.00    +0.166 A 
ATOM     15  C   UNL     1      -3.040  -1.186   3.410  0.00  0.00    +0.166 A 
ATOM     16  C   UNL     1      -2.227  -1.947   2.586  0.00  0.00    +0.051 A 
ATOM     17  O   UNL     1      -3.719  -0.023   3.188  0.00  0.00    -0.453 OA
ATOM     18  C   UNL     1      -4.688   0.065   4.250  0.00  0.00    +0.466 C 
ATOM     19  O   UNL     1      -4.085  -0.679   5.325  0.00  0.00    -0.453 OA
ENDBRANCH  10  11
ENDBRANCH   1  10
BRANCH   1  20
ATOM     20  C   UNL     1       1.458  -4.213   1.323  0.00  0.00    -0.035 C 
BRANCH  20  21
ATOM     21  C   UNL     1       1.017  -3.877  -0.079  0.00  0.00    +0.025 A 
ATOM     22  C   UNL     1       0.141  -4.641  -0.878  0.00  0.00    +0.117 A 
ATOM     23  N   UNL     1       0.002  -4.023  -2.029  0.00  0.00    -0.076 NA
ATOM     24  O   UNL     1       0.787  -2.846  -1.992  0.00  0.00    -0.339 OA
ATOM     25  C   UNL     1       1.388  -2.783  -0.791  0.00  0.00    +0.222 A 
BRANCH  25  26
ATOM     26  N   UNL     1       2.237  -1.781  -0.358  0.00  0.00    -0.299 N 
ATOM     27  C   UNL     1       3.670  -1.823  -0.681  0.00  0.00    +0.108 C 
ATOM     28  C   UNL     1       4.064  -0.501  -1.347  0.00  0.00    +0.019 C 
ATOM     29  C   UNL     1       3.657   0.664  -0.441  0.00  0.00    +0.003 C 
ATOM     30  C   UNL     1       2.139   0.655  -0.246  0.00  0.00    +0.019 C 
ATOM     31  C   UNL     1       1.722  -0.651   0.427  0.00  0.00    +0.108 C 
ENDBRANCH  25  26
BRANCH  22  32
ATOM     32  C   UNL     1      -0.508  -5.918  -0.488  0.00  0.00    +0.004 A 
ATOM     33  C   UNL     1       0.226  -6.902   0.170  0.00  0.00    +0.010 A 
ATOM     34  C   UNL     1      -0.382  -8.088   0.530  0.00  0.00    +0.001 A 
ATOM     35  C   UNL     1      -1.718  -8.299   0.239  0.00  0.00    +0.000 A 
ATOM     36  C   UNL     1      -2.451  -7.325  -0.414  0.00  0.00    +0.001 A 
ATOM     37  C   UNL     1      -1.854  -6.134  -0.774  0.00  0.00    +0.010 A 
ENDBRANCH  22  32
ENDBRANCH  20  21
ENDBRANCH   1  20
TORSDOF 11
