REMARK  Name = ZINC06740438
REMARK  9 active torsions:
REMARK  status: ('A' for Active; 'I' for Inactive)
REMARK    1  A    between atoms: C_1  and  C_2
REMARK    2  A    between atoms: C_5  and  C_8
REMARK    3  A    between atoms: C_10  and  C_27
REMARK    4  A    between atoms: C_11  and  C_26
REMARK    5  A    between atoms: C_12  and  N_14
REMARK    6  A    between atoms: C_20  and  C_22
REMARK    7  A    between atoms: C_22  and  C_23
REMARK    8  A    between atoms: C_22  and  C_24
REMARK    9  A    between atoms: C_22  and  C_25
REMARK                            x       y       z     vdW  Elec       q    Type
REMARK                         _______ _______ _______ _____ _____    ______ ____
ROOT
ATOM      1  C   UNL     1      -4.199   2.502  -3.605  0.00  0.00    +0.162 A 
ATOM      2  N   UNL     1      -4.249   3.756  -4.033  0.00  0.00    -0.232 NA
ATOM      3  C   UNL     1      -3.548   4.707  -3.436  0.00  0.00    +0.047 A 
ATOM      4  C   UNL     1      -2.760   4.384  -2.347  0.00  0.00    +0.011 A 
ATOM      5  C   UNL     1      -2.724   3.054  -1.921  0.00  0.00    +0.128 A 
ATOM      6  N   UNL     1      -3.453   2.150  -2.568  0.00  0.00    -0.212 NA
ATOM      7  C   UNL     1      -1.954   5.442  -1.639  0.00  0.00    +0.049 C 
ATOM      8  C   UNL     1      -3.614   6.128  -3.933  0.00  0.00    +0.066 C 
ENDROOT
BRANCH   5   9
ATOM      9  N   UNL     1      -1.944   2.683  -0.838  0.00  0.00    -0.312 N 
ATOM     10  C   UNL     1      -1.347   1.358  -1.047  0.00  0.00    +0.125 C 
ATOM     11  C   UNL     1      -0.355   1.064   0.083  0.00  0.00    +0.126 C 
ATOM     12  N   UNL     1      -1.042   1.240   1.371  0.00  0.00    -0.298 N 
ATOM     13  C   UNL     1      -1.785   2.490   1.599  0.00  0.00    +0.126 C 
ATOM     14  C   UNL     1      -2.721   2.727   0.409  0.00  0.00    +0.125 C 
ATOM     15  C   UNL     1      -0.998   0.279   2.316  0.00  0.00    +0.221 C 
ATOM     16  O   UNL     1      -0.307  -0.704   2.150  0.00  0.00    -0.275 OA
BRANCH  15  17
ATOM     17  C   UNL     1      -1.806   0.427   3.580  0.00  0.00    +0.039 C 
ATOM     18  C   UNL     1      -1.584  -0.795   4.473  0.00  0.00    +0.020 C 
ATOM     19  C   UNL     1      -1.363   1.689   4.323  0.00  0.00    +0.020 C 
ATOM     20  C   UNL     1      -3.290   0.537   3.225  0.00  0.00    +0.020 C 
ENDBRANCH  15  17
ENDBRANCH   5   9
BRANCH   1  25
ATOM     21  C   UNL     1      -7.307  -1.516  -6.318  0.00  0.00    +0.044 C 
ATOM     22  C   UNL     1      -6.494  -0.465  -5.608  0.00  0.00    -0.050 A 
ATOM     23  C   UNL     1      -6.535   0.848  -6.042  0.00  0.00    +0.004 A 
ATOM     24  C   UNL     1      -5.792   1.815  -5.396  0.00  0.00    +0.012 A 
ATOM     25  C   UNL     1      -5.000   1.467  -4.303  0.00  0.00    +0.019 A 
ATOM     26  C   UNL     1      -4.958   0.142  -3.873  0.00  0.00    +0.012 A 
ATOM     27  C   UNL     1      -5.709  -0.816  -4.524  0.00  0.00    +0.004 A 
ENDBRANCH   1  25
TORSDOF 3
