REMARK  Name = ZINC00970720
REMARK  15 active torsions:
REMARK  status: ('A' for Active; 'I' for Inactive)
REMARK    1  A    between atoms: C_1  and  C_2
REMARK    2  A    between atoms: C_2  and  C_3
REMARK    3  A    between atoms: C_3  and  C_5
REMARK    4  A    between atoms: C_3  and  O_6
REMARK    5  A    between atoms: O_6  and  C_7
REMARK    6  A    between atoms: C_7  and  C_9
REMARK    7  A    between atoms: C_10  and  C_40
REMARK    8  A    between atoms: C_14  and  C_16
REMARK    9  A    between atoms: C_19  and  O_24
REMARK   10  A    between atoms: C_21  and  O_22
REMARK   11  A    between atoms: O_22  and  C_23
REMARK   12  A    between atoms: O_24  and  C_25
REMARK   13  A    between atoms: C_29  and  C_32
REMARK   14  A    between atoms: C_35  and  O_38
REMARK   15  A    between atoms: O_38  and  C_39
REMARK                            x       y       z     vdW  Elec       q    Type
REMARK                         _______ _______ _______ _____ _____    ______ ____
ROOT
ATOM      1  C   UNL     1      -0.103   5.089  -1.217  0.00  0.00    +0.065 C 
ATOM      2  C   UNL     1       0.174   6.404  -1.184  0.00  0.00    +0.016 C 
ATOM      3  N   UNL     1       0.520   7.010  -0.008  0.00  0.00    -0.321 N 
ATOM      4  C   UNL     1       0.218   6.426   1.193  0.00  0.00    +0.016 C 
ATOM      5  C   UNL     1      -0.064   5.108   1.263  0.00  0.00    +0.024 C 
ATOM      6  C   UNL     1      -0.035   4.248   0.024  0.00  0.00    +0.096 C 
ATOM      7  C   UNL     1      -0.392   4.500   2.487  0.00  0.00    +0.162 C 
ATOM      8  O   UNL     1      -0.630   3.309   2.516  0.00  0.00    -0.292 OA
ATOM      9  C   UNL     1      -0.453   5.297   3.761  0.00  0.00    +0.088 C 
ATOM     10  C   UNL     1      -0.822   6.746   3.426  0.00  0.00    +0.032 C 
ATOM     11  C   UNL     1       0.204   7.290   2.430  0.00  0.00    +0.059 C 
ATOM     12  C   UNL     1       0.104   7.216  -2.451  0.00  0.00    +0.061 C 
ATOM     13  H   UNL     1       1.046   7.976  -0.021  0.00  0.00    +0.152 HD
ENDROOT
BRANCH   6  14
ATOM     14  C   UNL     1       1.240   3.445   0.009  0.00  0.00    +0.007 A 
ATOM     15  C   UNL     1       2.462   4.089   0.001  0.00  0.00    +0.012 A 
ATOM     16  C   UNL     1       3.632   3.356  -0.013  0.00  0.00    +0.046 A 
ATOM     17  C   UNL     1       3.583   1.968  -0.020  0.00  0.00    +0.124 A 
ATOM     18  C   UNL     1       2.358   1.319  -0.008  0.00  0.00    +0.091 A 
ATOM     19  C   UNL     1       1.185   2.058   0.002  0.00  0.00    +0.128 A 
BRANCH  19  20
ATOM     20  O   UNL     1      -0.017   1.425   0.010  0.00  0.00    -0.495 OA
ATOM     21  C   UNL     1       0.002  -0.004   0.002  0.00  0.00    +0.277 C 
ENDBRANCH  19  20
BRANCH  17  22
ATOM     22  O   UNL     1       4.735   1.247  -0.034  0.00  0.00    -0.495 OA
ATOM     23  C   UNL     1       5.960   1.982  -0.040  0.00  0.00    +0.277 C 
ENDBRANCH  17  22
ENDBRANCH   6  14
BRANCH  10  24
ATOM     24  C   UNL     1      -0.800   7.578   4.682  0.00  0.00    -0.043 A 
ATOM     25  C   UNL     1       0.362   7.672   5.427  0.00  0.00    +0.007 A 
ATOM     26  C   UNL     1       0.386   8.439   6.576  0.00  0.00    +0.046 A 
ATOM     27  C   UNL     1      -0.758   9.105   6.988  0.00  0.00    +0.120 A 
ATOM     28  C   UNL     1      -1.924   9.004   6.243  0.00  0.00    +0.046 A 
ATOM     29  C   UNL     1      -1.942   8.241   5.091  0.00  0.00    +0.007 A 
BRANCH  27  30
ATOM     30  O   UNL     1      -0.738   9.854   8.122  0.00  0.00    -0.495 OA
ATOM     31  C   UNL     1       0.496   9.913   8.839  0.00  0.00    +0.277 C 
ENDBRANCH  27  30
ENDBRANCH  10  24
BRANCH   1  32
ATOM     32  C   UNL     1      -0.465   4.487  -2.444  0.00  0.00    +0.338 C 
ATOM     33  O   UNL     1      -0.523   5.158  -3.458  0.00  0.00    -0.245 OA
BRANCH  32  34
ATOM     34  O   UNL     1      -0.745   3.168  -2.492  0.00  0.00    -0.458 OA
BRANCH  34  35
ATOM     35  C   UNL     1      -1.103   2.626  -3.765  0.00  0.00    +0.173 C 
ATOM     36  C   UNL     1       0.157   2.147  -4.488  0.00  0.00    +0.052 C 
BRANCH  35  38
ATOM     37  C   UNL     1      -3.368   1.947  -2.957  0.00  0.00    +0.007 C 
ATOM     38  C   UNL     1      -2.058   1.447  -3.567  0.00  0.00    +0.041 C 
ENDBRANCH  35  38
ENDBRANCH  34  35
ENDBRANCH  32  34
ENDBRANCH   1  32
TORSDOF 9
