REMARK  Name = ZINC17138406
REMARK  4 active torsions:
REMARK  status: ('A' for Active; 'I' for Inactive)
REMARK    1  A    between atoms: C_4  and  N_7
REMARK    2  A    between atoms: N_11  and  C_12
REMARK    3  A    between atoms: C_12  and  C_14
REMARK    4  A    between atoms: C_15  and  C_16
REMARK                            x       y       z     vdW  Elec       q    Type
REMARK                         _______ _______ _______ _____ _____    ______ ____
ROOT
ATOM      1  N   UNL     1      -5.730   2.097   0.309  0.00  0.00    -0.222 N 
ATOM      2  C   UNL     1      -5.175   3.335   0.145  0.00  0.00    +0.216 A 
ATOM      3  N   UNL     1      -3.895   3.192  -0.153  0.00  0.00    -0.180 NA
ATOM      4  C   UNL     1      -3.577   1.897  -0.203  0.00  0.00    +0.238 A 
ATOM      5  N   UNL     1      -2.372   1.400  -0.481  0.00  0.00    -0.140 NA
ATOM      6  N   UNL     1      -4.702   1.165   0.086  0.00  0.00    -0.260 N 
ATOM      7  H   UNL     1      -4.774   0.199   0.127  0.00  0.00    +0.190 HD
ATOM      8  N   UNL     1      -5.832   4.523   0.273  0.00  0.00    -0.327 N 
ATOM      9  H   UNL     1      -6.796   4.535   0.377  0.00  0.00    +0.145 HD
ATOM     10  H   UNL     1      -5.335   5.356   0.261  0.00  0.00    +0.145 HD
ENDROOT
BRANCH   1  14
ATOM     11  C   UNL     1      -9.691   1.253   1.283  0.00  0.00    +0.000 A 
ATOM     12  C   UNL     1      -8.966   0.364   0.509  0.00  0.00    +0.002 A 
ATOM     13  C   UNL     1      -7.653   0.642   0.185  0.00  0.00    +0.028 A 
ATOM     14  C   UNL     1      -7.060   1.814   0.636  0.00  0.00    +0.067 A 
ATOM     15  C   UNL     1      -7.789   2.701   1.416  0.00  0.00    +0.028 A 
ATOM     16  C   UNL     1      -9.104   2.421   1.733  0.00  0.00    +0.002 A 
ENDBRANCH   1  14
BRANCH   5  17
ATOM     17  C   UNL     1      -1.354   2.223  -0.746  0.00  0.00    +0.263 C 
ATOM     18  O   UNL     1      -1.527   3.429  -0.735  0.00  0.00    -0.269 OA
BRANCH  17  19
ATOM     19  C   UNL     1      -0.017   1.671  -1.054  0.00  0.00    +0.076 C 
ATOM     20  C   UNL     1       1.004   2.499  -1.326  0.00  0.00    +0.101 C 
BRANCH  20  21
ATOM     21  C   UNL     1       2.335   1.948  -1.638  0.00  0.00    +0.380 C 
ATOM     22  O   UNL     1       2.507   0.746  -1.650  0.00  0.00    -0.241 OA
ATOM     23  O   UNL     1       3.360   2.779  -1.911  0.00  0.00    -0.241 OA
ENDBRANCH  20  21
ENDBRANCH  17  19
ENDBRANCH   5  17
TORSDOF 4
