REMARK  Name = ZINC66199602
REMARK  13 active torsions:
REMARK  status: ('A' for Active; 'I' for Inactive)
REMARK    1  A    between atoms: C_1  and  C_2
REMARK    2  A    between atoms: C_3  and  C_29
REMARK    3  A    between atoms: C_5  and  N_10
REMARK    4  A    between atoms: C_6  and  C_7
REMARK    5  A    between atoms: N_10  and  C_11
REMARK    6  A    between atoms: C_11  and  N_13
REMARK    7  A    between atoms: C_14  and  C_16
REMARK    8  A    between atoms: C_16  and  C_18
REMARK    9  A    between atoms: C_16  and  C_19
REMARK   10  A    between atoms: C_22  and  C_25
REMARK   11  A    between atoms: C_25  and  C_26
REMARK   12  A    between atoms: C_26  and  C_27
REMARK   13  A    between atoms: C_26  and  C_28
REMARK                            x       y       z     vdW  Elec       q    Type
REMARK                         _______ _______ _______ _____ _____    ______ ____
ROOT
ATOM      1  C   UNL     1       0.071  -4.426   1.760  0.00  0.00    +0.141 C 
ATOM      2  S   UNL     1       0.071  -4.904   0.116  0.00  0.00    -0.018 S 
ENDROOT
BRANCH   1   3
ATOM      3  N   UNL     1       0.089  -5.358   2.733  0.00  0.00    -0.267 N 
ATOM      4  C   UNL     1       0.105  -6.667   2.412  0.00  0.00    +0.226 C 
ATOM      5  O   UNL     1       0.105  -7.006   1.248  0.00  0.00    -0.275 OA
ATOM      6  H   UNL     1       0.089  -5.087   3.665  0.00  0.00    +0.157 HD
BRANCH   4   7
ATOM      7  C   UNL     1       0.125  -7.710   3.500  0.00  0.00    +0.102 C 
ATOM      8  C   UNL     1       1.375  -7.524   4.362  0.00  0.00    +0.022 C 
BRANCH   7   9
ATOM      9  C   UNL     1       0.141  -9.083   2.880  0.00  0.00    -0.036 A 
ATOM     10  C   UNL     1       1.182  -9.454   2.050  0.00  0.00    +0.004 A 
ATOM     11  C   UNL     1       1.198 -10.714   1.481  0.00  0.00    +0.004 A 
ATOM     12  C   UNL     1       0.172 -11.602   1.742  0.00  0.00    -0.047 A 
ATOM     13  C   UNL     1      -0.869 -11.232   2.573  0.00  0.00    +0.004 A 
ATOM     14  C   UNL     1      -0.882  -9.974   3.145  0.00  0.00    +0.004 A 
BRANCH  12  15
ATOM     15  C   UNL     1       0.187 -12.975   1.121  0.00  0.00    +0.038 C 
BRANCH  15  16
ATOM     16  C   UNL     1       0.921 -13.946   2.048  0.00  0.00    -0.013 C 
ATOM     17  C   UNL     1       0.134 -14.101   3.351  0.00  0.00    +0.007 C 
ATOM     18  C   UNL     1       1.047 -15.309   1.364  0.00  0.00    +0.007 C 
ENDBRANCH  15  16
ENDBRANCH  12  15
ENDBRANCH   7   9
ENDBRANCH   4   7
ENDBRANCH   1   3
BRANCH   1  19
ATOM     19  N   UNL     1       0.055  -3.117   2.081  0.00  0.00    -0.291 N 
ATOM     20  H   UNL     1       0.055  -2.846   3.013  0.00  0.00    +0.154 HD
BRANCH  19  25
ATOM     21  C   UNL     1      -0.018   1.503   0.010  0.00  0.00    +0.045 C 
ATOM     22  C   UNL     1       0.002  -0.004   0.002  0.00  0.00    -0.027 A 
ATOM     23  C   UNL     1       0.007  -0.712  -1.142  0.00  0.00    -0.008 A 
ATOM     24  S   UNL     1       0.033  -2.400  -0.579  0.00  0.00    -0.078 S 
ATOM     25  C   UNL     1       0.037  -2.158   1.081  0.00  0.00    +0.084 A 
ATOM     26  C   UNL     1       0.024  -0.778   1.222  0.00  0.00    +0.068 A 
ATOM     27  C   UNL     1      -0.008  -0.200  -2.559  0.00  0.00    +0.052 C 
BRANCH  26  28
ATOM     28  C   UNL     1       0.027  -0.138   2.541  0.00  0.00    +0.244 C 
ATOM     29  O   UNL     1      -1.025   0.113   3.098  0.00  0.00    -0.270 OA
ATOM     30  N   UNL     1       1.196   0.172   3.137  0.00  0.00    -0.325 N 
ATOM     31  H   UNL     1       2.035  -0.028   2.692  0.00  0.00    +0.145 HD
ATOM     32  H   UNL     1       1.198   0.596   4.009  0.00  0.00    +0.145 HD
ENDBRANCH  26  28
ENDBRANCH  19  25
ENDBRANCH   1  19
TORSDOF 8
