REMARK  Name = ZINC16009795
REMARK  5 active torsions:
REMARK  status: ('A' for Active; 'I' for Inactive)
REMARK    1  A    between atoms: C_1  and  C_2
REMARK    2  A    between atoms: C_16  and  C_19
REMARK    3  A    between atoms: C_19  and  C_20
REMARK    4  A    between atoms: N_25  and  C_28
REMARK    5  A    between atoms: C_28  and  C_29
REMARK                            x       y       z     vdW  Elec       q    Type
REMARK                         _______ _______ _______ _____ _____    ______ ____
ROOT
ATOM      1  C   UNL     1       0.126   1.574   0.178  0.00  0.00    +0.046 C 
ATOM      2  C   UNL     1       0.112   0.068   0.123  0.00  0.00    -0.028 A 
ATOM      3  C   UNL     1       0.110  -0.576  -1.097  0.00  0.00    +0.025 A 
ATOM      4  C   UNL     1       0.098  -1.958  -1.158  0.00  0.00    +0.042 A 
ATOM      5  C   UNL     1       0.087  -2.699   0.012  0.00  0.00    +0.027 A 
ATOM      6  C   UNL     1       0.089  -2.060   1.232  0.00  0.00    +0.005 A 
ATOM      7  C   UNL     1       0.106  -0.670   1.304  0.00  0.00    +0.042 A 
ATOM      8  N   UNL     1       0.111  -0.256   2.639  0.00  0.00    -0.283 N 
ATOM      9  C   UNL     1       0.103  -1.297   3.493  0.00  0.00    +0.243 C 
ATOM     10  O   UNL     1       0.104  -1.240   4.705  0.00  0.00    -0.273 OA
ATOM     11  C   UNL     1       0.080  -2.545   2.653  0.00  0.00    +0.136 C 
ATOM     12  C   UNL     1       1.293  -3.432   2.955  0.00  0.00    +0.122 C 
ATOM     13  C   UNL     1       0.757  -4.886   2.836  0.00  0.00    +0.107 C 
ATOM     14  C   UNL     1      -0.733  -4.728   2.465  0.00  0.00    +0.076 C 
ATOM     15  N   UNL     1      -1.107  -3.374   2.934  0.00  0.00    -0.295 NA
ATOM     16  C   UNL     1       1.521  -5.443   1.656  0.00  0.00    +0.227 C 
ATOM     17  O   UNL     1       1.408  -6.567   1.217  0.00  0.00    -0.275 OA
ATOM     18  N   UNL     1       2.340  -4.503   1.172  0.00  0.00    -0.237 N 
ATOM     19  C   UNL     1       2.299  -3.323   1.831  0.00  0.00    +0.229 C 
ATOM     20  O   UNL     1       2.954  -2.336   1.571  0.00  0.00    -0.275 OA
ATOM     21 CL   UNL     1       0.096  -2.762  -2.697  0.00  0.00    -0.084 Cl
ATOM     22  H   UNL     1       0.120   0.673   2.917  0.00  0.00    +0.155 HD
ATOM     23  H   UNL     1      -1.313  -3.389   3.922  0.00  0.00    +0.124 HD
ENDROOT
BRANCH  14  24
ATOM     24  C   UNL     1      -1.572  -5.803   3.159  0.00  0.00    +0.115 C 
BRANCH  24  25
ATOM     25  C   UNL     1      -3.000  -5.707   2.688  0.00  0.00    +0.212 C 
ATOM     26  O   UNL     1      -3.316  -4.862   1.877  0.00  0.00    -0.276 OA
ATOM     27  N   UNL     1      -3.926  -6.560   3.168  0.00  0.00    -0.329 N 
ATOM     28  H   UNL     1      -3.674  -7.236   3.816  0.00  0.00    +0.145 HD
ATOM     29  H   UNL     1      -4.846  -6.499   2.865  0.00  0.00    +0.145 HD
ENDBRANCH  24  25
ENDBRANCH  14  24
BRANCH  18  30
ATOM     30  C   UNL     1       3.219  -4.733   0.022  0.00  0.00    +0.153 C 
BRANCH  30  31
ATOM     31  C   UNL     1       4.599  -5.093   0.509  0.00  0.00    -0.011 A 
ATOM     32  C   UNL     1       5.568  -4.114   0.625  0.00  0.00    +0.006 A 
ATOM     33  C   UNL     1       6.834  -4.443   1.071  0.00  0.00    +0.000 A 
ATOM     34  C   UNL     1       7.132  -5.752   1.402  0.00  0.00    +0.001 A 
ATOM     35  C   UNL     1       6.164  -6.732   1.286  0.00  0.00    +0.020 A 
ATOM     36  C   UNL     1       4.895  -6.401   0.845  0.00  0.00    +0.046 A 
ATOM     37 CL   UNL     1       3.676  -7.630   0.705  0.00  0.00    -0.083 Cl
ENDBRANCH  30  31
ENDBRANCH  18  30
TORSDOF 4
