REMARK  Name = ZINC59791390
REMARK  10 active torsions:
REMARK  status: ('A' for Active; 'I' for Inactive)
REMARK    1  A    between atoms: C_1  and  C_2
REMARK    2  A    between atoms: C_2  and  S_3
REMARK    3  A    between atoms: S_3  and  C_4
REMARK    4  A    between atoms: C_9  and  N_10
REMARK    5  A    between atoms: C_11  and  C_13
REMARK    6  A    between atoms: C_13  and  S_14
REMARK    7  A    between atoms: S_14  and  C_15
REMARK    8  A    between atoms: C_18  and  C_26
REMARK    9  A    between atoms: N_19  and  C_20
REMARK   10  A    between atoms: C_29  and  N_32
REMARK                            x       y       z     vdW  Elec       q    Type
REMARK                         _______ _______ _______ _____ _____    ______ ____
ROOT
ATOM      1  C   UNL     1       4.965  -3.067  -7.789  0.00  0.00    +0.197 A 
ATOM      2  N   UNL     1       5.026  -1.759  -7.905  0.00  0.00    -0.122 NA
ATOM      3  N   UNL     1       5.724  -1.439  -8.935  0.00  0.00    -0.128 NA
ATOM      4  C   UNL     1       6.153  -2.521  -9.542  0.00  0.00    +0.169 A 
ATOM      5  N   UNL     1       5.685  -3.599  -8.823  0.00  0.00    -0.270 N 
ENDROOT
BRANCH   5   6
ATOM      6  C   UNL     1       5.899  -4.957  -9.096  0.00  0.00    +0.051 A 
ATOM      7  C   UNL     1       7.179  -5.490  -9.017  0.00  0.00    +0.026 A 
ATOM      8  C   UNL     1       7.386  -6.828  -9.286  0.00  0.00    +0.002 A 
ATOM      9  C   UNL     1       6.321  -7.638  -9.635  0.00  0.00    +0.000 A 
ATOM     10  C   UNL     1       5.045  -7.111  -9.715  0.00  0.00    +0.002 A 
ATOM     11  C   UNL     1       4.831  -5.774  -9.441  0.00  0.00    +0.026 A 
ENDBRANCH   5   6
BRANCH   4  12
ATOM     12  C   UNL     1       6.985  -2.573 -10.762  0.00  0.00    +0.020 A 
ATOM     13  C   UNL     1       7.105  -3.765 -11.479  0.00  0.00    +0.014 A 
ATOM     14  C   UNL     1       7.884  -3.806 -12.617  0.00  0.00    +0.033 A 
ATOM     15  C   UNL     1       8.545  -2.670 -13.048  0.00  0.00    +0.126 A 
ATOM     16  C   UNL     1       8.431  -1.486 -12.342  0.00  0.00    +0.033 A 
ATOM     17  C   UNL     1       7.651  -1.429 -11.206  0.00  0.00    +0.014 A 
BRANCH  15  18
ATOM     18  N   UNL     1       9.379  -2.722 -14.271  0.00  0.00    +0.056 N 
ATOM     19  O   UNL     1       9.481  -3.756 -14.889  0.00  0.00    -0.126 OA
ATOM     20  O   UNL     1       9.958  -1.731 -14.650  0.00  0.00    -0.126 OA
ENDBRANCH  15  18
ENDBRANCH   4  12
BRANCH   1  21
ATOM     21  S   UNL     1       4.120  -3.967  -6.531  0.00  0.00    -0.076 S 
BRANCH  21  22
ATOM     22  C   UNL     1       3.381  -2.678  -5.491  0.00  0.00    +0.173 C 
BRANCH  22  24
ATOM     23  N   UNL     1       1.982  -2.551  -3.455  0.00  0.00    -0.284 N 
ATOM     24  C   UNL     1       2.618  -3.320  -4.361  0.00  0.00    +0.228 C 
ATOM     25  O   UNL     1       2.577  -4.529  -4.266  0.00  0.00    -0.275 OA
ATOM     26  H   UNL     1       1.946  -1.589  -3.574  0.00  0.00    +0.155 HD
BRANCH  23  32
ATOM     27  C   UNL     1       0.317  -2.495  -1.695  0.00  0.00    +0.029 A 
ATOM     28  C   UNL     1      -0.287  -3.088  -0.595  0.00  0.00    +0.016 A 
ATOM     29  C   UNL     1       0.160  -4.314  -0.140  0.00  0.00    +0.001 A 
ATOM     30  C   UNL     1       1.208  -4.953  -0.776  0.00  0.00    +0.002 A 
ATOM     31  C   UNL     1       1.816  -4.369  -1.873  0.00  0.00    +0.024 A 
ATOM     32  C   UNL     1       1.371  -3.142  -2.341  0.00  0.00    +0.047 A 
BRANCH  27  33
ATOM     33  S   UNL     1      -0.251  -0.932  -2.279  0.00  0.00    -0.124 S 
BRANCH  33  35
ATOM     34  C   UNL     1      -2.191   0.850  -1.544  0.00  0.00    +0.015 C 
ATOM     35  C   UNL     1      -1.600  -0.504  -1.145  0.00  0.00    +0.071 C 
ENDBRANCH  33  35
ENDBRANCH  27  33
ENDBRANCH  23  32
ENDBRANCH  22  24
ENDBRANCH  21  22
ENDBRANCH   1  21
TORSDOF 9
