REMARK  Name = ZINC10814998
REMARK  10 active torsions:
REMARK  status: ('A' for Active; 'I' for Inactive)
REMARK    1  A    between atoms: C_1  and  C_2
REMARK    2  A    between atoms: C_2  and  N_54
REMARK    3  A    between atoms: C_3  and  C_4
REMARK    4  A    between atoms: C_3  and  N_54
REMARK    5  A    between atoms: C_5  and  C_6
REMARK    6  A    between atoms: C_5  and  N_54
REMARK    7  A    between atoms: C_6  and  N_7
REMARK    8  A    between atoms: C_16  and  S_17
REMARK    9  A    between atoms: S_17  and  C_20
REMARK   10  A    between atoms: C_21  and  C_23
REMARK                            x       y       z     vdW  Elec       q    Type
REMARK                         _______ _______ _______ _____ _____    ______ ____
ROOT
ATOM      1  N   UNL     1      -1.482  -2.414   0.177  0.00  0.00    -0.248 N 
ATOM      2  C   UNL     1      -2.586  -3.182   0.505  0.00  0.00    +0.168 A 
ATOM      3  N   UNL     1      -3.832  -2.803   0.669  0.00  0.00    -0.222 NA
ATOM      4  C   UNL     1      -4.818  -3.669   0.991  0.00  0.00    +0.105 A 
ATOM      5  C   UNL     1      -4.422  -5.018   1.142  0.00  0.00    +0.043 A 
ATOM      6  S   UNL     1      -2.679  -4.941   0.804  0.00  0.00    -0.052 S 
ATOM      7  C   UNL     1      -5.305  -6.016   1.467  0.00  0.00    +0.017 A 
ATOM      8  C   UNL     1      -6.641  -5.711   1.659  0.00  0.00    +0.003 A 
ATOM      9  C   UNL     1      -7.064  -4.398   1.520  0.00  0.00    +0.029 A 
ATOM     10  C   UNL     1      -6.189  -3.394   1.195  0.00  0.00    +0.114 A 
ATOM     11  C   UNL     1      -1.617  -1.087  -0.017  0.00  0.00    +0.253 C 
ATOM     12  O   UNL     1      -2.679  -0.544   0.217  0.00  0.00    -0.270 OA
ENDROOT
BRANCH  11  13
ATOM     13  C   UNL     1      -0.474  -0.293  -0.514  0.00  0.00    +0.051 A 
ATOM     14  C   UNL     1       0.828  -0.626  -0.137  0.00  0.00    +0.014 A 
ATOM     15  C   UNL     1       1.890   0.118  -0.605  0.00  0.00    +0.001 A 
ATOM     16  C   UNL     1       1.668   1.194  -1.447  0.00  0.00    +0.001 A 
ATOM     17  C   UNL     1       0.381   1.531  -1.825  0.00  0.00    +0.016 A 
ATOM     18  C   UNL     1      -0.692   0.794  -1.364  0.00  0.00    +0.030 A 
ATOM     19 BR   UNL     1      -2.450   1.250  -1.888  0.00  0.00    -0.050 Br
ENDBRANCH  11  13
BRANCH  10  20
ATOM     20  S   UNL     1      -6.781  -1.742   1.031  0.00  0.00    -0.004 S 
ATOM     21  O   UNL     1      -6.291  -1.306  -0.230  0.00  0.00    -0.170 OA
ATOM     22  O   UNL     1      -8.178  -1.832   1.274  0.00  0.00    -0.170 OA
ATOM     23  C   UNL     1      -5.972  -0.822   2.368  0.00  0.00    +0.200 C 
ENDBRANCH  10  20
BRANCH   1  24
ATOM     24  C   UNL     1      -0.166  -3.044   0.042  0.00  0.00    +0.097 C 
BRANCH  24  25
ATOM     25  C   UNL     1       0.358  -3.434   1.426  0.00  0.00    -0.059 C 
BRANCH  25  26
ATOM     26  N   UNL     1       1.609  -4.203   1.260  0.00  0.00    +0.380 N 
ATOM     27  H   UNL     1       1.486  -4.879   0.496  0.00  0.00    -0.082 HD
BRANCH  26  29
ATOM     28  C   UNL     1       2.974  -2.303   2.059  0.00  0.00    -0.017 C 
ATOM     29  C   UNL     1       2.721  -3.291   0.919  0.00  0.00    -0.082 C 
ENDBRANCH  26  29
BRANCH  26  30
ATOM     30  C   UNL     1       1.920  -4.936   2.505  0.00  0.00    -0.082 C 
ATOM     31  C   UNL     1       3.137  -5.831   2.261  0.00  0.00    -0.017 C 
ENDBRANCH  26  30
ENDBRANCH  25  26
ENDBRANCH  24  25
ENDBRANCH   1  24
TORSDOF 7
