REMARK  Name = ZINC52094390
REMARK  5 active torsions:
REMARK  status: ('A' for Active; 'I' for Inactive)
REMARK    1  A    between atoms: C_1  and  O_2
REMARK    2  A    between atoms: O_2  and  C_3
REMARK    3  A    between atoms: C_8  and  C_9
REMARK    4  A    between atoms: C_9  and  C_11
REMARK    5  A    between atoms: C_9  and  N_24
REMARK                            x       y       z     vdW  Elec       q    Type
REMARK                         _______ _______ _______ _____ _____    ______ ____
ROOT
ATOM      1  C   UNL     1       0.051  -2.828  -0.033  0.00  0.00    -0.009 C 
ENDROOT
BRANCH   1   2
ATOM      2  C   UNL     1       1.045  -2.991   1.088  0.00  0.00    -0.041 A 
ATOM      3  C   UNL     1       1.927  -4.054   1.075  0.00  0.00    +0.031 A 
ATOM      4  C   UNL     1       2.842  -4.204   2.106  0.00  0.00    +0.067 A 
ATOM      5  C   UNL     1       2.867  -3.281   3.154  0.00  0.00    +0.068 A 
ATOM      6  C   UNL     1       1.978  -2.217   3.158  0.00  0.00    +0.043 A 
ATOM      7  C   UNL     1       1.074  -2.072   2.123  0.00  0.00    +0.022 A 
ATOM      8 BR   UNL     1      -0.134  -0.617   2.124  0.00  0.00    -0.050 Br
ATOM      9  N   UNL     1       3.875  -3.688   4.025  0.00  0.00    -0.306 N 
ATOM     10  H   UNL     1       4.129  -3.241   4.847  0.00  0.00    +0.170 HD
ATOM     11  C   UNL     1       4.437  -4.807   3.530  0.00  0.00    +0.325 A 
ATOM     12  O   UNL     1       5.349  -5.422   4.050  0.00  0.00    -0.247 OA
ATOM     13  N   UNL     1       3.835  -5.144   2.374  0.00  0.00    -0.306 N 
ATOM     14  H   UNL     1       4.055  -5.910   1.821  0.00  0.00    +0.170 HD
ENDBRANCH   1   2
BRANCH   1  20
ATOM     15  C   UNL     1      -0.221  -1.322  -2.019  0.00  0.00    +0.122 A 
ATOM     16  C   UNL     1       0.301  -0.460  -2.973  0.00  0.00    +0.046 A 
ATOM     17  C   UNL     1       1.654  -0.181  -2.983  0.00  0.00    +0.004 A 
ATOM     18  C   UNL     1       2.487  -0.760  -2.043  0.00  0.00    +0.000 A 
ATOM     19  C   UNL     1       1.969  -1.619  -1.092  0.00  0.00    +0.006 A 
ATOM     20  C   UNL     1       0.616  -1.897  -1.074  0.00  0.00    -0.016 A 
BRANCH  15  22
ATOM     21  C   UNL     1      -2.354  -0.970  -3.010  0.00  0.00    +0.277 C 
ATOM     22  O   UNL     1      -1.552  -1.597  -2.007  0.00  0.00    -0.495 OA
ENDBRANCH  15  22
ENDBRANCH   1  20
BRANCH   1  23
ATOM     23  N   UNL     1      -0.219  -4.137  -0.642  0.00  0.00    +0.385 N 
ATOM     24  H   UNL     1      -0.885  -4.028  -1.393  0.00  0.00    -0.089 HD
ATOM     25  H   UNL     1       0.639  -4.522  -1.008  0.00  0.00    -0.089 HD
ATOM     26  H   UNL     1      -0.598  -4.761   0.055  0.00  0.00    -0.089 HD
ENDBRANCH   1  23
TORSDOF 4
