REMARK  Name = ZINC20591809
REMARK  10 active torsions:
REMARK  status: ('A' for Active; 'I' for Inactive)
REMARK    1  A    between atoms: C_1  and  C_2
REMARK    2  A    between atoms: C_2  and  C_3
REMARK    3  A    between atoms: C_12  and  O_26
REMARK    4  A    between atoms: C_13  and  C_14
REMARK    5  A    between atoms: C_14  and  N_15
REMARK    6  A    between atoms: N_15  and  C_16
REMARK    7  A    between atoms: C_18  and  C_24
REMARK    8  A    between atoms: C_18  and  C_25
REMARK    9  A    between atoms: C_20  and  C_22
REMARK   10  A    between atoms: C_20  and  C_23
REMARK                            x       y       z     vdW  Elec       q    Type
REMARK                         _______ _______ _______ _____ _____    ______ ____
ROOT
ATOM      1  C   UNL     1      -2.065  -0.279   0.181  0.00  0.00    -0.030 A 
ATOM      2  C   UNL     1      -2.611  -0.664  -1.002  0.00  0.00    +0.096 A 
ATOM      3  C   UNL     1      -3.892  -1.253  -1.025  0.00  0.00    +0.337 A 
ATOM      4  O   UNL     1      -4.369  -1.594  -2.092  0.00  0.00    -0.245 OA
ATOM      5  O   UNL     1      -4.598  -1.449   0.100  0.00  0.00    -0.422 OA
ATOM      6  C   UNL     1      -4.114  -1.090   1.308  0.00  0.00    +0.147 A 
ATOM      7  C   UNL     1      -2.839  -0.501   1.405  0.00  0.00    +0.021 A 
ATOM      8  C   UNL     1      -2.331  -0.131   2.655  0.00  0.00    +0.015 A 
ATOM      9  C   UNL     1      -3.074  -0.349   3.780  0.00  0.00    +0.046 A 
ATOM     10  C   UNL     1      -4.334  -0.936   3.691  0.00  0.00    +0.125 A 
ATOM     11  C   UNL     1      -4.856  -1.298   2.460  0.00  0.00    +0.051 A 
ENDROOT
BRANCH   1  13
ATOM     12  C   UNL     1      -0.841   1.877   0.235  0.00  0.00    +0.009 C 
ATOM     13  C   UNL     1      -0.698   0.353   0.234  0.00  0.00    +0.033 C 
ENDBRANCH   1  13
BRANCH  10  14
ATOM     14  O   UNL     1      -5.060  -1.146   4.818  0.00  0.00    -0.506 OA
ATOM     15  H   UNL     1      -5.636  -0.408   5.058  0.00  0.00    +0.292 HD
ENDBRANCH  10  14
BRANCH  11  16
ATOM     16  C   UNL     1      -6.221  -1.933   2.375  0.00  0.00    +0.124 C 
BRANCH  16  17
ATOM     17  N   UNL     1      -6.090  -3.392   2.490  0.00  0.00    -0.309 NA
ATOM     18  H   UNL     1      -5.463  -3.755   1.788  0.00  0.00    +0.123 HD
BRANCH  17  19
ATOM     19  C   UNL     1      -7.407  -4.047   2.411  0.00  0.00    +0.051 C 
ATOM     20  C   UNL     1      -7.756  -4.298   0.943  0.00  0.00    +0.006 C 
ATOM     21  C   UNL     1      -9.115  -4.990   0.845  0.00  0.00    -0.072 C 
ATOM     22  N   UNL     1      -9.172  -6.202   1.648  0.00  0.00    +0.386 N 
ATOM     23  C   UNL     1      -8.671  -6.135   3.011  0.00  0.00    -0.072 C 
ATOM     24  C   UNL     1      -7.342  -5.396   3.127  0.00  0.00    +0.006 C 
ATOM     25  C   UNL     1      -9.697  -5.514   3.962  0.00  0.00    -0.010 C 
ATOM     26  C   UNL     1      -8.432  -7.586   3.490  0.00  0.00    -0.010 C 
ATOM     27  C   UNL     1     -10.233  -4.010   1.201  0.00  0.00    -0.010 C 
ATOM     28  C   UNL     1      -9.316  -5.398  -0.633  0.00  0.00    -0.010 C 
ATOM     29  H   UNL     1     -10.144  -6.522   1.677  0.00  0.00    -0.084 HD
ATOM     30  H   UNL     1      -8.662  -6.939   1.153  0.00  0.00    -0.084 HD
ENDBRANCH  17  19
ENDBRANCH  16  17
ENDBRANCH  11  16
TORSDOF 5
