REMARK  Name = ZINC49526867
REMARK  5 active torsions:
REMARK  status: ('A' for Active; 'I' for Inactive)
REMARK    1  A    between atoms: C_1  and  C_2
REMARK    2  A    between atoms: C_2  and  C_4
REMARK    3  A    between atoms: C_2  and  N_11
REMARK    4  A    between atoms: C_15  and  C_18
REMARK    5  A    between atoms: C_18  and  N_20
REMARK                            x       y       z     vdW  Elec       q    Type
REMARK                         _______ _______ _______ _____ _____    ______ ____
ROOT
ATOM      1  N   UNL     1      -1.372  -0.511   0.012  0.00  0.00    -0.323 N 
ATOM      2  C   UNL     1      -2.047  -0.659   1.213  0.00  0.00    +0.119 A 
ATOM      3  C   UNL     1      -1.411  -0.317   2.405  0.00  0.00    +0.044 A 
ATOM      4  C   UNL     1      -2.080  -0.464   3.590  0.00  0.00    +0.015 A 
ATOM      5  C   UNL     1      -3.394  -0.958   3.560  0.00  0.00    +0.021 A 
ATOM      6  C   UNL     1      -3.969  -1.281   2.329  0.00  0.00    +0.123 A 
ATOM      7  N   UNL     1      -3.291  -1.119   1.212  0.00  0.00    -0.240 NA
ATOM      8  H   UNL     1      -1.810  -0.743  -0.822  0.00  0.00    +0.148 HD
ENDROOT
BRANCH   1  10
ATOM      9  C   UNL     1      -0.019   1.526   0.010  0.00  0.00    +0.033 C 
ATOM     10  C   UNL     1       0.002  -0.004   0.002  0.00  0.00    +0.099 C 
BRANCH  10  11
ATOM     11  C   UNL     1       0.707  -0.490  -1.238  0.00  0.00    -0.027 A 
ATOM     12  C   UNL     1       0.037  -0.521  -2.447  0.00  0.00    +0.006 A 
ATOM     13  C   UNL     1       0.684  -0.967  -3.584  0.00  0.00    +0.015 A 
ATOM     14  C   UNL     1       2.002  -1.381  -3.513  0.00  0.00    +0.018 A 
ATOM     15  C   UNL     1       2.672  -1.349  -2.303  0.00  0.00    +0.015 A 
ATOM     16  C   UNL     1       2.026  -0.899  -1.167  0.00  0.00    +0.006 A 
ATOM     17 BR   UNL     1       2.887  -1.991  -5.069  0.00  0.00    -0.050 Br
ENDBRANCH  10  11
ENDBRANCH   1  10
BRANCH   5  18
ATOM     18  C   UNL     1      -4.155  -1.135   4.809  0.00  0.00    +0.078 C 
ATOM     19  S   UNL     1      -3.944  -0.033   6.103  0.00  0.00    -0.035 S 
BRANCH  18  20
ATOM     20  N   UNL     1      -5.017  -2.163   4.934  0.00  0.00    -0.352 N 
ATOM     21  H   UNL     1      -5.136  -2.788   4.201  0.00  0.00    +0.143 HD
ATOM     22  H   UNL     1      -5.518  -2.279   5.757  0.00  0.00    +0.143 HD
ENDBRANCH  18  20
ENDBRANCH   5  18
TORSDOF 4
