REMARK  Name = ZINC40588661
REMARK  4 active torsions:
REMARK  status: ('A' for Active; 'I' for Inactive)
REMARK    1  A    between atoms: C_3  and  C_21
REMARK    2  A    between atoms: C_12  and  O_20
REMARK    3  A    between atoms: C_15  and  C_17
REMARK    4  A    between atoms: C_21  and  O_22
REMARK                            x       y       z     vdW  Elec       q    Type
REMARK                         _______ _______ _______ _____ _____    ______ ____
ROOT
ATOM      1  C   UNL     1      -0.025   1.214  -0.378  0.00  0.00    +0.019 C 
ATOM      2  C   UNL     1       1.359   1.863  -0.319  0.00  0.00    +0.009 C 
ATOM      3  C   UNL     1       1.985   1.611   1.055  0.00  0.00    +0.032 C 
ATOM      4  C   UNL     1       2.149   0.103   1.268  0.00  0.00    +0.115 C 
ATOM      5  N   UNL     1       0.847  -0.547   1.069  0.00  0.00    -0.285 N 
ATOM      6  C   UNL     1       0.116  -0.299  -0.182  0.00  0.00    +0.109 C 
ATOM      7  C   UNL     1       0.332  -1.357   2.016  0.00  0.00    +0.306 C 
ATOM      8  O   UNL     1      -0.851  -1.637   1.998  0.00  0.00    -0.252 OA
ATOM      9  N   UNL     1       1.128  -1.854   2.982  0.00  0.00    -0.269 N 
ATOM     10  C   UNL     1       0.754  -2.905   3.947  0.00  0.00    +0.141 C 
ATOM     11  C   UNL     1       1.694  -2.683   5.159  0.00  0.00    +0.134 C 
ATOM     12  C   UNL     1       3.012  -2.260   4.458  0.00  0.00    +0.067 C 
ATOM     13  C   UNL     1       2.515  -1.444   3.246  0.00  0.00    +0.193 C 
ENDROOT
BRANCH  13  14
ATOM     14  C   UNL     1       3.373  -1.737   2.042  0.00  0.00    +0.376 C 
ATOM     15  O   UNL     1       4.513  -1.307   1.986  0.00  0.00    -0.244 OA
ATOM     16  O   UNL     1       2.928  -2.403   1.123  0.00  0.00    -0.244 OA
ENDBRANCH  13  14
BRANCH  11  17
ATOM     17  O   UNL     1       1.204  -1.638   6.002  0.00  0.00    -0.390 OA
ATOM     18  H   UNL     1       0.334  -1.817   6.385  0.00  0.00    +0.210 HD
ENDBRANCH  11  17
BRANCH   3  19
ATOM     19  C   UNL     1       3.354   2.290   1.125  0.00  0.00    +0.160 C 
BRANCH  19  20
ATOM     20  O   UNL     1       3.189   3.706   1.040  0.00  0.00    -0.395 OA
ATOM     21  H   UNL     1       4.018   4.202   1.077  0.00  0.00    +0.209 HD
ENDBRANCH  19  20
ENDBRANCH   3  19
TORSDOF 4
