REMARK  Name = ZINC13029936
REMARK  11 active torsions:
REMARK  status: ('A' for Active; 'I' for Inactive)
REMARK    1  A    between atoms: C_1  and  C_2
REMARK    2  A    between atoms: C_2  and  O_3
REMARK    3  A    between atoms: O_3  and  C_4
REMARK    4  A    between atoms: C_9  and  C_10
REMARK    5  A    between atoms: C_10  and  C_12
REMARK    6  A    between atoms: C_10  and  N_20
REMARK    7  A    between atoms: N_14  and  C_15
REMARK    8  A    between atoms: N_20  and  C_21
REMARK    9  A    between atoms: C_21  and  C_22
REMARK   10  A    between atoms: C_27  and  C_29
REMARK   11  A    between atoms: C_29  and  N_30
REMARK                            x       y       z     vdW  Elec       q    Type
REMARK                         _______ _______ _______ _____ _____    ______ ____
ROOT
ATOM      1  C   UNL     1       2.532   3.926   0.202  0.00  0.00    +0.196 C 
ENDROOT
BRANCH   1   7
ATOM      2  C   UNL     1       0.046   3.953   0.528  0.00  0.00    +0.126 A 
ATOM      3  C   UNL     1      -1.161   3.300   0.739  0.00  0.00    +0.046 A 
ATOM      4  C   UNL     1      -1.190   1.923   0.846  0.00  0.00    +0.004 A 
ATOM      5  C   UNL     1      -0.017   1.196   0.754  0.00  0.00    +0.001 A 
ATOM      6  C   UNL     1       1.186   1.844   0.544  0.00  0.00    +0.009 A 
ATOM      7  C   UNL     1       1.220   3.221   0.430  0.00  0.00    +0.023 A 
BRANCH   2   8
ATOM      8  O   UNL     1       0.077   5.307   0.417  0.00  0.00    -0.492 OA
BRANCH   8  10
ATOM      9  C   UNL     1      -0.938   7.500   0.378  0.00  0.00    +0.048 C 
ATOM     10  C   UNL     1      -1.171   5.996   0.527  0.00  0.00    +0.225 C 
ENDBRANCH   8  10
ENDBRANCH   2   8
ENDBRANCH   1   7
BRANCH   1  11
ATOM     11  C   UNL     1       2.644   4.319  -1.249  0.00  0.00    +0.238 C 
ATOM     12  O   UNL     1       3.505   3.825  -1.946  0.00  0.00    -0.273 OA
ATOM     13  N   UNL     1       1.789   5.220  -1.772  0.00  0.00    -0.311 N 
ATOM     14  H   UNL     1       1.100   5.615  -1.215  0.00  0.00    +0.149 HD
BRANCH  13  15
ATOM     15  C   UNL     1       1.898   5.601  -3.182  0.00  0.00    +0.073 C 
ATOM     16  C   UNL     1       2.887   6.776  -3.336  0.00  0.00    +0.022 C 
ATOM     17  C   UNL     1       2.264   7.652  -4.452  0.00  0.00    +0.002 C 
ATOM     18  C   UNL     1       0.747   7.561  -4.151  0.00  0.00    +0.002 C 
ATOM     19  C   UNL     1       0.538   6.101  -3.700  0.00  0.00    +0.022 C 
ENDBRANCH  13  15
ENDBRANCH   1  11
BRANCH   1  20
ATOM     20  N   UNL     1       3.636   3.030   0.552  0.00  0.00    -0.277 N 
ATOM     21  C   UNL     1       3.873   1.930  -0.190  0.00  0.00    +0.238 C 
ATOM     22  O   UNL     1       3.123   1.638  -1.097  0.00  0.00    -0.274 OA
BRANCH  20  23
ATOM     23  C   UNL     1       4.483   3.329   1.709  0.00  0.00    +0.183 C 
BRANCH  23  24
ATOM     24  C   UNL     1       3.940   2.624   2.925  0.00  0.00    +0.122 A 
ATOM     25  C   UNL     1       4.355   1.435   3.396  0.00  0.00    +0.046 A 
ATOM     26  C   UNL     1       3.579   1.155   4.544  0.00  0.00    +0.041 A 
ATOM     27  C   UNL     1       2.735   2.190   4.706  0.00  0.00    +0.195 A 
ATOM     28  O   UNL     1       2.962   3.079   3.726  0.00  0.00    -0.466 OA
ENDBRANCH  23  24
ENDBRANCH  20  23
BRANCH  21  29
ATOM     29  C   UNL     1       5.069   1.063   0.108  0.00  0.00    +0.241 C 
BRANCH  29  30
ATOM     30  N   UNL     1       5.103  -0.060  -0.832  0.00  0.00    -0.235 N 
ATOM     31  C   UNL     1       5.731  -0.092  -2.054  0.00  0.00    +0.090 A 
ATOM     32  C   UNL     1       6.483   0.828  -2.779  0.00  0.00    +0.029 A 
ATOM     33  C   UNL     1       6.983   0.482  -4.003  0.00  0.00    +0.002 A 
ATOM     34  C   UNL     1       6.747  -0.781  -4.531  0.00  0.00    +0.002 A 
ATOM     35  C   UNL     1       6.013  -1.700  -3.841  0.00  0.00    +0.032 A 
ATOM     36  C   UNL     1       5.489  -1.371  -2.584  0.00  0.00    +0.113 A 
ATOM     37  N   UNL     1       4.745  -2.050  -1.689  0.00  0.00    -0.129 NA
ATOM     38  N   UNL     1       4.508  -1.319  -0.657  0.00  0.00    -0.064 NA
ENDBRANCH  29  30
ENDBRANCH  21  29
ENDBRANCH   1  20
TORSDOF 10
