REMARK  Name = ZINC39068734
REMARK  6 active torsions:
REMARK  status: ('A' for Active; 'I' for Inactive)
REMARK    1  A    between atoms: C_1  and  C_2
REMARK    2  A    between atoms: C_3  and  C_4
REMARK    3  A    between atoms: C_4  and  C_10
REMARK    4  A    between atoms: C_5  and  C_6
REMARK    5  A    between atoms: C_6  and  C_7
REMARK    6  A    between atoms: C_7  and  C_9
REMARK                            x       y       z     vdW  Elec       q    Type
REMARK                         _______ _______ _______ _____ _____    ______ ____
ROOT
ATOM      1  C   UNL     1       0.037  -2.610  -0.012  0.00  0.00    -0.004 C 
ATOM      2  C   UNL     1      -1.104  -3.290  -0.005  0.00  0.00    -0.007 C 
ATOM      3  C   UNL     1       1.353  -3.345  -0.029  0.00  0.00    +0.053 C 
ENDROOT
BRANCH   1   6
ATOM      4  C   UNL     1      -0.018   1.468   0.010  0.00  0.00    +0.106 C 
ATOM      5  C   UNL     1       0.002  -0.004   0.002  0.00  0.00    -0.101 C 
ATOM      6  C   UNL     1       0.018  -1.178  -0.004  0.00  0.00    -0.071 C 
ENDBRANCH   1   6
BRANCH   2   7
ATOM      7  C   UNL     1      -2.419  -2.554   0.011  0.00  0.00    +0.102 C 
BRANCH   7   8
ATOM      8  C   UNL     1      -3.267  -3.014  -1.147  0.00  0.00    +0.134 C 
ATOM      9  O   UNL     1      -2.846  -3.852  -1.907  0.00  0.00    -0.297 OA
ATOM     10  C   UNL     1      -4.639  -2.427  -1.356  0.00  0.00    +0.086 C 
ENDBRANCH   7   8
ENDBRANCH   2   7
TORSDOF 3
