REMARK  Name = ZINC62787908
REMARK  4 active torsions:
REMARK  status: ('A' for Active; 'I' for Inactive)
REMARK    1  A    between atoms: C_9  and  N_11
REMARK    2  A    between atoms: N_11  and  C_12
REMARK    3  A    between atoms: C_17  and  C_18
REMARK    4  A    between atoms: C_18  and  N_20
REMARK                            x       y       z     vdW  Elec       q    Type
REMARK                         _______ _______ _______ _____ _____    ______ ____
ROOT
ATOM      1  N   UNL     1       1.173  -2.040  -0.004  0.00  0.00    -0.312 N 
ATOM      2  H   UNL     1       2.003  -2.495  -0.217  0.00  0.00    +0.152 HD
ENDROOT
BRANCH   1  11
ATOM      3  C   UNL     1      -0.046   1.382   0.599  0.00  0.00    +0.003 A 
ATOM      4  C   UNL     1       1.107   2.107   0.612  0.00  0.00    +0.010 A 
ATOM      5  C   UNL     1       2.340   1.464   0.417  0.00  0.00    +0.002 A 
ATOM      6  C   UNL     1       3.550   2.185   0.426  0.00  0.00    +0.011 A 
ATOM      7  C   UNL     1       4.712   1.495   0.231  0.00  0.00    +0.020 A 
ATOM      8  C   UNL     1       4.677   0.117   0.031  0.00  0.00    +0.111 A 
ATOM      9  N   UNL     1       3.549  -0.550   0.024  0.00  0.00    -0.253 NA
ATOM     10  C   UNL     1       2.378   0.064   0.209  0.00  0.00    +0.092 A 
ATOM     11  C   UNL     1       1.165  -0.661   0.200  0.00  0.00    +0.058 A 
ATOM     12  C   UNL     1      -0.025   0.006   0.395  0.00  0.00    +0.025 A 
ENDBRANCH   1  11
BRANCH   1  13
ATOM     13  C   UNL     1      -0.009  -2.764   0.100  0.00  0.00    +0.042 A 
ATOM     14  C   UNL     1      -0.342  -3.391   1.294  0.00  0.00    +0.044 A 
ATOM     15  C   UNL     1      -1.517  -4.109   1.394  0.00  0.00    +0.043 A 
ATOM     16  C   UNL     1      -2.373  -4.212   0.306  0.00  0.00    +0.021 A 
ATOM     17  C   UNL     1      -2.059  -3.598  -0.886  0.00  0.00    +0.013 A 
ATOM     18  C   UNL     1      -0.876  -2.861  -1.001  0.00  0.00    +0.024 A 
ATOM     19 CL   UNL     1      -1.927  -4.890   2.889  0.00  0.00    -0.083 Cl
BRANCH  18  20
ATOM     20  C   UNL     1      -0.537  -2.197  -2.271  0.00  0.00    +0.079 C 
ATOM     21  S   UNL     1       0.987  -1.443  -2.462  0.00  0.00    -0.035 S 
BRANCH  20  22
ATOM     22  N   UNL     1      -1.428  -2.184  -3.282  0.00  0.00    -0.352 N 
ATOM     23  H   UNL     1      -2.292  -2.612  -3.174  0.00  0.00    +0.143 HD
ATOM     24  H   UNL     1      -1.205  -1.746  -4.119  0.00  0.00    +0.143 HD
ENDBRANCH  20  22
ENDBRANCH  18  20
ENDBRANCH   1  13
TORSDOF 4
