REMARK  Name = ZINC01433649
REMARK  8 active torsions:
REMARK  status: ('A' for Active; 'I' for Inactive)
REMARK    1  A    between atoms: C_1  and  C_2
REMARK    2  A    between atoms: C_6  and  N_8
REMARK    3  A    between atoms: N_8  and  C_9
REMARK    4  A    between atoms: C_9  and  C_10
REMARK    5  A    between atoms: N_12  and  N_13
REMARK    6  A    between atoms: C_14  and  C_15
REMARK    7  A    between atoms: C_18  and  O_23
REMARK    8  A    between atoms: C_19  and  O_22
REMARK                            x       y       z     vdW  Elec       q    Type
REMARK                         _______ _______ _______ _____ _____    ______ ____
ROOT
ATOM      1  C   UNL     1       7.538   4.470  -2.325  0.00  0.00    +0.249 C 
ATOM      2  O   UNL     1       6.980   4.222  -3.373  0.00  0.00    -0.272 OA
ATOM      3  N   UNL     1       6.934   4.181  -1.155  0.00  0.00    -0.206 N 
ATOM      4  H   UNL     1       7.381   4.379  -0.317  0.00  0.00    +0.177 HD
ENDROOT
BRANCH   3   5
ATOM      5  N   UNL     1       5.662   3.593  -1.149  0.00  0.00    -0.188 NA
ATOM      6  C   UNL     1       5.081   3.314  -0.023  0.00  0.00    +0.139 C 
BRANCH   6   7
ATOM      7  C   UNL     1       3.743   2.697  -0.017  0.00  0.00    +0.013 A 
ATOM      8  C   UNL     1       3.115   2.395   1.195  0.00  0.00    +0.029 A 
ATOM      9  C   UNL     1       1.861   1.822   1.198  0.00  0.00    +0.064 A 
ATOM     10  C   UNL     1       1.223   1.533  -0.001  0.00  0.00    +0.174 A 
ATOM     11  C   UNL     1       1.842   1.830  -1.213  0.00  0.00    +0.174 A 
ATOM     12  C   UNL     1       3.098   2.410  -1.224  0.00  0.00    +0.072 A 
ATOM     13 BR   UNL     1       3.940   2.816  -2.868  0.00  0.00    -0.046 Br
ATOM     14 BR   UNL     1       1.010   1.422   2.838  0.00  0.00    -0.046 Br
BRANCH  11  15
ATOM     15  O   UNL     1       1.212   1.550  -2.385  0.00  0.00    -0.503 OA
ATOM     16  H   UNL     1       0.659   2.271  -2.716  0.00  0.00    +0.292 HD
ENDBRANCH  11  15
BRANCH  10  17
ATOM     17  O   UNL     1      -0.011   0.963   0.007  0.00  0.00    -0.503 OA
ATOM     18  H   UNL     1       0.002  -0.004   0.002  0.00  0.00    +0.292 HD
ENDBRANCH  10  17
ENDBRANCH   6   7
ENDBRANCH   3   5
BRANCH   1  19
ATOM     19  C   UNL     1       8.906   5.102  -2.330  0.00  0.00    +0.199 C 
BRANCH  19  20
ATOM     20  N   UNL     1       9.340   5.315  -3.713  0.00  0.00    -0.335 N 
ATOM     21  H   UNL     1       8.762   5.055  -4.448  0.00  0.00    +0.147 HD
BRANCH  20  27
ATOM     22  C   UNL     1      12.677   6.886  -6.961  0.00  0.00    +0.044 C 
ATOM     23  C   UNL     1      12.229   6.666  -5.539  0.00  0.00    -0.049 A 
ATOM     24  C   UNL     1      13.050   7.036  -4.490  0.00  0.00    +0.003 A 
ATOM     25  C   UNL     1      12.643   6.836  -3.184  0.00  0.00    +0.002 A 
ATOM     26  C   UNL     1      11.410   6.270  -2.923  0.00  0.00    +0.023 A 
ATOM     27  C   UNL     1      10.585   5.892  -3.974  0.00  0.00    +0.028 A 
ATOM     28  C   UNL     1      10.998   6.095  -5.285  0.00  0.00    +0.026 A 
ENDBRANCH  20  27
ENDBRANCH  19  20
ENDBRANCH   1  19
TORSDOF 7
