REMARK  Name = ZINC49185791
REMARK  8 active torsions:
REMARK  status: ('A' for Active; 'I' for Inactive)
REMARK    1  A    between atoms: C_1  and  C_2
REMARK    2  A    between atoms: C_5  and  C_7
REMARK    3  A    between atoms: C_7  and  C_9
REMARK    4  A    between atoms: C_7  and  N_10
REMARK    5  A    between atoms: C_11  and  C_22
REMARK    6  A    between atoms: C_12  and  C_21
REMARK    7  A    between atoms: C_16  and  C_20
REMARK    8  A    between atoms: C_18  and  N_19
REMARK                            x       y       z     vdW  Elec       q    Type
REMARK                         _______ _______ _______ _____ _____    ______ ____
ROOT
ATOM      1  N   UNL     1       1.868  -4.280   1.164  0.00  0.00    -0.321 N 
ATOM      2  C   UNL     1       1.628  -5.230   2.123  0.00  0.00    +0.022 A 
ATOM      3  C   UNL     1       2.572  -5.162   3.076  0.00  0.00    -0.017 A 
ATOM      4  C   UNL     1       3.482  -4.085   2.694  0.00  0.00    +0.062 A 
ATOM      5  C   UNL     1       2.993  -3.569   1.480  0.00  0.00    +0.147 A 
ATOM      6  N   UNL     1       3.652  -2.566   0.902  0.00  0.00    -0.214 NA
ATOM      7  C   UNL     1       4.738  -2.070   1.454  0.00  0.00    +0.130 A 
ATOM      8  N   UNL     1       5.234  -2.526   2.591  0.00  0.00    -0.217 NA
ATOM      9  C   UNL     1       4.642  -3.520   3.247  0.00  0.00    +0.129 A 
ATOM     10  C   UNL     1       5.448  -0.935   0.761  0.00  0.00    +0.088 C 
ATOM     11  C   UNL     1       2.672  -6.030   4.305  0.00  0.00    +0.046 C 
ATOM     12  C   UNL     1       0.478  -6.204   2.110  0.00  0.00    +0.064 C 
ENDROOT
BRANCH   9  13
ATOM     13  N   UNL     1       5.165  -3.995   4.436  0.00  0.00    -0.343 N 
ATOM     14  H   UNL     1       4.729  -4.728   4.899  0.00  0.00    +0.144 HD
ATOM     15  H   UNL     1       5.967  -3.596   4.806  0.00  0.00    +0.144 HD
ENDBRANCH   9  13
BRANCH   1  16
ATOM     16  C   UNL     1       1.043  -4.062  -0.027  0.00  0.00    +0.122 C 
ATOM     17  C   UNL     1       1.893  -4.275  -1.281  0.00  0.00    +0.036 C 
BRANCH  16  22
ATOM     18  C   UNL     1      -0.018   1.503   0.010  0.00  0.00    +0.051 C 
ATOM     19  C   UNL     1       0.002  -0.004   0.002  0.00  0.00    -0.013 A 
ATOM     20  C   UNL     1      -1.039  -0.872   0.002  0.00  0.00    +0.011 A 
ATOM     21  C   UNL     1      -0.780  -2.230  -0.007  0.00  0.00    +0.013 A 
ATOM     22  C   UNL     1       0.507  -2.653  -0.016  0.00  0.00    +0.013 A 
ATOM     23  S   UNL     1       1.404  -1.109  -0.018  0.00  0.00    -0.096 S 
ENDBRANCH  16  22
ENDBRANCH   1  16
TORSDOF 3
