REMARK  Name = ZINC44452662
REMARK  5 active torsions:
REMARK  status: ('A' for Active; 'I' for Inactive)
REMARK    1  A    between atoms: C_4  and  C_7
REMARK    2  A    between atoms: C_7  and  C_8
REMARK    3  A    between atoms: C_8  and  C_9
REMARK    4  A    between atoms: N_11  and  C_12
REMARK    5  A    between atoms: C_13  and  C_20
REMARK                            x       y       z     vdW  Elec       q    Type
REMARK                         _______ _______ _______ _____ _____    ______ ____
ROOT
ATOM      1  C   UNL     1       7.296  -2.710   2.525  0.00  0.00    +0.084 A 
ATOM      2  C   UNL     1       8.048  -3.136   3.606  0.00  0.00    +0.069 A 
ATOM      3  C   UNL     1       9.299  -3.835   3.317  0.00  0.00    -0.023 A 
ATOM      4  C   UNL     1       9.561  -3.973   2.005  0.00  0.00    -0.004 A 
ATOM      5  S   UNL     1       8.182  -3.208   1.190  0.00  0.00    -0.077 S 
ATOM      6  C   UNL     1      10.860  -4.693   1.765  0.00  0.00    +0.043 C 
ATOM      7  C   UNL     1      11.604  -4.619   3.118  0.00  0.00    +0.010 C 
ATOM      8  C   UNL     1      10.434  -4.478   4.112  0.00  0.00    +0.037 C 
ENDROOT
BRANCH   2   9
ATOM      9  C   UNL     1       7.607  -2.896   4.982  0.00  0.00    +0.254 C 
ATOM     10  O   UNL     1       6.910  -3.716   5.550  0.00  0.00    -0.270 OA
ATOM     11  N   UNL     1       7.975  -1.767   5.620  0.00  0.00    -0.236 N 
ATOM     12  C   UNL     1       7.570  -1.547   6.886  0.00  0.00    +0.304 C 
ATOM     13  O   UNL     1       6.873  -2.366   7.453  0.00  0.00    -0.253 OA
ATOM     14  N   UNL     1       7.937  -0.418   7.524  0.00  0.00    -0.313 N 
ATOM     15  H   UNL     1       8.530  -1.113   5.168  0.00  0.00    +0.159 HD
ATOM     16  H   UNL     1       8.493   0.236   7.072  0.00  0.00    +0.146 HD
ATOM     17  H   UNL     1       7.645  -0.259   8.436  0.00  0.00    +0.146 HD
ENDBRANCH   2   9
BRANCH   1  20
ATOM     18  C   UNL     1       5.487  -1.699   1.381  0.00  0.00    +0.218 C 
ATOM     19  O   UNL     1       6.005  -1.990   0.324  0.00  0.00    -0.275 OA
ATOM     20  N   UNL     1       6.087  -2.034   2.541  0.00  0.00    -0.279 N 
ATOM     21  H   UNL     1       5.672  -1.801   3.386  0.00  0.00    +0.155 HD
BRANCH  18  22
ATOM     22  C   UNL     1       4.171  -0.963   1.399  0.00  0.00    +0.101 C 
BRANCH  22  23
ATOM     23  C   UNL     1       3.711  -0.707  -0.038  0.00  0.00    +0.044 C 
BRANCH  23  27
ATOM     24  C   UNL     1      -0.017   1.378   0.010  0.00  0.00    +0.000 A 
ATOM     25  C   UNL     1       1.171   2.086   0.002  0.00  0.00    +0.000 A 
ATOM     26  C   UNL     1       2.377   1.411  -0.013  0.00  0.00    +0.003 A 
ATOM     27  C   UNL     1       2.396   0.029  -0.020  0.00  0.00    -0.047 A 
ATOM     28  C   UNL     1       1.208  -0.679  -0.012  0.00  0.00    +0.003 A 
ATOM     29  C   UNL     1       0.002  -0.004   0.002  0.00  0.00    +0.000 A 
ENDBRANCH  23  27
ENDBRANCH  22  23
ENDBRANCH  18  22
ENDBRANCH   1  20
TORSDOF 5
