REMARK  Name = ZINC01367005
REMARK  16 active torsions:
REMARK  status: ('A' for Active; 'I' for Inactive)
REMARK    1  A    between atoms: C_1  and  C_2
REMARK    2  A    between atoms: C_2  and  O_3
REMARK    3  A    between atoms: O_3  and  C_4
REMARK    4  A    between atoms: C_11  and  C_16
REMARK    5  A    between atoms: C_16  and  N_17
REMARK    6  A    between atoms: N_17  and  C_18
REMARK    7  A    between atoms: C_18  and  C_19
REMARK    8  A    between atoms: C_19  and  C_20
REMARK    9  A    between atoms: C_24  and  C_26
REMARK   10  A    between atoms: C_27  and  C_29
REMARK   11  A    between atoms: C_31  and  O_39
REMARK   12  A    between atoms: C_32  and  O_37
REMARK   13  A    between atoms: C_33  and  O_35
REMARK   14  A    between atoms: O_35  and  C_36
REMARK   15  A    between atoms: O_37  and  C_38
REMARK   16  A    between atoms: O_39  and  C_40
REMARK                            x       y       z     vdW  Elec       q    Type
REMARK                         _______ _______ _______ _____ _____    ______ ____
ROOT
ATOM      1  N   UNL     1       3.476   1.130   0.112  0.00  0.00    -0.293 N 
ATOM      2  C   UNL     1       2.621   0.400   0.854  0.00  0.00    +0.247 C 
ATOM      3  O   UNL     1       1.422   0.567   0.741  0.00  0.00    -0.270 OA
ENDROOT
BRANCH   2   4
ATOM      4  C   UNL     1       3.140  -0.603   1.805  0.00  0.00    +0.044 A 
ATOM      5  C   UNL     1       2.733  -0.577   3.141  0.00  0.00    +0.062 A 
ATOM      6  C   UNL     1       3.224  -1.515   4.030  0.00  0.00    +0.166 A 
ATOM      7  C   UNL     1       4.115  -2.491   3.593  0.00  0.00    +0.204 A 
ATOM      8  C   UNL     1       4.522  -2.519   2.262  0.00  0.00    +0.166 A 
ATOM      9  C   UNL     1       4.038  -1.581   1.370  0.00  0.00    +0.062 A 
BRANCH   8  10
ATOM     10  O   UNL     1       5.397  -3.471   1.839  0.00  0.00    -0.491 OA
ATOM     11  C   UNL     1       5.858  -3.375   0.490  0.00  0.00    +0.277 C 
ENDBRANCH   8  10
BRANCH   7  12
ATOM     12  O   UNL     1       4.593  -3.414   4.468  0.00  0.00    -0.488 OA
ATOM     13  C   UNL     1       5.795  -3.086   5.167  0.00  0.00    +0.277 C 
ENDBRANCH   7  12
BRANCH   6  14
ATOM     14  O   UNL     1       2.832  -1.487   5.332  0.00  0.00    -0.491 OA
ATOM     15  C   UNL     1       1.912  -0.461   5.711  0.00  0.00    +0.277 C 
ENDBRANCH   6  14
ENDBRANCH   2   4
BRANCH   1  16
ATOM     16  C   UNL     1       4.921   0.987   0.305  0.00  0.00    +0.148 C 
BRANCH  16  24
ATOM     17  C   UNL     1       8.833   1.871  -4.421  0.00  0.00    +0.121 A 
ATOM     18  C   UNL     1       8.372   0.811  -5.198  0.00  0.00    +0.047 A 
ATOM     19  C   UNL     1       7.345   0.009  -4.752  0.00  0.00    +0.030 A 
ATOM     20  C   UNL     1       6.758   0.256  -3.515  0.00  0.00    +0.049 A 
ATOM     21  C   UNL     1       7.221   1.326  -2.727  0.00  0.00    +0.002 A 
ATOM     22  C   UNL     1       8.265   2.133  -3.191  0.00  0.00    +0.055 A 
ATOM     23  C   UNL     1       6.595   1.573  -1.427  0.00  0.00    +0.020 A 
ATOM     24  C   UNL     1       5.587   0.759  -1.027  0.00  0.00    +0.035 A 
ATOM     25  C   UNL     1       5.163  -0.304  -1.853  0.00  0.00    +0.254 A 
ATOM     26  O   UNL     1       4.258  -1.028  -1.472  0.00  0.00    -0.268 OA
ATOM     27  N   UNL     1       5.727  -0.536  -3.050  0.00  0.00    -0.322 N 
ATOM     28  H   UNL     1       5.408  -1.273  -3.594  0.00  0.00    +0.169 HD
BRANCH  17  29
ATOM     29  O   UNL     1       9.848   2.652  -4.877  0.00  0.00    -0.492 OA
BRANCH  29  31
ATOM     30  C   UNL     1      11.515   3.308  -6.500  0.00  0.00    +0.048 C 
ATOM     31  C   UNL     1      10.392   2.327  -6.159  0.00  0.00    +0.225 C 
ENDBRANCH  29  31
ENDBRANCH  17  29
ENDBRANCH  16  24
ENDBRANCH   1  16
BRANCH   1  32
ATOM     32  C   UNL     1       2.961   2.067  -0.889  0.00  0.00    +0.113 C 
BRANCH  32  33
ATOM     33  C   UNL     1       2.870   3.467  -0.278  0.00  0.00    +0.054 C 
BRANCH  33  34
ATOM     34  C   UNL     1       2.226   4.406  -1.266  0.00  0.00    -0.046 A 
ATOM     35  C   UNL     1       2.996   5.028  -2.231  0.00  0.00    +0.004 A 
ATOM     36  C   UNL     1       2.405   5.886  -3.139  0.00  0.00    +0.001 A 
ATOM     37  C   UNL     1       1.046   6.128  -3.078  0.00  0.00    +0.003 A 
ATOM     38  C   UNL     1       0.277   5.509  -2.111  0.00  0.00    -0.050 A 
ATOM     39  C   UNL     1       0.867   4.648  -1.204  0.00  0.00    +0.007 A 
ATOM     40  C   UNL     1      -1.206   5.774  -2.044  0.00  0.00    +0.044 C 
ENDBRANCH  33  34
ENDBRANCH  32  33
ENDBRANCH   1  32
TORSDOF 11
