REMARK  Name = ZINC36601523
REMARK  10 active torsions:
REMARK  status: ('A' for Active; 'I' for Inactive)
REMARK    1  A    between atoms: C_1  and  C_2
REMARK    2  A    between atoms: C_5  and  C_8
REMARK    3  A    between atoms: C_8  and  C_10
REMARK    4  A    between atoms: C_8  and  N_19
REMARK    5  A    between atoms: N_12  and  C_13
REMARK    6  A    between atoms: N_19  and  C_20
REMARK    7  A    between atoms: C_20  and  C_21
REMARK    8  A    between atoms: C_24  and  C_26
REMARK    9  A    between atoms: C_27  and  C_29
REMARK   10  A    between atoms: C_33  and  N_35
REMARK                            x       y       z     vdW  Elec       q    Type
REMARK                         _______ _______ _______ _____ _____    ______ ____
ROOT
ATOM      1  N   UNL     1       0.352  -4.494   1.863  0.00  0.00    -0.275 N 
ATOM      2  C   UNL     1      -0.782  -5.119   1.486  0.00  0.00    +0.248 C 
ATOM      3  O   UNL     1      -1.037  -5.254   0.305  0.00  0.00    -0.270 OA
ENDROOT
BRANCH   2   4
ATOM      4  C   UNL     1      -1.714  -5.638   2.509  0.00  0.00    +0.039 A 
ATOM      5  C   UNL     1      -1.970  -4.899   3.665  0.00  0.00    +0.013 A 
ATOM      6  C   UNL     1      -2.841  -5.390   4.615  0.00  0.00    +0.003 A 
ATOM      7  C   UNL     1      -3.461  -6.612   4.424  0.00  0.00    +0.033 A 
ATOM      8  C   UNL     1      -3.213  -7.349   3.280  0.00  0.00    +0.127 A 
ATOM      9  C   UNL     1      -2.348  -6.867   2.319  0.00  0.00    +0.045 A 
BRANCH   8  10
ATOM     10  N   UNL     1      -3.880  -8.656   3.084  0.00  0.00    +0.056 N 
ATOM     11  O   UNL     1      -4.642  -9.077   3.923  0.00  0.00    -0.126 OA
ATOM     12  O   UNL     1      -3.664  -9.302   2.085  0.00  0.00    -0.126 OA
ENDBRANCH   8  10
ENDBRANCH   2   4
BRANCH   1  13
ATOM     13  C   UNL     1       0.737  -4.465   3.276  0.00  0.00    +0.193 C 
BRANCH  13  18
ATOM     14  C   UNL     1       0.767   1.000   5.154  0.00  0.00    +0.044 C 
ATOM     15  C   UNL     1       0.759  -0.426   4.664  0.00  0.00    -0.050 A 
ATOM     16  C   UNL     1       0.980  -1.462   5.551  0.00  0.00    +0.004 A 
ATOM     17  C   UNL     1       0.972  -2.770   5.102  0.00  0.00    +0.006 A 
ATOM     18  C   UNL     1       0.744  -3.040   3.766  0.00  0.00    -0.018 A 
ATOM     19  C   UNL     1       0.523  -2.003   2.879  0.00  0.00    +0.006 A 
ATOM     20  C   UNL     1       0.526  -0.696   3.329  0.00  0.00    +0.004 A 
ENDBRANCH  13  18
BRANCH  13  21
ATOM     21  C   UNL     1       2.114  -5.057   3.433  0.00  0.00    +0.238 C 
ATOM     22  O   UNL     1       2.865  -5.107   2.482  0.00  0.00    -0.273 OA
ATOM     23  N   UNL     1       2.511  -5.532   4.631  0.00  0.00    -0.311 N 
ATOM     24  H   UNL     1       1.910  -5.492   5.391  0.00  0.00    +0.149 HD
BRANCH  23  25
ATOM     25  C   UNL     1       3.850  -6.107   4.783  0.00  0.00    +0.073 C 
ATOM     26  C   UNL     1       3.821  -7.581   4.374  0.00  0.00    +0.022 C 
ATOM     27  C   UNL     1       5.219  -8.182   4.533  0.00  0.00    +0.002 C 
ATOM     28  C   UNL     1       5.660  -8.067   5.994  0.00  0.00    +0.000 C 
ATOM     29  C   UNL     1       5.688  -6.593   6.404  0.00  0.00    +0.002 C 
ATOM     30  C   UNL     1       4.290  -5.992   6.244  0.00  0.00    +0.022 C 
ENDBRANCH  23  25
ENDBRANCH  13  21
ENDBRANCH   1  13
BRANCH   1  31
ATOM     31  C   UNL     1       1.198  -3.844   0.859  0.00  0.00    +0.183 C 
BRANCH  31  32
ATOM     32  C   UNL     1       1.590  -4.848  -0.194  0.00  0.00    +0.122 A 
ATOM     33  C   UNL     1       0.953  -5.053  -1.361  0.00  0.00    +0.046 A 
ATOM     34  C   UNL     1       1.655  -6.078  -2.036  0.00  0.00    +0.045 A 
ATOM     35  C   UNL     1       2.679  -6.438  -1.241  0.00  0.00    +0.102 A 
ATOM     36  O   UNL     1       2.638  -5.685  -0.130  0.00  0.00    -0.463 OA
ATOM     37  C   UNL     1       3.702  -7.501  -1.549  0.00  0.00    +0.086 C 
ENDBRANCH  31  32
ENDBRANCH   1  31
TORSDOF 8
