REMARK  Name = ZINC55065569
REMARK  3 active torsions:
REMARK  status: ('A' for Active; 'I' for Inactive)
REMARK    1  A    between atoms: C_1  and  C_2
REMARK    2  A    between atoms: C_14  and  C_24
REMARK    3  A    between atoms: C_22  and  O_23
REMARK                            x       y       z     vdW  Elec       q    Type
REMARK                         _______ _______ _______ _____ _____    ______ ____
ROOT
ATOM      1  C   UNL     1      -0.018   1.503   0.010  0.00  0.00    +0.035 C 
ATOM      2  C   UNL     1       0.002  -0.004   0.002  0.00  0.00    -0.029 C 
ATOM      3  C   UNL     1       0.588  -0.657   0.976  0.00  0.00    -0.052 C 
ATOM      4  C   UNL     1       1.240   0.072   2.115  0.00  0.00    +0.115 C 
ATOM      5  N   UNL     1       0.852  -0.486   3.423  0.00  0.00    -0.294 NA
ATOM      6  C   UNL     1       2.004  -0.109   4.316  0.00  0.00    +0.086 C 
ATOM      7  C   UNL     1       3.126  -1.054   3.814  0.00  0.00    +0.034 C 
ATOM      8  C   UNL     1       2.366  -2.332   3.398  0.00  0.00    +0.053 C 
ATOM      9  C   UNL     1       0.893  -1.966   3.469  0.00  0.00    +0.074 C 
ATOM     10  C   UNL     1       0.085  -2.613   2.357  0.00  0.00    +0.033 C 
ATOM     11  C   UNL     1       0.623  -2.164   0.992  0.00  0.00    +0.052 C 
ATOM     12  C   UNL     1       2.048  -2.661   0.881  0.00  0.00    +0.017 C 
ATOM     13  C   UNL     1       2.756  -2.811   2.029  0.00  0.00    +0.027 C 
ATOM     14  N   UNL     1       3.807  -3.661   2.235  0.00  0.00    -0.314 N 
ATOM     15  C   UNL     1       3.708  -4.199   3.514  0.00  0.00    +0.077 A 
ATOM     16  C   UNL     1       2.808  -3.446   4.288  0.00  0.00    -0.009 A 
ATOM     17  C   UNL     1       2.496  -3.784   5.585  0.00  0.00    +0.006 A 
ATOM     18  C   UNL     1       3.139  -4.893   6.124  0.00  0.00    +0.004 A 
ATOM     19  C   UNL     1       4.054  -5.621   5.391  0.00  0.00    +0.047 A 
ATOM     20  C   UNL     1       4.367  -5.296   4.075  0.00  0.00    +0.138 A 
ATOM     21  H   UNL     1       4.507  -3.857   1.594  0.00  0.00    +0.152 HD
ENDROOT
BRANCH  20  22
ATOM     22  O   UNL     1       5.277  -6.015   3.366  0.00  0.00    -0.505 OA
ATOM     23  H   UNL     1       6.184  -5.690   3.446  0.00  0.00    +0.292 HD
ENDBRANCH  20  22
BRANCH  12  24
ATOM     24  C   UNL     1       2.621  -2.951  -0.366  0.00  0.00    +0.256 C 
ATOM     25  O   UNL     1       1.971  -2.804  -1.382  0.00  0.00    -0.296 OA
ENDBRANCH  12  24
TORSDOF 2
