REMARK  Name = ZINC61368558
REMARK  5 active torsions:
REMARK  status: ('A' for Active; 'I' for Inactive)
REMARK    1  A    between atoms: C_3  and  S_9
REMARK    2  A    between atoms: C_6  and  N_7
REMARK    3  A    between atoms: N_7  and  N_8
REMARK    4  A    between atoms: S_9  and  N_12
REMARK    5  A    between atoms: N_12  and  C_13
REMARK                            x       y       z     vdW  Elec       q    Type
REMARK                         _______ _______ _______ _____ _____    ______ ____
ROOT
ATOM      1  S   UNL     1       3.989   2.321  -0.049  0.00  0.00    +0.059 S 
ATOM      2  O   UNL     1       4.966   1.411  -0.536  0.00  0.00    -0.153 OA
ATOM      3  O   UNL     1       3.793   3.607  -0.621  0.00  0.00    -0.153 OA
ENDROOT
BRANCH   1   6
ATOM      4  C   UNL     1       0.050   1.572  -0.279  0.00  0.00    +0.026 A 
ATOM      5  C   UNL     1       1.267   2.220  -0.210  0.00  0.00    +0.030 A 
ATOM      6  C   UNL     1       2.438   1.489  -0.136  0.00  0.00    +0.105 A 
ATOM      7  C   UNL     1       2.395   0.107  -0.130  0.00  0.00    +0.030 A 
ATOM      8  C   UNL     1       1.181  -0.548  -0.199  0.00  0.00    +0.026 A 
ATOM      9  C   UNL     1       0.003   0.184  -0.274  0.00  0.00    +0.041 A 
BRANCH   9  10
ATOM     10  N   UNL     1      -1.227  -0.475  -0.343  0.00  0.00    -0.283 N 
ATOM     11  H   UNL     1      -2.049   0.036  -0.395  0.00  0.00    +0.166 HD
BRANCH  10  12
ATOM     12  N   UNL     1      -1.272  -1.841  -0.337  0.00  0.00    -0.257 NA
ATOM     13  H   UNL     1      -0.805  -2.214   0.476  0.00  0.00    +0.140 HD
ATOM     14  H   UNL     1      -2.223  -2.172  -0.392  0.00  0.00    +0.140 HD
ENDBRANCH  10  12
ENDBRANCH   9  10
ENDBRANCH   1   6
BRANCH   1  15
ATOM     15  N   UNL     1       4.326   2.562   1.555  0.00  0.00    -0.183 NA
ATOM     16  H   UNL     1       4.366   3.463   1.912  0.00  0.00    +0.149 HD
BRANCH  15  17
ATOM     17  C   UNL     1       4.564   1.414   2.434  0.00  0.00    +0.107 C 
ATOM     18  C   UNL     1       6.069   1.172   2.564  0.00  0.00    +0.025 C 
ATOM     19  C   UNL     1       6.337   0.096   3.620  0.00  0.00    +0.007 C 
ATOM     20  C   UNL     1       6.015   0.675   5.006  0.00  0.00    +0.043 C 
ATOM     21  C   UNL     1       4.685   1.351   4.935  0.00  0.00    -0.005 A 
ATOM     22  C   UNL     1       3.989   1.702   3.817  0.00  0.00    -0.019 A 
ATOM     23  C   UNL     1       2.756   2.323   4.017  0.00  0.00    +0.013 A 
ATOM     24  C   UNL     1       2.306   2.549   5.272  0.00  0.00    +0.046 A 
ATOM     25  S   UNL     1       3.641   1.883   6.266  0.00  0.00    -0.101 S 
ENDBRANCH  15  17
ENDBRANCH   1  15
TORSDOF 5
