REMARK  Name = ZINC33560107
REMARK  11 active torsions:
REMARK  status: ('A' for Active; 'I' for Inactive)
REMARK    1  A    between atoms: C_1  and  C_2
REMARK    2  A    between atoms: C_2  and  C_3
REMARK    3  A    between atoms: C_8  and  N_9
REMARK    4  A    between atoms: C_10  and  N_11
REMARK    5  A    between atoms: C_13  and  C_33
REMARK    6  A    between atoms: C_19  and  S_20
REMARK    7  A    between atoms: S_20  and  C_21
REMARK    8  A    between atoms: C_21  and  C_22
REMARK    9  A    between atoms: N_24  and  C_25
REMARK   10  A    between atoms: C_25  and  C_26
REMARK   11  A    between atoms: C_26  and  C_27
REMARK                            x       y       z     vdW  Elec       q    Type
REMARK                         _______ _______ _______ _____ _____    ______ ____
ROOT
ATOM      1  N   UNL     1      -2.185  -0.415  -2.658  0.00  0.00    -0.276 N 
ATOM      2  C   UNL     1      -1.366  -1.318  -3.201  0.00  0.00    +0.115 A 
ATOM      3  C   UNL     1      -0.512  -0.908  -4.243  0.00  0.00    +0.079 A 
ATOM      4  C   UNL     1       0.460  -1.555  -5.038  0.00  0.00    +0.072 A 
ATOM      5  N   UNL     1       0.959  -0.684  -5.868  0.00  0.00    -0.177 NA
ATOM      6  N   UNL     1       0.351   0.562  -5.668  0.00  0.00    -0.260 N 
ATOM      7  H   UNL     1       0.547   1.375  -6.159  0.00  0.00    +0.191 HD
ATOM      8  C   UNL     1      -0.562   0.435  -4.663  0.00  0.00    +0.162 A 
ATOM      9  N   UNL     1      -1.410   1.270  -4.064  0.00  0.00    -0.204 NA
ATOM     10  C   UNL     1      -2.200   0.848  -3.093  0.00  0.00    +0.177 A 
ATOM     11  C   UNL     1       0.854  -3.006  -4.941  0.00  0.00    +0.068 C 
ENDROOT
BRANCH   1  17
ATOM     12  C   UNL     1      -2.613  -0.695  -0.310  0.00  0.00    -0.024 A 
ATOM     13  C   UNL     1      -3.466  -1.069   0.709  0.00  0.00    +0.005 A 
ATOM     14  C   UNL     1      -4.731  -1.544   0.415  0.00  0.00    +0.000 A 
ATOM     15  C   UNL     1      -5.149  -1.649  -0.899  0.00  0.00    +0.002 A 
ATOM     16  C   UNL     1      -4.304  -1.278  -1.926  0.00  0.00    +0.026 A 
ATOM     17  C   UNL     1      -3.030  -0.793  -1.636  0.00  0.00    +0.053 A 
BRANCH  12  19
ATOM     18  C   UNL     1      -1.264   1.352   0.062  0.00  0.00    +0.009 C 
ATOM     19  C   UNL     1      -1.235  -0.177   0.011  0.00  0.00    +0.034 C 
ENDBRANCH  12  19
ENDBRANCH   1  17
BRANCH   2  20
ATOM     20  N   UNL     1      -1.357  -2.623  -2.753  0.00  0.00    -0.344 N 
ATOM     21  H   UNL     1      -1.871  -2.870  -1.968  0.00  0.00    +0.144 HD
ATOM     22  H   UNL     1      -0.836  -3.293  -3.222  0.00  0.00    +0.144 HD
ENDBRANCH   2  20
BRANCH  10  23
ATOM     23  S   UNL     1      -3.308   1.992  -2.340  0.00  0.00    -0.078 S 
BRANCH  23  24
ATOM     24  C   UNL     1      -2.998   3.547  -3.221  0.00  0.00    +0.173 C 
BRANCH  24  25
ATOM     25  C   UNL     1      -3.894   4.625  -2.668  0.00  0.00    +0.223 C 
ATOM     26  O   UNL     1      -4.665   4.370  -1.768  0.00  0.00    -0.275 OA
ATOM     27  N   UNL     1      -3.837   5.874  -3.173  0.00  0.00    -0.314 N 
ATOM     28  H   UNL     1      -3.220   6.078  -3.893  0.00  0.00    +0.149 HD
BRANCH  27  29
ATOM     29  C   UNL     1      -4.708   6.922  -2.635  0.00  0.00    +0.108 C 
BRANCH  29  30
ATOM     30  C   UNL     1      -4.447   8.233  -3.378  0.00  0.00    +0.049 C 
BRANCH  30  31
ATOM     31  C   UNL     1      -5.342   9.312  -2.825  0.00  0.00    -0.072 C 
ATOM     32  C   UNL     1      -4.862  10.087  -1.906  0.00  0.00    -0.028 C 
ATOM     33  C   UNL     1      -5.635  11.196  -1.254  0.00  0.00    +0.027 C 
ATOM     34  C   UNL     1      -6.864  11.547  -2.094  0.00  0.00    +0.004 C 
ATOM     35  C   UNL     1      -7.610  10.249  -2.430  0.00  0.00    +0.005 C 
ATOM     36  C   UNL     1      -6.733   9.423  -3.377  0.00  0.00    +0.030 C 
ENDBRANCH  30  31
ENDBRANCH  29  30
ENDBRANCH  27  29
ENDBRANCH  24  25
ENDBRANCH  23  24
ENDBRANCH  10  23
TORSDOF 9
