REMARK  Name = ZINC39922942
REMARK  6 active torsions:
REMARK  status: ('A' for Active; 'I' for Inactive)
REMARK    1  A    between atoms: C_1  and  C_2
REMARK    2  A    between atoms: C_2  and  C_3
REMARK    3  A    between atoms: C_6  and  C_9
REMARK    4  A    between atoms: C_11  and  C_15
REMARK    5  A    between atoms: N_17  and  N_18
REMARK    6  A    between atoms: C_19  and  C_20
REMARK                            x       y       z     vdW  Elec       q    Type
REMARK                         _______ _______ _______ _____ _____    ______ ____
ROOT
ATOM      1  C   UNL     1      -8.580  -1.851  -0.942  0.00  0.00    +0.263 C 
ATOM      2  O   UNL     1      -9.013  -1.011  -0.180  0.00  0.00    -0.271 OA
ATOM      3  N   UNL     1      -9.104  -1.975  -2.177  0.00  0.00    -0.205 N 
ATOM      4  H   UNL     1      -8.758  -2.646  -2.786  0.00  0.00    +0.177 HD
ENDROOT
BRANCH   1   7
ATOM      5  C   UNL     1      -5.401  -1.997   0.043  0.00  0.00    +0.092 C 
ATOM      6  C   UNL     1      -6.129  -2.266  -1.058  0.00  0.00    +0.041 C 
ATOM      7  C   UNL     1      -7.456  -2.755  -0.505  0.00  0.00    +0.240 C 
ATOM      8  N   UNL     1      -7.261  -2.682   0.952  0.00  0.00    -0.170 NA
ATOM      9  N   UNL     1      -6.120  -2.267   1.164  0.00  0.00    -0.153 NA
BRANCH   5  13
ATOM     10  C   UNL     1      -1.412  -0.526   0.013  0.00  0.00    -0.048 A 
ATOM     11  C   UNL     1      -2.049  -0.765   1.217  0.00  0.00    +0.004 A 
ATOM     12  C   UNL     1      -3.344  -1.242   1.233  0.00  0.00    +0.010 A 
ATOM     13  C   UNL     1      -4.009  -1.483   0.032  0.00  0.00    +0.002 A 
ATOM     14  C   UNL     1      -3.363  -1.240  -1.178  0.00  0.00    +0.010 A 
ATOM     15  C   UNL     1      -2.070  -0.758  -1.182  0.00  0.00    +0.004 A 
BRANCH  10  17
ATOM     16  C   UNL     1      -0.019   1.526   0.010  0.00  0.00    +0.009 C 
ATOM     17  C   UNL     1       0.002  -0.004   0.002  0.00  0.00    +0.032 C 
ENDBRANCH  10  17
ENDBRANCH   5  13
ENDBRANCH   1   7
BRANCH   3  18
ATOM     18  N   UNL     1     -10.149  -1.134  -2.583  0.00  0.00    -0.188 NA
ATOM     19  C   UNL     1     -10.653  -1.253  -3.772  0.00  0.00    +0.141 C 
BRANCH  19  20
ATOM     20  C   UNL     1     -11.752  -0.368  -4.199  0.00  0.00    +0.031 A 
ATOM     21  C   UNL     1     -12.250   0.605  -3.327  0.00  0.00    +0.051 A 
ATOM     22  C   UNL     1     -13.280   1.429  -3.733  0.00  0.00    +0.021 A 
ATOM     23  C   UNL     1     -13.819   1.295  -5.000  0.00  0.00    +0.003 A 
ATOM     24  C   UNL     1     -13.332   0.335  -5.869  0.00  0.00    +0.021 A 
ATOM     25  C   UNL     1     -12.299  -0.493  -5.479  0.00  0.00    +0.051 A 
ATOM     26 CL   UNL     1     -11.684  -1.692  -6.574  0.00  0.00    -0.083 Cl
ATOM     27 CL   UNL     1     -11.576   0.774  -1.736  0.00  0.00    -0.083 Cl
ENDBRANCH  19  20
ENDBRANCH   3  18
TORSDOF 5
