REMARK  Name = ZINC39482616
REMARK  15 active torsions:
REMARK  status: ('A' for Active; 'I' for Inactive)
REMARK    1  A    between atoms: C_1  and  C_2
REMARK    2  A    between atoms: C_2  and  C_3
REMARK    3  A    between atoms: C_3  and  C_4
REMARK    4  A    between atoms: C_4  and  C_5
REMARK    5  A    between atoms: C_5  and  O_6
REMARK    6  A    between atoms: O_6  and  C_7
REMARK    7  A    between atoms: C_10  and  C_13
REMARK    8  A    between atoms: C_13  and  C_15
REMARK    9  A    between atoms: C_15  and  C_16
REMARK   10  A    between atoms: C_16  and  C_17
REMARK   11  A    between atoms: C_17  and  O_19
REMARK   12  A    between atoms: O_19  and  C_20
REMARK   13  A    between atoms: C_20  and  C_21
REMARK   14  A    between atoms: C_23  and  O_24
REMARK   15  A    between atoms: C_33  and  C_35
REMARK                            x       y       z     vdW  Elec       q    Type
REMARK                         _______ _______ _______ _____ _____    ______ ____
ROOT
ATOM      1  O   UNL     1     -11.162 -10.349   0.147  0.00  0.00    -0.460 OA
ENDROOT
BRANCH   1   2
ATOM      2  C   UNL     1     -10.173  -9.454   0.291  0.00  0.00    +0.308 C 
ATOM      3  O   UNL     1      -9.050  -9.828   0.536  0.00  0.00    -0.251 OA
BRANCH   2   4
ATOM      4  C   UNL     1     -10.461  -7.982   0.149  0.00  0.00    +0.128 C 
BRANCH   4   5
ATOM      5  C   UNL     1      -9.172  -7.186   0.359  0.00  0.00    +0.091 C 
BRANCH   5   6
ATOM      6  C   UNL     1      -9.460  -5.714   0.216  0.00  0.00    +0.164 C 
ATOM      7  O   UNL     1     -10.587  -5.338  -0.029  0.00  0.00    -0.292 OA
BRANCH   6  11
ATOM      8  C   UNL     1      -6.338  -2.889   0.674  0.00  0.00    +0.121 A 
ATOM      9  C   UNL     1      -7.629  -2.456   0.392  0.00  0.00    +0.046 A 
ATOM     10  C   UNL     1      -8.643  -3.366   0.243  0.00  0.00    +0.015 A 
ATOM     11  C   UNL     1      -8.378  -4.735   0.375  0.00  0.00    +0.018 A 
ATOM     12  C   UNL     1      -7.076  -5.166   0.659  0.00  0.00    +0.015 A 
ATOM     13  C   UNL     1      -6.068  -4.248   0.801  0.00  0.00    +0.046 A 
BRANCH   8  14
ATOM     14  O   UNL     1      -5.338  -1.985   0.820  0.00  0.00    -0.492 OA
BRANCH  14  15
ATOM     15  C   UNL     1      -5.684  -0.606   0.677  0.00  0.00    +0.229 C 
BRANCH  15  16
ATOM     16  C   UNL     1      -4.436   0.257   0.875  0.00  0.00    +0.041 C 
BRANCH  16  17
ATOM     17  C   UNL     1      -4.807   1.733   0.721  0.00  0.00    +0.003 C 
BRANCH  17  19
ATOM     18  C   UNL     1      -3.930   4.072   0.765  0.00  0.00    +0.004 C 
ATOM     19  C   UNL     1      -3.559   2.596   0.918  0.00  0.00    -0.003 C 
ENDBRANCH  17  19
ENDBRANCH  16  17
ENDBRANCH  15  16
ENDBRANCH  14  15
ENDBRANCH   8  14
ENDBRANCH   6  11
ENDBRANCH   5   6
ENDBRANCH   4   5
ENDBRANCH   2   4
ENDBRANCH   1   2
BRANCH   1  20
ATOM     20  C   UNL     1     -10.817 -11.728   0.295  0.00  0.00    +0.268 C 
BRANCH  20  21
ATOM     21  C   UNL     1     -12.046 -12.578   0.100  0.00  0.00    +0.007 A 
ATOM     22  C   UNL     1     -12.801 -12.473  -1.051  0.00  0.00    +0.095 A 
ATOM     23  C   UNL     1     -13.930 -13.263  -1.213  0.00  0.00    +0.285 A 
ATOM     24  O   UNL     1     -14.310 -14.135  -0.272  0.00  0.00    -0.425 OA
ATOM     25  C   UNL     1     -13.609 -14.277   0.872  0.00  0.00    +0.141 A 
ATOM     26  C   UNL     1     -12.448 -13.502   1.087  0.00  0.00    +0.024 A 
ATOM     27  C   UNL     1     -11.711 -13.652   2.276  0.00  0.00    +0.014 A 
ATOM     28  C   UNL     1     -12.114 -14.547   3.215  0.00  0.00    +0.024 A 
ATOM     29  C   UNL     1     -13.265 -15.327   3.007  0.00  0.00    +0.037 A 
ATOM     30  C   UNL     1     -14.013 -15.182   1.837  0.00  0.00    +0.070 A 
ATOM     31  N   UNL     1     -13.659 -16.221   3.955  0.00  0.00    -0.286 N 
ATOM     32  C   UNL     1     -14.530 -17.163   3.652  0.00  0.00    +0.214 C 
ATOM     33  O   UNL     1     -14.889 -17.312   2.498  0.00  0.00    -0.276 OA
ATOM     34  C   UNL     1     -15.080 -18.057   4.734  0.00  0.00    +0.109 C 
ATOM     35  H   UNL     1     -13.298 -16.164   4.854  0.00  0.00    +0.155 HD
BRANCH  23  36
ATOM     36  O   UNL     1     -14.657 -13.151  -2.340  0.00  0.00    -0.480 OA
ATOM     37  H   UNL     1     -15.426 -13.737  -2.373  0.00  0.00    +0.295 HD
ENDBRANCH  23  36
ENDBRANCH  20  21
ENDBRANCH   1  20
TORSDOF 13
