REMARK  Name = ZINC35761048
REMARK  13 active torsions:
REMARK  status: ('A' for Active; 'I' for Inactive)
REMARK    1  A    between atoms: C_1  and  C_2
REMARK    2  A    between atoms: C_2  and  C_3
REMARK    3  A    between atoms: C_3  and  N_4
REMARK    4  A    between atoms: N_4  and  C_5
REMARK    5  A    between atoms: C_5  and  C_6
REMARK    6  A    between atoms: N_8  and  C_9
REMARK    7  A    between atoms: N_8  and  C_21
REMARK    8  A    between atoms: C_9  and  C_10
REMARK    9  A    between atoms: C_10  and  C_11
REMARK   10  A    between atoms: C_21  and  C_22
REMARK   11  A    between atoms: C_28  and  C_30
REMARK   12  A    between atoms: C_33  and  C_39
REMARK   13  A    between atoms: C_34  and  N_36
REMARK                            x       y       z     vdW  Elec       q    Type
REMARK                         _______ _______ _______ _____ _____    ______ ____
ROOT
ATOM      1  C   UNL     1      -0.410  -2.783  -2.871  0.00  0.00    +0.233 C 
ATOM      2  O   UNL     1       0.520  -2.468  -3.584  0.00  0.00    -0.274 OA
ATOM      3  N   UNL     1      -1.503  -3.361  -3.406  0.00  0.00    -0.296 N 
ENDROOT
BRANCH   1   4
ATOM      4  C   UNL     1      -0.343  -2.527  -1.388  0.00  0.00    +0.203 C 
BRANCH   4   5
ATOM      5  N   UNL     1       0.988  -2.024  -1.039  0.00  0.00    -0.289 N 
ATOM      6  C   UNL     1       1.929  -2.871  -0.576  0.00  0.00    +0.247 C 
ATOM      7  O   UNL     1       2.998  -2.441  -0.192  0.00  0.00    -0.270 OA
BRANCH   6   8
ATOM      8  C   UNL     1       1.659  -4.324  -0.535  0.00  0.00    +0.039 A 
ATOM      9  C   UNL     1       1.076  -4.960  -1.632  0.00  0.00    +0.013 A 
ATOM     10  C   UNL     1       0.827  -6.316  -1.587  0.00  0.00    +0.006 A 
ATOM     11  C   UNL     1       1.154  -7.046  -0.458  0.00  0.00    -0.020 A 
ATOM     12  C   UNL     1       1.732  -6.422   0.633  0.00  0.00    +0.130 A 
ATOM     13  C   UNL     1       1.991  -5.067   0.599  0.00  0.00    +0.046 A 
ATOM     14  C   UNL     1       0.879  -8.527  -0.416  0.00  0.00    +0.046 C 
BRANCH  12  15
ATOM     15  N   UNL     1       2.078  -7.210   1.837  0.00  0.00    +0.057 N 
ATOM     16  O   UNL     1       1.950  -6.723   2.936  0.00  0.00    -0.126 OA
ATOM     17  O   UNL     1       2.488  -8.341   1.722  0.00  0.00    -0.126 OA
ENDBRANCH  12  15
ENDBRANCH   6   8
BRANCH   5  18
ATOM     18  C   UNL     1       1.297  -0.600  -1.193  0.00  0.00    +0.108 C 
BRANCH  18  20
ATOM     19  C   UNL     1       1.170   1.645  -0.104  0.00  0.00    +0.005 C 
ATOM     20  C   UNL     1       0.847   0.158   0.058  0.00  0.00    +0.016 C 
ENDBRANCH  18  20
ENDBRANCH   5  18
ENDBRANCH   4   5
ENDBRANCH   1   4
BRANCH   3  21
ATOM     21  C   UNL     1      -1.529  -3.701  -4.831  0.00  0.00    +0.113 C 
BRANCH  21  22
ATOM     22  C   UNL     1      -0.996  -5.122  -5.027  0.00  0.00    +0.056 C 
BRANCH  22  23
ATOM     23  C   UNL     1      -1.022  -5.471  -6.492  0.00  0.00    -0.021 A 
ATOM     24  C   UNL     1      -1.999  -6.125  -7.140  0.00  0.00    +0.087 A 
ATOM     25  N   UNL     1      -1.674  -6.260  -8.462  0.00  0.00    -0.360 N 
ATOM     26  H   UNL     1      -2.225  -6.698  -9.130  0.00  0.00    +0.165 HD
ATOM     27  C   UNL     1      -0.448  -5.681  -8.704  0.00  0.00    +0.047 A 
ATOM     28  C   UNL     1       0.011  -5.156  -7.482  0.00  0.00    +0.003 A 
ATOM     29  C   UNL     1       1.241  -4.498  -7.425  0.00  0.00    +0.010 A 
ATOM     30  C   UNL     1       1.992  -4.364  -8.559  0.00  0.00    +0.001 A 
ATOM     31  C   UNL     1       1.541  -4.877  -9.767  0.00  0.00    +0.002 A 
ATOM     32  C   UNL     1       0.335  -5.538  -9.844  0.00  0.00    +0.026 A 
ENDBRANCH  22  23
ENDBRANCH  21  22
ENDBRANCH   3  21
BRANCH   3  33
ATOM     33  C   UNL     1      -2.666  -3.651  -2.563  0.00  0.00    +0.143 C 
BRANCH  33  34
ATOM     34  C   UNL     1      -3.671  -2.535  -2.693  0.00  0.00    -0.030 A 
ATOM     35  C   UNL     1      -3.563  -1.412  -1.895  0.00  0.00    +0.005 A 
ATOM     36  C   UNL     1      -4.485  -0.389  -2.014  0.00  0.00    +0.000 A 
ATOM     37  C   UNL     1      -5.514  -0.488  -2.932  0.00  0.00    +0.000 A 
ATOM     38  C   UNL     1      -5.621  -1.611  -3.731  0.00  0.00    +0.000 A 
ATOM     39  C   UNL     1      -4.697  -2.633  -3.615  0.00  0.00    +0.005 A 
ENDBRANCH  33  34
ENDBRANCH   3  33
TORSDOF 11
