REMARK  Name = ZINC45820606
REMARK  10 active torsions:
REMARK  status: ('A' for Active; 'I' for Inactive)
REMARK    1  A    between atoms: C_1  and  C_2
REMARK    2  A    between atoms: C_2  and  C_30
REMARK    3  A    between atoms: N_5  and  C_9
REMARK    4  A    between atoms: C_9  and  C_10
REMARK    5  A    between atoms: N_12  and  C_13
REMARK    6  A    between atoms: C_13  and  C_14
REMARK    7  A    between atoms: C_14  and  C_16
REMARK    8  A    between atoms: C_14  and  N_24
REMARK    9  A    between atoms: C_19  and  O_22
REMARK   10  A    between atoms: O_22  and  C_23
REMARK                            x       y       z     vdW  Elec       q    Type
REMARK                         _______ _______ _______ _____ _____    ______ ____
ROOT
ATOM      1  C   UNL     1      -1.169  -5.955   0.921  0.00  0.00    +0.231 C 
ATOM      2  O   UNL     1      -1.106  -5.073   0.091  0.00  0.00    -0.274 OA
ATOM      3  N   UNL     1      -2.366  -6.346   1.400  0.00  0.00    -0.315 N 
ATOM      4  H   UNL     1      -2.416  -7.051   2.064  0.00  0.00    +0.149 HD
ENDROOT
BRANCH   1   5
ATOM      5  C   UNL     1       0.093  -6.613   1.417  0.00  0.00    +0.213 C 
BRANCH   5  10
ATOM      6  C   UNL     1       4.404  -4.832   0.867  0.00  0.00    +0.047 C 
ATOM      7  C   UNL     1       3.031  -4.689   0.208  0.00  0.00    +0.135 C 
ATOM      8  C   UNL     1       1.927  -4.947   1.215  0.00  0.00    +0.251 C 
ATOM      9  O   UNL     1       1.699  -4.322   2.228  0.00  0.00    -0.272 OA
ATOM     10  N   UNL     1       1.251  -6.016   0.748  0.00  0.00    -0.215 N 
ATOM     11  C   UNL     1       1.769  -6.464  -0.402  0.00  0.00    +0.310 C 
ATOM     12  O   UNL     1       1.330  -7.417  -1.014  0.00  0.00    -0.252 OA
ATOM     13  N   UNL     1       2.830  -5.740  -0.804  0.00  0.00    -0.281 N 
ATOM     14  H   UNL     1       3.359  -5.883  -1.604  0.00  0.00    +0.152 HD
BRANCH   7  15
ATOM     15  C   UNL     1       2.880  -3.323  -0.410  0.00  0.00    -0.015 A 
ATOM     16  C   UNL     1       2.353  -2.283   0.333  0.00  0.00    +0.009 A 
ATOM     17  C   UNL     1       2.215  -1.030  -0.232  0.00  0.00    +0.039 A 
ATOM     18  C   UNL     1       2.605  -0.815  -1.543  0.00  0.00    +0.123 A 
ATOM     19  C   UNL     1       3.133  -1.857  -2.286  0.00  0.00    +0.039 A 
ATOM     20  C   UNL     1       3.275  -3.109  -1.717  0.00  0.00    +0.009 A 
ATOM     21  F   UNL     1       2.470   0.409  -2.097  0.00  0.00    -0.205 F 
ENDBRANCH   7  15
ENDBRANCH   5  10
ENDBRANCH   1   5
BRANCH   3  22
ATOM     22  C   UNL     1      -3.592  -5.705   0.918  0.00  0.00    +0.093 C 
BRANCH  22  23
ATOM     23  C   UNL     1      -4.808  -6.416   1.517  0.00  0.00    -0.020 C 
BRANCH  23  24
ATOM     24  N   UNL     1      -6.034  -5.718   1.107  0.00  0.00    +0.385 N 
ATOM     25  C   UNL     1      -6.014  -4.348   1.632  0.00  0.00    -0.078 C 
ATOM     26  C   UNL     1      -7.250  -3.591   1.140  0.00  0.00    -0.019 C 
ATOM     27  C   UNL     1      -8.510  -4.309   1.632  0.00  0.00    -0.004 C 
ATOM     28  C   UNL     1      -8.484  -5.759   1.141  0.00  0.00    -0.019 C 
ATOM     29  C   UNL     1      -7.202  -6.436   1.632  0.00  0.00    -0.078 C 
ATOM     30  H   UNL     1      -6.083  -5.690   0.100  0.00  0.00    -0.081 HD
ENDBRANCH  23  24
BRANCH  23  31
ATOM     31  C   UNL     1      -4.851  -7.839   1.023  0.00  0.00    -0.059 A 
ATOM     32  C   UNL     1      -5.345  -8.118  -0.238  0.00  0.00    +0.005 A 
ATOM     33  C   UNL     1      -5.386  -9.422  -0.693  0.00  0.00    +0.046 A 
ATOM     34  C   UNL     1      -4.930 -10.452   0.117  0.00  0.00    +0.120 A 
ATOM     35  C   UNL     1      -4.435 -10.170   1.382  0.00  0.00    +0.046 A 
ATOM     36  C   UNL     1      -4.391  -8.864   1.830  0.00  0.00    +0.005 A 
BRANCH  34  37
ATOM     37  O   UNL     1      -4.970 -11.736  -0.328  0.00  0.00    -0.495 OA
ATOM     38  C   UNL     1      -4.484 -12.745   0.559  0.00  0.00    +0.277 C 
ENDBRANCH  34  37
ENDBRANCH  23  31
ENDBRANCH  22  23
ENDBRANCH   3  22
TORSDOF 8
