REMARK  Name = ZINC09911670
REMARK  15 active torsions:
REMARK  status: ('A' for Active; 'I' for Inactive)
REMARK    1  A    between atoms: C_1  and  C_2
REMARK    2  A    between atoms: C_2  and  N_69
REMARK    3  A    between atoms: C_3  and  C_4
REMARK    4  A    between atoms: C_3  and  N_69
REMARK    5  A    between atoms: C_5  and  C_6
REMARK    6  A    between atoms: C_5  and  N_69
REMARK    7  A    between atoms: C_6  and  N_7
REMARK    8  A    between atoms: C_11  and  C_18
REMARK    9  A    between atoms: C_13  and  C_17
REMARK   10  A    between atoms: C_19  and  C_21
REMARK   11  A    between atoms: C_21  and  C_22
REMARK   12  A    between atoms: C_22  and  C_23
REMARK   13  A    between atoms: C_23  and  S_24
REMARK   14  A    between atoms: S_24  and  C_27
REMARK   15  A    between atoms: C_30  and  C_33
REMARK                            x       y       z     vdW  Elec       q    Type
REMARK                         _______ _______ _______ _____ _____    ______ ____
ROOT
ATOM      1  N   UNL     1      -1.582   2.284  -6.212  0.00  0.00    -0.252 N 
ATOM      2  C   UNL     1      -1.036   2.006  -7.454  0.00  0.00    +0.168 A 
ATOM      3  N   UNL     1       0.090   1.397  -7.741  0.00  0.00    -0.224 NA
ATOM      4  C   UNL     1       0.501   1.190  -9.011  0.00  0.00    +0.083 A 
ATOM      5  C   UNL     1       1.681   0.548  -9.454  0.00  0.00    -0.024 A 
ATOM      6  C   UNL     1       1.951   0.425 -10.791  0.00  0.00    +0.009 A 
ATOM      7  C   UNL     1       1.085   0.921 -11.755  0.00  0.00    -0.049 A 
ATOM      8  C   UNL     1      -0.079   1.554 -11.358  0.00  0.00    +0.020 A 
ATOM      9  C   UNL     1      -0.358   1.682 -10.020  0.00  0.00    +0.041 A 
ATOM     10  S   UNL     1      -1.683   2.394  -9.075  0.00  0.00    -0.052 S 
ATOM     11  C   UNL     1       1.408   0.771 -13.219  0.00  0.00    +0.044 C 
ATOM     12  C   UNL     1       2.652  -0.005  -8.443  0.00  0.00    +0.046 C 
ATOM     13  C   UNL     1      -0.935   1.906  -5.092  0.00  0.00    +0.221 C 
ATOM     14  O   UNL     1       0.126   1.323  -5.172  0.00  0.00    -0.275 OA
ENDROOT
BRANCH   1  15
ATOM     15  C   UNL     1      -2.863   2.988  -6.115  0.00  0.00    +0.097 C 
BRANCH  15  16
ATOM     16  C   UNL     1      -2.613   4.496  -6.058  0.00  0.00    -0.059 C 
BRANCH  16  17
ATOM     17  N   UNL     1      -3.915   5.194  -6.105  0.00  0.00    +0.380 N 
ATOM     18  H   UNL     1      -4.514   4.736  -6.801  0.00  0.00    -0.082 HD
BRANCH  17  20
ATOM     19  C   UNL     1      -6.003   5.653  -4.916  0.00  0.00    -0.017 C 
ATOM     20  C   UNL     1      -4.574   5.125  -4.784  0.00  0.00    -0.082 C 
ENDBRANCH  17  20
BRANCH  17  21
ATOM     21  C   UNL     1      -3.717   6.606  -6.497  0.00  0.00    -0.082 C 
ATOM     22  C   UNL     1      -3.479   6.666  -8.007  0.00  0.00    -0.017 C 
ENDBRANCH  17  21
ENDBRANCH  16  17
ENDBRANCH  15  16
ENDBRANCH   1  15
BRANCH  13  23
ATOM     23  C   UNL     1      -1.528   2.208  -3.740  0.00  0.00    +0.098 C 
BRANCH  23  24
ATOM     24  C   UNL     1      -0.601   1.676  -2.645  0.00  0.00    +0.032 C 
BRANCH  24  25
ATOM     25  C   UNL     1      -1.204   1.983  -1.273  0.00  0.00    +0.172 C 
BRANCH  25  26
ATOM     26  S   UNL     1      -0.104   1.353   0.025  0.00  0.00    -0.003 S 
ATOM     27  O   UNL     1      -0.084  -0.068   0.002  0.00  0.00    -0.169 OA
ATOM     28  O   UNL     1       1.108   2.094   0.043  0.00  0.00    -0.169 OA
BRANCH  26  29
ATOM     29  C   UNL     1      -0.906   1.766   1.538  0.00  0.00    +0.088 A 
ATOM     30  C   UNL     1      -0.639   2.974   2.155  0.00  0.00    +0.027 A 
ATOM     31  C   UNL     1      -1.272   3.301   3.340  0.00  0.00    +0.005 A 
ATOM     32  C   UNL     1      -2.164   2.415   3.913  0.00  0.00    -0.050 A 
ATOM     33  C   UNL     1      -2.428   1.205   3.300  0.00  0.00    +0.005 A 
ATOM     34  C   UNL     1      -1.799   0.880   2.112  0.00  0.00    +0.027 A 
ATOM     35  C   UNL     1      -2.850   2.769   5.208  0.00  0.00    +0.044 C 
ENDBRANCH  26  29
ENDBRANCH  25  26
ENDBRANCH  24  25
ENDBRANCH  23  24
ENDBRANCH  13  23
TORSDOF 10
