REMARK  Name = ZINC26363750
REMARK  11 active torsions:
REMARK  status: ('A' for Active; 'I' for Inactive)
REMARK    1  A    between atoms: C_1  and  C_2
REMARK    2  A    between atoms: C_2  and  O_3
REMARK    3  A    between atoms: O_3  and  C_4
REMARK    4  A    between atoms: C_11  and  C_16
REMARK    5  A    between atoms: C_16  and  N_17
REMARK    6  A    between atoms: N_17  and  C_18
REMARK    7  A    between atoms: N_17  and  C_21
REMARK    8  A    between atoms: C_18  and  C_19
REMARK    9  A    between atoms: C_19  and  O_20
REMARK   10  A    between atoms: C_21  and  C_27
REMARK   11  A    between atoms: N_31  and  C_32
REMARK                            x       y       z     vdW  Elec       q    Type
REMARK                         _______ _______ _______ _____ _____    ______ ____
ROOT
ATOM      1  N   UNL     1       1.141  -2.459   1.453  0.00  0.00    +0.393 N 
ATOM      2  H   UNL     1       1.617  -2.286   2.430  0.00  0.00    -0.080 HD
ENDROOT
BRANCH   1   3
ATOM      3  C   UNL     1       1.474  -3.824   1.024  0.00  0.00    -0.002 C 
ATOM      4  C   UNL     1       1.116  -4.810   2.139  0.00  0.00    -0.004 C 
ATOM      5  C   UNL     1       1.910  -4.464   3.400  0.00  0.00    -0.001 C 
ATOM      6  C   UNL     1       3.408  -4.554   3.100  0.00  0.00    -0.000 C 
ATOM      7  C   UNL     1       3.765  -3.569   1.986  0.00  0.00    -0.001 C 
ATOM      8  C   UNL     1       2.971  -3.915   0.725  0.00  0.00    -0.004 C 
BRANCH   3   9
ATOM      9  C   UNL     1       0.692  -4.165  -0.218  0.00  0.00    +0.141 A 
ATOM     10  N   UNL     1      -0.164  -3.392  -0.841  0.00  0.00    -0.115 NA
ATOM     11  N   UNL     1      -0.619  -4.040  -1.857  0.00  0.00    -0.023 NA
ATOM     12  N   UNL     1      -0.082  -5.209  -1.894  0.00  0.00    -0.044 NA
ATOM     13  N   UNL     1       0.732  -5.325  -0.900  0.00  0.00    -0.228 N 
BRANCH  13  14
ATOM     14  C   UNL     1       1.547  -6.498  -0.574  0.00  0.00    +0.111 C 
ATOM     15  C   UNL     1       2.464  -6.851  -1.763  0.00  0.00    +0.027 C 
ATOM     16  C   UNL     1       2.494  -8.400  -1.772  0.00  0.00    +0.002 C 
ATOM     17  C   UNL     1       1.040  -8.773  -1.394  0.00  0.00    +0.002 C 
ATOM     18  C   UNL     1       0.641  -7.720  -0.339  0.00  0.00    +0.027 C 
ENDBRANCH  13  14
ENDBRANCH   3   9
ENDBRANCH   1   3
BRANCH   1  19
ATOM     19  C   UNL     1       1.674  -1.467   0.510  0.00  0.00    -0.036 C 
BRANCH  19  27
ATOM     20  C   UNL     1       3.243   3.704   3.547  0.00  0.00    +0.121 A 
ATOM     21  C   UNL     1       2.025   4.357   3.371  0.00  0.00    +0.047 A 
ATOM     22  C   UNL     1       0.998   3.751   2.682  0.00  0.00    +0.030 A 
ATOM     23  C   UNL     1       1.172   2.476   2.155  0.00  0.00    +0.049 A 
ATOM     24  C   UNL     1       2.401   1.813   2.331  0.00  0.00    +0.002 A 
ATOM     25  C   UNL     1       3.437   2.438   3.033  0.00  0.00    +0.055 A 
ATOM     26  C   UNL     1       2.570   0.471   1.770  0.00  0.00    +0.017 A 
ATOM     27  C   UNL     1       1.532  -0.087   1.099  0.00  0.00    +0.001 A 
ATOM     28  C   UNL     1       0.320   0.620   0.950  0.00  0.00    +0.251 A 
ATOM     29  O   UNL     1      -0.600   0.100   0.343  0.00  0.00    -0.268 OA
ATOM     30  N   UNL     1       0.155   1.853   1.460  0.00  0.00    -0.322 N 
ATOM     31  H   UNL     1      -0.808   2.365   1.318  0.00  0.00    +0.169 HD
BRANCH  20  32
ATOM     32  O   UNL     1       4.246   4.317   4.231  0.00  0.00    -0.492 OA
BRANCH  32  34
ATOM     33  C   UNL     1       5.217   6.150   5.471  0.00  0.00    +0.048 C 
ATOM     34  C   UNL     1       3.980   5.626   4.737  0.00  0.00    +0.225 C 
ENDBRANCH  32  34
ENDBRANCH  20  32
ENDBRANCH  19  27
ENDBRANCH   1  19
BRANCH   1  35
ATOM     35  C   UNL     1      -0.309  -2.299   1.623  0.00  0.00    -0.049 C 
BRANCH  35  36
ATOM     36  C   UNL     1      -0.710  -2.744   3.030  0.00  0.00    +0.137 C 
BRANCH  36  37
ATOM     37  O   UNL     1       0.013  -1.978   3.996  0.00  0.00    -0.397 OA
ATOM     38  H   UNL     1      -0.144  -2.158   5.070  0.00  0.00    +0.209 HD
ENDBRANCH  36  37
ENDBRANCH  35  36
ENDBRANCH   1  35
TORSDOF 10
