REMARK  Name = ZINC40314527
REMARK  4 active torsions:
REMARK  status: ('A' for Active; 'I' for Inactive)
REMARK    1  A    between atoms: C_3  and  C_8
REMARK    2  A    between atoms: C_8  and  N_9
REMARK    3  A    between atoms: C_10  and  C_12
REMARK    4  A    between atoms: C_16  and  N_21
REMARK                            x       y       z     vdW  Elec       q    Type
REMARK                         _______ _______ _______ _____ _____    ______ ____
ROOT
ATOM      1  N   UNL     1       4.104   2.427   1.357  0.00  0.00    -0.307 N 
ATOM      2  C   UNL     1       5.245   3.104   1.596  0.00  0.00    +0.251 C 
ATOM      3  O   UNL     1       5.915   3.514   0.667  0.00  0.00    -0.270 OA
ATOM      4  H   UNL     1       3.570   2.100   2.098  0.00  0.00    +0.149 HD
ENDROOT
BRANCH   2   5
ATOM      5  C   UNL     1       5.678   3.348   2.979  0.00  0.00    +0.075 A 
ATOM      6  C   UNL     1       6.783   4.009   3.417  0.00  0.00    +0.029 A 
ATOM      7  C   UNL     1       7.024   4.136   4.797  0.00  0.00    -0.008 A 
ATOM      8  C   UNL     1       8.111   4.783   5.442  0.00  0.00    +0.031 A 
ATOM      9  C   UNL     1       8.189   4.811   6.813  0.00  0.00    +0.025 A 
ATOM     10  C   UNL     1       7.211   4.210   7.608  0.00  0.00    +0.024 A 
ATOM     11  C   UNL     1       6.151   3.579   7.014  0.00  0.00    +0.017 A 
ATOM     12  C   UNL     1       6.056   3.541   5.639  0.00  0.00    +0.020 A 
ATOM     13  S   UNL     1       4.881   2.856   4.498  0.00  0.00    -0.084 S 
BRANCH   9  14
ATOM     14  N   UNL     1       9.270   5.454   7.426  0.00  0.00    -0.358 N 
ATOM     15  H   UNL     1       9.955   5.875   6.883  0.00  0.00    +0.142 HD
ATOM     16  H   UNL     1       9.335   5.480   8.393  0.00  0.00    +0.142 HD
ENDBRANCH   9  14
ENDBRANCH   2   5
BRANCH   1  17
ATOM     17  C   UNL     1       3.672   2.184  -0.021  0.00  0.00    +0.140 C 
BRANCH  17  20
ATOM     18  C   UNL     1      -0.017   1.378   0.010  0.00  0.00    +0.002 A 
ATOM     19  C   UNL     1       1.171   2.086   0.002  0.00  0.00    +0.005 A 
ATOM     20  C   UNL     1       2.378   1.412  -0.013  0.00  0.00    -0.029 A 
ATOM     21  C   UNL     1       2.398   0.029  -0.021  0.00  0.00    +0.025 A 
ATOM     22  C   UNL     1       1.210  -0.679  -0.013  0.00  0.00    +0.041 A 
ATOM     23  C   UNL     1       0.002  -0.004   0.002  0.00  0.00    +0.020 A 
ATOM     24 CL   UNL     1       1.234  -2.415  -0.024  0.00  0.00    -0.084 Cl
ENDBRANCH  17  20
ENDBRANCH   1  17
TORSDOF 4
