REMARK  Name = ZINC34774297
REMARK  7 active torsions:
REMARK  status: ('A' for Active; 'I' for Inactive)
REMARK    1  A    between atoms: C_1  and  C_2
REMARK    2  A    between atoms: C_2  and  C_4
REMARK    3  A    between atoms: C_4  and  S_5
REMARK    4  A    between atoms: S_5  and  C_6
REMARK    5  A    between atoms: C_10  and  C_15
REMARK    6  A    between atoms: N_24  and  C_27
REMARK    7  A    between atoms: C_27  and  C_28
REMARK                            x       y       z     vdW  Elec       q    Type
REMARK                         _______ _______ _______ _____ _____    ______ ____
ROOT
ATOM      1  C   UNL     1      -1.292  -1.317  -3.890  0.00  0.00    +0.191 A 
ATOM      2  N   UNL     1      -2.320  -1.414  -4.726  0.00  0.00    -0.206 NA
ATOM      3  C   UNL     1      -2.202  -1.960  -5.924  0.00  0.00    +0.134 A 
ATOM      4  C   UNL     1      -0.939  -2.462  -6.339  0.00  0.00    +0.055 A 
ATOM      5  C   UNL     1      -0.560  -3.101  -7.596  0.00  0.00    +0.002 A 
ATOM      6  C   UNL     1       0.722  -3.501  -7.763  0.00  0.00    +0.056 A 
ATOM      7  S   UNL     1       1.504  -3.041  -6.229  0.00  0.00    -0.076 S 
ATOM      8  C   UNL     1       0.107  -2.328  -5.403  0.00  0.00    +0.115 A 
ATOM      9  N   UNL     1      -0.090  -1.765  -4.226  0.00  0.00    -0.214 NA
ATOM     10  N   UNL     1      -3.297  -2.042  -6.765  0.00  0.00    -0.318 N 
ATOM     11  C   UNL     1      -4.370  -3.017  -6.516  0.00  0.00    +0.088 C 
ATOM     12  C   UNL     1      -5.713  -2.281  -6.556  0.00  0.00    -0.059 C 
ATOM     13  N   UNL     1      -5.836  -1.556  -7.827  0.00  0.00    +0.384 N 
ATOM     14  C   UNL     1      -4.809  -0.509  -7.907  0.00  0.00    -0.059 C 
ATOM     15  C   UNL     1      -3.424  -1.154  -7.931  0.00  0.00    +0.088 C 
ATOM     16  H   UNL     1      -5.716  -2.201  -8.594  0.00  0.00    -0.081 HD
ENDROOT
BRANCH   5  17
ATOM     17  C   UNL     1      -1.561  -3.307  -8.670  0.00  0.00    -0.017 A 
ATOM     18  C   UNL     1      -2.696  -4.081  -8.429  0.00  0.00    +0.008 A 
ATOM     19  C   UNL     1      -3.624  -4.269  -9.432  0.00  0.00    +0.001 A 
ATOM     20  C   UNL     1      -3.431  -3.691 -10.675  0.00  0.00    +0.000 A 
ATOM     21  C   UNL     1      -2.308  -2.922 -10.919  0.00  0.00    +0.001 A 
ATOM     22  C   UNL     1      -1.375  -2.723  -9.922  0.00  0.00    +0.008 A 
ENDBRANCH   5  17
BRANCH   1  23
ATOM     23  S   UNL     1      -1.529  -0.576  -2.310  0.00  0.00    -0.082 S 
BRANCH  23  24
ATOM     24  C   UNL     1       0.111  -0.654  -1.538  0.00  0.00    +0.107 C 
BRANCH  24  26
ATOM     25  C   UNL     1      -0.028   1.453  -0.004  0.00  0.00    +0.039 C 
ATOM     26  C   UNL     1       0.049  -0.044  -0.162  0.00  0.00    -0.069 C 
ATOM     27  C   UNL     1       0.061  -0.815   0.897  0.00  0.00    +0.008 C 
ENDBRANCH  24  26
ENDBRANCH  23  24
ENDBRANCH   1  23
BRANCH  13  28
ATOM     28  C   UNL     1      -7.167  -0.941  -7.912  0.00  0.00    -0.043 C 
BRANCH  28  29
ATOM     29  C   UNL     1      -7.339  -0.300  -9.265  0.00  0.00    -0.064 A 
ATOM     30  C   UNL     1      -6.966   1.017  -9.459  0.00  0.00    +0.003 A 
ATOM     31  C   UNL     1      -7.124   1.604 -10.700  0.00  0.00    +0.020 A 
ATOM     32  C   UNL     1      -7.655   0.874 -11.749  0.00  0.00    +0.041 A 
ATOM     33  C   UNL     1      -8.028  -0.444 -11.554  0.00  0.00    +0.020 A 
ATOM     34  C   UNL     1      -7.865  -1.032 -10.314  0.00  0.00    +0.003 A 
ATOM     35 CL   UNL     1      -7.854   1.611 -13.308  0.00  0.00    -0.084 Cl
ENDBRANCH  28  29
ENDBRANCH  13  28
TORSDOF 6
