REMARK  Name = ZINC36024724
REMARK  11 active torsions:
REMARK  status: ('A' for Active; 'I' for Inactive)
REMARK    1  A    between atoms: C_1  and  C_2
REMARK    2  A    between atoms: C_2  and  O_3
REMARK    3  A    between atoms: O_3  and  C_4
REMARK    4  A    between atoms: C_4  and  C_6
REMARK    5  A    between atoms: C_7  and  C_24
REMARK    6  A    between atoms: N_8  and  C_21
REMARK    7  A    between atoms: C_12  and  C_14
REMARK    8  A    between atoms: C_21  and  C_22
REMARK    9  A    between atoms: C_24  and  N_25
REMARK   10  A    between atoms: N_29  and  S_32
REMARK   11  A    between atoms: S_32  and  C_35
REMARK                            x       y       z     vdW  Elec       q    Type
REMARK                         _______ _______ _______ _____ _____    ______ ____
ROOT
ATOM      1  C   UNL     1      -3.135  -2.663  -0.048  0.00  0.00    +0.080 C 
ATOM      2  C   UNL     1      -3.509  -3.960  -0.057  0.00  0.00    +0.041 C 
ATOM      3  N   UNL     1      -4.826  -4.314   0.020  0.00  0.00    -0.254 N 
ATOM      4  C   UNL     1      -5.828  -3.431   0.107  0.00  0.00    +0.307 C 
ATOM      5  O   UNL     1      -6.970  -3.843   0.170  0.00  0.00    -0.252 OA
ATOM      6  N   UNL     1      -5.613  -2.101   0.126  0.00  0.00    -0.288 N 
ATOM      7  C   UNL     1      -4.224  -1.615   0.055  0.00  0.00    +0.145 C 
ATOM      8  H   UNL     1      -6.354  -1.479   0.190  0.00  0.00    +0.151 HD
ENDROOT
BRANCH   7   9
ATOM      9  C   UNL     1      -4.115  -0.711  -1.146  0.00  0.00    -0.004 A 
ATOM     10  C   UNL     1      -4.842  -0.988  -2.288  0.00  0.00    +0.007 A 
ATOM     11  C   UNL     1      -4.742  -0.159  -3.390  0.00  0.00    +0.000 A 
ATOM     12  C   UNL     1      -3.914   0.948  -3.350  0.00  0.00    +0.001 A 
ATOM     13  C   UNL     1      -3.187   1.226  -2.208  0.00  0.00    +0.020 A 
ATOM     14  C   UNL     1      -3.291   0.399  -1.103  0.00  0.00    +0.046 A 
ATOM     15 CL   UNL     1      -2.382   0.752   0.334  0.00  0.00    -0.083 Cl
ENDBRANCH   7   9
BRANCH   1  16
ATOM     16  C   UNL     1      -1.771  -2.295  -0.127  0.00  0.00    +0.339 C 
ATOM     17  O   UNL     1      -1.298  -1.937  -1.189  0.00  0.00    -0.245 OA
BRANCH  16  18
ATOM     18  O   UNL     1      -0.995  -2.340   0.977  0.00  0.00    -0.462 OA
BRANCH  18  20
ATOM     19  C   UNL     1       1.101  -2.099   2.156  0.00  0.00    +0.048 C 
ATOM     20  C   UNL     1       0.343  -1.857   0.848  0.00  0.00    +0.229 C 
ENDBRANCH  18  20
ENDBRANCH  16  18
ENDBRANCH   1  16
BRANCH   3  21
ATOM     21  C   UNL     1      -5.160  -5.741   0.005  0.00  0.00    +0.141 C 
BRANCH  21  22
ATOM     22  C   UNL     1      -5.295  -6.239   1.421  0.00  0.00    -0.015 C 
ATOM     23  C   UNL     1      -6.395  -6.840   1.801  0.00  0.00    +0.005 C 
ENDBRANCH  21  22
ENDBRANCH   3  21
BRANCH   2  24
ATOM     24  C   UNL     1      -2.457  -5.035  -0.153  0.00  0.00    +0.136 C 
BRANCH  24  25
ATOM     25  N   UNL     1      -2.596  -5.744  -1.432  0.00  0.00    -0.296 NA
ATOM     26  C   UNL     1      -2.045  -4.969  -2.514  0.00  0.00    +0.086 C 
ATOM     27  C   UNL     1      -2.955  -5.067  -3.763  0.00  0.00    +0.032 C 
ATOM     28  C   UNL     1      -3.513  -6.507  -3.891  0.00  0.00    +0.110 C 
ATOM     29  N   UNL     1      -2.589  -7.571  -3.614  0.00  0.00    -0.180 NA
ATOM     30  C   UNL     1      -2.467  -8.078  -2.206  0.00  0.00    +0.124 C 
ATOM     31  C   UNL     1      -1.853  -7.003  -1.417  0.00  0.00    +0.102 C 
BRANCH  29  32
ATOM     32  S   UNL     1      -1.672  -8.228  -4.827  0.00  0.00    +0.029 S 
ATOM     33  O   UNL     1      -1.386  -9.550  -4.391  0.00  0.00    -0.158 OA
ATOM     34  O   UNL     1      -2.424  -8.003  -6.012  0.00  0.00    -0.158 OA
ATOM     35  C   UNL     1      -0.154  -7.236  -4.853  0.00  0.00    +0.215 C 
ENDBRANCH  29  32
ENDBRANCH  24  25
ENDBRANCH   2  24
TORSDOF 9
