REMARK  Name = ZINC11720021
REMARK  8 active torsions:
REMARK  status: ('A' for Active; 'I' for Inactive)
REMARK    1  A    between atoms: C_1  and  C_2
REMARK    2  A    between atoms: C_5  and  N_9
REMARK    3  A    between atoms: C_10  and  C_12
REMARK    4  A    between atoms: C_12  and  C_14
REMARK    5  A    between atoms: C_12  and  N_52
REMARK    6  A    between atoms: C_17  and  N_20
REMARK    7  A    between atoms: N_20  and  S_21
REMARK    8  A    between atoms: S_21  and  C_24
REMARK                            x       y       z     vdW  Elec       q    Type
REMARK                         _______ _______ _______ _____ _____    ______ ____
ROOT
ATOM      1  C   UNL     1       3.019   3.176   0.858  0.00  0.00    -0.076 C 
ATOM      2  C   UNL     1       3.955   4.370   0.657  0.00  0.00    +0.002 C 
ATOM      3  C   UNL     1       5.408   3.898   0.771  0.00  0.00    +0.073 C 
ATOM      4  C   UNL     1       5.662   2.800  -0.266  0.00  0.00    +0.002 C 
ATOM      5  C   UNL     1       4.676   1.652  -0.038  0.00  0.00    -0.076 C 
ATOM      6  N   UNL     1       3.298   2.166  -0.186  0.00  0.00    +0.387 N 
ATOM      7  H   UNL     1       3.204   2.606  -1.109  0.00  0.00    -0.081 HD
ENDROOT
BRANCH   6   8
ATOM      8  C   UNL     1       2.331   1.054  -0.083  0.00  0.00    +0.016 C 
ATOM      9  C   UNL     1       0.911   1.622  -0.146  0.00  0.00    -0.004 C 
BRANCH   8  11
ATOM     10  N   UNL     1       2.201  -1.185  -1.127  0.00  0.00    -0.286 N 
ATOM     11  C   UNL     1       2.547   0.113  -1.240  0.00  0.00    +0.203 C 
ATOM     12  O   UNL     1       3.033   0.523  -2.273  0.00  0.00    -0.277 OA
ATOM     13  H   UNL     1       1.882  -1.529  -0.278  0.00  0.00    +0.155 HD
BRANCH  10  18
ATOM     14  C   UNL     1       2.634  -4.636  -5.609  0.00  0.00    +0.044 C 
ATOM     15  C   UNL     1       2.519  -3.720  -4.419  0.00  0.00    -0.049 A 
ATOM     16  C   UNL     1       2.450  -2.352  -4.605  0.00  0.00    +0.005 A 
ATOM     17  C   UNL     1       2.344  -1.509  -3.517  0.00  0.00    +0.024 A 
ATOM     18  C   UNL     1       2.308  -2.036  -2.233  0.00  0.00    +0.047 A 
ATOM     19  C   UNL     1       2.383  -3.411  -2.048  0.00  0.00    +0.039 A 
ATOM     20  C   UNL     1       2.484  -4.249  -3.142  0.00  0.00    +0.020 A 
ATOM     21 BR   UNL     1       2.341  -4.135  -0.301  0.00  0.00    -0.048 Br
ENDBRANCH  10  18
ENDBRANCH   8  11
ENDBRANCH   6   8
BRANCH   3  22
ATOM     22  N   UNL     1       6.310   5.025   0.521  0.00  0.00    -0.187 NA
ATOM     23  H   UNL     1       6.551   5.261  -0.388  0.00  0.00    +0.148 HD
BRANCH  22  24
ATOM     24  S   UNL     1       6.917   5.896   1.792  0.00  0.00    +0.065 S 
ATOM     25  O   UNL     1       7.767   6.889   1.235  0.00  0.00    -0.153 OA
ATOM     26  O   UNL     1       5.813   6.219   2.627  0.00  0.00    -0.153 OA
BRANCH  24  27
ATOM     27  C   UNL     1       7.950   4.812   2.720  0.00  0.00    +0.142 A 
ATOM     28  C   UNL     1       9.277   4.570   2.582  0.00  0.00    +0.036 A 
ATOM     29  C   UNL     1       9.886   3.669   3.434  0.00  0.00    +0.010 A 
ATOM     30  C   UNL     1       9.140   3.053   4.383  0.00  0.00    +0.047 A 
ATOM     31  S   UNL     1       7.524   3.753   4.093  0.00  0.00    -0.077 S 
ENDBRANCH  24  27
ENDBRANCH  22  24
ENDBRANCH   3  22
TORSDOF 6
