REMARK  Name = ZINC20719779
REMARK  1 active torsions:
REMARK  status: ('A' for Active; 'I' for Inactive)
REMARK    1  A    between atoms: C_4  and  C_7
REMARK                            x       y       z     vdW  Elec       q    Type
REMARK                         _______ _______ _______ _____ _____    ______ ____
ROOT
ATOM      1  C   UNL     1       3.711  -0.707  -0.038  0.00  0.00    +0.063 C 
ATOM      2  C   UNL     1       3.791  -1.593  -1.284  0.00  0.00    +0.109 C 
ATOM      3  C   UNL     1       2.941  -2.821  -1.153  0.00  0.00    +0.219 C 
ATOM      4  O   UNL     1       2.348  -3.224  -2.132  0.00  0.00    -0.275 OA
ATOM      5  N   UNL     1       2.807  -3.498   0.007  0.00  0.00    -0.269 N 
ATOM      6  C   UNL     1       3.371  -2.936   1.163  0.00  0.00    +0.150 A 
ATOM      7  C   UNL     1       3.815  -1.591   1.179  0.00  0.00    +0.020 A 
ATOM      8  C   UNL     1       4.297  -1.328   2.401  0.00  0.00    +0.111 A 
ATOM      9  N   UNL     1       4.173  -2.453   3.143  0.00  0.00    -0.283 N 
ATOM     10  H   UNL     1       4.441  -2.556   4.070  0.00  0.00    +0.188 HD
ATOM     11  N   UNL     1       3.589  -3.447   2.337  0.00  0.00    -0.158 NA
ATOM     12  H   UNL     1       2.335  -4.345   0.041  0.00  0.00    +0.156 HD
ENDROOT
BRANCH   1  16
ATOM     13  C   UNL     1      -0.017   1.378   0.010  0.00  0.00    +0.000 A 
ATOM     14  C   UNL     1       1.171   2.086   0.002  0.00  0.00    +0.000 A 
ATOM     15  C   UNL     1       2.377   1.411  -0.013  0.00  0.00    +0.004 A 
ATOM     16  C   UNL     1       2.396   0.029  -0.020  0.00  0.00    -0.039 A 
ATOM     17  C   UNL     1       1.208  -0.679  -0.012  0.00  0.00    +0.004 A 
ATOM     18  C   UNL     1       0.002  -0.004   0.002  0.00  0.00    +0.000 A 
ENDBRANCH   1  16
TORSDOF 1
