REMARK  Name = ZINC58236874
REMARK  6 active torsions:
REMARK  status: ('A' for Active; 'I' for Inactive)
REMARK    1  A    between atoms: C_1  and  C_2
REMARK    2  A    between atoms: C_6  and  C_11
REMARK    3  A    between atoms: N_13  and  C_14
REMARK    4  A    between atoms: C_14  and  C_15
REMARK    5  A    between atoms: C_14  and  C_16
REMARK    6  A    between atoms: C_19  and  N_22
REMARK                            x       y       z     vdW  Elec       q    Type
REMARK                         _______ _______ _______ _____ _____    ______ ____
ROOT
ATOM      1  C   UNL     1      -2.342  -7.294   0.168  0.00  0.00    +0.100 C 
ATOM      2  C   UNL     1      -2.024  -7.785  -1.246  0.00  0.00    +0.033 C 
ENDROOT
BRANCH   1   3
ATOM      3  C   UNL     1      -2.533  -8.479   1.079  0.00  0.00    -0.027 A 
ATOM      4  C   UNL     1      -1.432  -9.135   1.598  0.00  0.00    +0.007 A 
ATOM      5  C   UNL     1      -1.604 -10.221   2.434  0.00  0.00    +0.023 A 
ATOM      6  C   UNL     1      -2.884 -10.653   2.754  0.00  0.00    +0.035 A 
ATOM      7  C   UNL     1      -3.988  -9.992   2.232  0.00  0.00    +0.023 A 
ATOM      8  C   UNL     1      -3.809  -8.903   1.401  0.00  0.00    +0.007 A 
BRANCH   6   9
ATOM      9  N   UNL     1      -3.062 -11.754   3.600  0.00  0.00    -0.270 N 
ATOM     10  C   UNL     1      -2.184 -11.985   4.597  0.00  0.00    +0.301 C 
ATOM     11  O   UNL     1      -1.295 -11.187   4.822  0.00  0.00    -0.253 OA
ATOM     12  N   UNL     1      -2.293 -13.102   5.344  0.00  0.00    -0.313 N 
ATOM     13  H   UNL     1      -3.816 -12.349   3.470  0.00  0.00    +0.156 HD
ATOM     14  H   UNL     1      -3.002 -13.738   5.165  0.00  0.00    +0.146 HD
ATOM     15  H   UNL     1      -1.662 -13.268   6.062  0.00  0.00    +0.146 HD
ENDBRANCH   6   9
ENDBRANCH   1   3
BRANCH   1  18
ATOM     16  C   UNL     1      -1.181  -5.160   0.356  0.00  0.00    +0.245 C 
ATOM     17  O   UNL     1      -2.053  -4.659  -0.328  0.00  0.00    -0.270 OA
ATOM     18  N   UNL     1      -1.234  -6.472   0.660  0.00  0.00    -0.305 N 
ATOM     19  H   UNL     1      -0.539  -6.872   1.206  0.00  0.00    +0.150 HD
BRANCH  16  25
ATOM     20  C   UNL     1       0.758   1.266  -0.192  0.00  0.00    +0.008 C 
ATOM     21  C   UNL     1       0.638  -0.259  -0.217  0.00  0.00    -0.009 C 
ATOM     22  C   UNL     1      -0.828  -0.660  -0.032  0.00  0.00    +0.008 C 
ATOM     23  C   UNL     1      -0.997  -2.158  -0.300  0.00  0.00    +0.037 C 
ATOM     24  C   UNL     1       0.016  -2.921   0.540  0.00  0.00    -0.025 A 
ATOM     25  C   UNL     1      -0.068  -4.334   0.851  0.00  0.00    +0.047 A 
ATOM     26  C   UNL     1       0.932  -4.875   1.627  0.00  0.00    +0.058 A 
ATOM     27  S   UNL     1       1.953  -3.580   1.943  0.00  0.00    -0.101 S 
ATOM     28  C   UNL     1       1.097  -2.303   1.068  0.00  0.00    -0.006 A 
ATOM     29  C   UNL     1       1.467  -0.859   0.928  0.00  0.00    +0.046 C 
ENDBRANCH  16  25
ENDBRANCH   1  18
TORSDOF 4
