REMARK  Name = ZINC37950361
REMARK  5 active torsions:
REMARK  status: ('A' for Active; 'I' for Inactive)
REMARK    1  A    between atoms: C_1  and  C_2
REMARK    2  A    between atoms: C_2  and  C_3
REMARK    3  A    between atoms: C_2  and  C_10
REMARK    4  A    between atoms: C_2  and  N_13
REMARK    5  A    between atoms: N_13  and  C_14
REMARK                            x       y       z     vdW  Elec       q    Type
REMARK                         _______ _______ _______ _____ _____    ______ ____
ROOT
ATOM      1  C   UNL     1      -0.115   1.532   0.216  0.00  0.00    +0.047 C 
ATOM      2  C   UNL     1       0.066   0.032  -0.023  0.00  0.00    +0.132 C 
ENDROOT
BRANCH   2   3
ATOM      3  C   UNL     1       0.852  -0.567   1.115  0.00  0.00    -0.002 A 
ATOM      4  C   UNL     1       0.258  -1.490   1.955  0.00  0.00    +0.007 A 
ATOM      5  C   UNL     1       0.978  -2.040   2.999  0.00  0.00    +0.000 A 
ATOM      6  C   UNL     1       2.294  -1.666   3.203  0.00  0.00    +0.001 A 
ATOM      7  C   UNL     1       2.889  -0.743   2.364  0.00  0.00    +0.015 A 
ATOM      8  C   UNL     1       2.169  -0.197   1.317  0.00  0.00    +0.024 A 
ATOM      9 BR   UNL     1       2.985   1.061   0.164  0.00  0.00    -0.050 Br
ENDBRANCH   2   3
BRANCH   2  10
ATOM     10  C   UNL     1      -1.285  -0.630  -0.103  0.00  0.00    +0.238 C 
ATOM     11  O   UNL     1      -2.242  -0.123   0.442  0.00  0.00    -0.273 OA
ATOM     12  N   UNL     1      -1.429  -1.786  -0.782  0.00  0.00    -0.327 N 
ATOM     13  H   UNL     1      -0.664  -2.191  -1.218  0.00  0.00    +0.145 HD
ATOM     14  H   UNL     1      -2.299  -2.212  -0.834  0.00  0.00    +0.145 HD
ENDBRANCH   2  10
BRANCH   2  15
ATOM     15  N   UNL     1       0.789  -0.179  -1.279  0.00  0.00    -0.327 N 
ATOM     16  H   UNL     1       1.633  -0.657  -1.279  0.00  0.00    +0.147 HD
BRANCH  15  17
ATOM     17  C   UNL     1       0.263   0.309  -2.479  0.00  0.00    +0.028 A 
ATOM     18  C   UNL     1      -1.015   0.852  -2.508  0.00  0.00    +0.026 A 
ATOM     19  C   UNL     1      -1.533   1.334  -3.694  0.00  0.00    +0.040 A 
ATOM     20  C   UNL     1      -0.779   1.277  -4.854  0.00  0.00    +0.124 A 
ATOM     21  C   UNL     1       0.495   0.736  -4.828  0.00  0.00    +0.040 A 
ATOM     22  C   UNL     1       1.019   0.258  -3.643  0.00  0.00    +0.026 A 
ATOM     23  F   UNL     1      -1.288   1.748  -6.013  0.00  0.00    -0.205 F 
ENDBRANCH  15  17
ENDBRANCH   2  15
TORSDOF 4
