REMARK  Name = ZINC03423334
REMARK  10 active torsions:
REMARK  status: ('A' for Active; 'I' for Inactive)
REMARK    1  A    between atoms: C_1  and  C_2
REMARK    2  A    between atoms: C_2  and  C_3
REMARK    3  A    between atoms: C_12  and  C_13
REMARK    4  A    between atoms: C_13  and  C_15
REMARK    5  A    between atoms: C_15  and  O_16
REMARK    6  A    between atoms: O_16  and  C_17
REMARK    7  A    between atoms: C_17  and  C_19
REMARK    8  A    between atoms: C_20  and  C_21
REMARK    9  A    between atoms: C_24  and  S_27
REMARK   10  A    between atoms: S_27  and  N_30
REMARK                            x       y       z     vdW  Elec       q    Type
REMARK                         _______ _______ _______ _____ _____    ______ ____
ROOT
ATOM      1  C   UNL     1      -0.784   1.620   3.616  0.00  0.00    +0.092 C 
ATOM      2  C   UNL     1      -0.255   1.258   4.803  0.00  0.00    +0.015 C 
ENDROOT
BRANCH   2   3
ATOM      3  C   UNL     1      -0.891   1.696   6.056  0.00  0.00    -0.025 A 
ATOM      4  C   UNL     1      -2.040   2.493   6.020  0.00  0.00    +0.010 A 
ATOM      5  C   UNL     1      -2.632   2.896   7.199  0.00  0.00    +0.029 A 
ATOM      6  C   UNL     1      -2.087   2.522   8.414  0.00  0.00    +0.109 A 
ATOM      7  C   UNL     1      -0.947   1.738   8.458  0.00  0.00    +0.029 A 
ATOM      8  C   UNL     1      -0.346   1.323   7.289  0.00  0.00    +0.010 A 
BRANCH   6   9
ATOM      9  S   UNL     1      -2.848   3.047   9.915  0.00  0.00    +0.075 S 
ATOM     10  O   UNL     1      -4.209   3.314   9.608  0.00  0.00    -0.150 OA
ATOM     11  O   UNL     1      -2.461   2.114  10.914  0.00  0.00    -0.150 OA
BRANCH   9  12
ATOM     12  N   UNL     1      -2.163   4.496  10.329  0.00  0.00    -0.202 N 
ATOM     13  C   UNL     1      -2.659   5.810   9.910  0.00  0.00    +0.136 C 
ATOM     14  C   UNL     1      -1.696   6.826  10.545  0.00  0.00    +0.058 C 
ATOM     15  C   UNL     1      -0.695   5.980  11.301  0.00  0.00    -0.023 A 
ATOM     16  C   UNL     1      -1.033   4.646  11.135  0.00  0.00    +0.054 A 
ATOM     17  C   UNL     1      -0.242   3.667  11.741  0.00  0.00    +0.025 A 
ATOM     18  C   UNL     1       0.850   4.027  12.501  0.00  0.00    +0.002 A 
ATOM     19  C   UNL     1       1.174   5.361  12.665  0.00  0.00    +0.000 A 
ATOM     20  C   UNL     1       0.400   6.336  12.063  0.00  0.00    +0.005 A 
ENDBRANCH   9  12
ENDBRANCH   6   9
ENDBRANCH   2   3
BRANCH   1  21
ATOM     21  C   UNL     1      -0.153   1.185   2.371  0.00  0.00    +0.332 C 
ATOM     22  O   UNL     1       0.849   0.496   2.406  0.00  0.00    -0.246 OA
BRANCH  21  23
ATOM     23  O   UNL     1      -0.682   1.547   1.184  0.00  0.00    -0.453 OA
BRANCH  23  24
ATOM     24  C   UNL     1      -0.013   1.086   0.008  0.00  0.00    +0.311 C 
BRANCH  24  25
ATOM     25  C   UNL     1      -0.742   1.585  -1.213  0.00  0.00    +0.202 C 
ATOM     26  O   UNL     1      -1.737   2.269  -1.088  0.00  0.00    -0.288 OA
BRANCH  25  36
ATOM     27  C   UNL     1      -0.343   1.303  -6.128  0.00  0.00    -0.024 A 
ATOM     28  C   UNL     1      -1.444   2.058  -6.471  0.00  0.00    +0.005 A 
ATOM     29  C   UNL     1      -2.252   2.616  -5.492  0.00  0.00    +0.001 A 
ATOM     30  C   UNL     1      -1.963   2.421  -4.159  0.00  0.00    +0.011 A 
ATOM     31  C   UNL     1      -0.859   1.655  -3.798  0.00  0.00    +0.011 A 
ATOM     32  C   UNL     1      -0.036   1.095  -4.787  0.00  0.00    +0.050 A 
ATOM     33  N   UNL     1       0.974   0.402  -4.149  0.00  0.00    -0.360 N 
ATOM     34  H   UNL     1       1.680  -0.084  -4.602  0.00  0.00    +0.165 HD
ATOM     35  C   UNL     1       0.843   0.494  -2.812  0.00  0.00    +0.095 A 
ATOM     36  C   UNL     1      -0.265   1.256  -2.506  0.00  0.00    +0.046 A 
BRANCH  27  38
ATOM     37  C   UNL     1       0.080  -0.734  -7.476  0.00  0.00    +0.009 C 
ATOM     38  C   UNL     1       0.525   0.704  -7.203  0.00  0.00    +0.034 C 
ENDBRANCH  27  38
ENDBRANCH  25  36
ENDBRANCH  24  25
ENDBRANCH  23  24
ENDBRANCH  21  23
ENDBRANCH   1  21
TORSDOF 9
