REMARK  Name = ZINC35384200
REMARK  11 active torsions:
REMARK  status: ('A' for Active; 'I' for Inactive)
REMARK    1  A    between atoms: C_1  and  C_2
REMARK    2  A    between atoms: C_3  and  C_32
REMARK    3  A    between atoms: C_4  and  C_23
REMARK    4  A    between atoms: C_9  and  S_13
REMARK    5  A    between atoms: S_13  and  C_14
REMARK    6  A    between atoms: C_14  and  C_15
REMARK    7  A    between atoms: C_26  and  N_29
REMARK    8  A    between atoms: N_29  and  C_30
REMARK    9  A    between atoms: N_29  and  C_31
REMARK   10  A    between atoms: C_32  and  O_34
REMARK   11  A    between atoms: O_34  and  C_35
REMARK                            x       y       z     vdW  Elec       q    Type
REMARK                         _______ _______ _______ _____ _____    ______ ____
ROOT
ATOM      1  C   UNL     1      -0.018   1.503   0.010  0.00  0.00    +0.061 C 
ATOM      2  C   UNL     1       0.002  -0.004   0.002  0.00  0.00    +0.017 C 
ATOM      3  C   UNL     1      -1.159  -0.678   0.004  0.00  0.00    +0.065 C 
ATOM      4  C   UNL     1      -1.210  -2.178   0.006  0.00  0.00    +0.096 C 
ATOM      5  C   UNL     1       0.117  -2.761  -0.389  0.00  0.00    +0.069 A 
ATOM      6  C   UNL     1       1.266  -1.989  -0.376  0.00  0.00    +0.135 A 
ATOM      7  N   UNL     1       2.437  -2.534  -0.727  0.00  0.00    -0.208 NA
ATOM      8  C   UNL     1       2.517  -3.798  -1.090  0.00  0.00    +0.171 A 
ATOM      9  N   UNL     1       1.415  -4.598  -1.123  0.00  0.00    -0.302 N 
ATOM     10  C   UNL     1       0.208  -4.102  -0.776  0.00  0.00    +0.258 A 
ATOM     11  O   UNL     1      -0.785  -4.812  -0.800  0.00  0.00    -0.267 OA
ATOM     12  N   UNL     1       1.202  -0.657  -0.013  0.00  0.00    -0.302 N 
ATOM     13  H   UNL     1       2.013  -0.186   0.236  0.00  0.00    +0.153 HD
ATOM     14  H   UNL     1       1.498  -5.524  -1.397  0.00  0.00    +0.171 HD
ENDROOT
BRANCH   4  15
ATOM     15  C   UNL     1      -1.570  -2.660   1.388  0.00  0.00    -0.035 A 
ATOM     16  C   UNL     1      -0.759  -2.341   2.462  0.00  0.00    +0.006 A 
ATOM     17  C   UNL     1      -1.087  -2.781   3.730  0.00  0.00    +0.023 A 
ATOM     18  C   UNL     1      -2.231  -3.544   3.925  0.00  0.00    +0.029 A 
ATOM     19  C   UNL     1      -3.043  -3.861   2.844  0.00  0.00    +0.023 A 
ATOM     20  C   UNL     1      -2.713  -3.414   1.580  0.00  0.00    +0.006 A 
BRANCH  18  21
ATOM     21  N   UNL     1      -2.564  -3.990   5.206  0.00  0.00    -0.336 N 
ATOM     22  C   UNL     1      -1.707  -3.655   6.345  0.00  0.00    +0.129 C 
ATOM     23  C   UNL     1      -3.772  -4.794   5.410  0.00  0.00    +0.129 C 
ENDBRANCH  18  21
ENDBRANCH   4  15
BRANCH   3  24
ATOM     24  C   UNL     1      -2.372   0.048   0.005  0.00  0.00    +0.337 C 
ATOM     25  O   UNL     1      -2.353   1.265   0.004  0.00  0.00    -0.245 OA
BRANCH  24  26
ATOM     26  O   UNL     1      -3.551  -0.608   0.007  0.00  0.00    -0.465 OA
ATOM     27  C   UNL     1      -4.737   0.189   0.007  0.00  0.00    +0.280 C 
ENDBRANCH  24  26
ENDBRANCH   3  24
BRANCH   8  28
ATOM     28  S   UNL     1       4.083  -4.467  -1.542  0.00  0.00    -0.083 S 
BRANCH  28  29
ATOM     29  C   UNL     1       5.228  -3.073  -1.352  0.00  0.00    +0.115 C 
BRANCH  29  30
ATOM     30  C   UNL     1       6.622  -3.515  -1.713  0.00  0.00    -0.002 A 
ATOM     31  C   UNL     1       7.455  -4.038  -0.741  0.00  0.00    +0.007 A 
ATOM     32  C   UNL     1       8.734  -4.444  -1.072  0.00  0.00    +0.000 A 
ATOM     33  C   UNL     1       9.183  -4.328  -2.374  0.00  0.00    +0.003 A 
ATOM     34  C   UNL     1       8.352  -3.806  -3.348  0.00  0.00    +0.038 A 
ATOM     35  C   UNL     1       7.069  -3.404  -3.019  0.00  0.00    +0.127 A 
ATOM     36  F   UNL     1       6.254  -2.897  -3.970  0.00  0.00    -0.205 F 
ENDBRANCH  29  30
ENDBRANCH  28  29
ENDBRANCH   8  28
TORSDOF 7
