REMARK  Name = ZINC05330617
REMARK  13 active torsions:
REMARK  status: ('A' for Active; 'I' for Inactive)
REMARK    1  A    between atoms: C_1  and  C_2
REMARK    2  A    between atoms: C_4  and  N_12
REMARK    3  A    between atoms: N_12  and  N_13
REMARK    4  A    between atoms: C_14  and  C_15
REMARK    5  A    between atoms: C_15  and  C_17
REMARK    6  A    between atoms: C_15  and  O_28
REMARK    7  A    between atoms: C_17  and  C_19
REMARK    8  A    between atoms: C_17  and  O_27
REMARK    9  A    between atoms: C_19  and  C_21
REMARK   10  A    between atoms: C_19  and  O_26
REMARK   11  A    between atoms: C_21  and  C_23
REMARK   12  A    between atoms: C_21  and  O_25
REMARK   13  A    between atoms: C_23  and  O_24
REMARK                            x       y       z     vdW  Elec       q    Type
REMARK                         _______ _______ _______ _____ _____    ______ ____
ROOT
ATOM      1  N   UNL     1      -5.298   2.038  -2.383  0.00  0.00    -0.191 NA
ATOM      2  C   UNL     1      -4.374   1.151  -2.388  0.00  0.00    +0.137 C 
ENDROOT
BRANCH   1   3
ATOM      3  N   UNL     1      -6.642   1.648  -2.316  0.00  0.00    -0.221 N 
ATOM      4  H   UNL     1      -6.872   0.707  -2.274  0.00  0.00    +0.176 HD
BRANCH   3   8
ATOM      5  C   UNL     1     -11.423   2.720  -2.165  0.00  0.00    +0.044 C 
ATOM      6  C   UNL     1      -9.976   3.133  -2.237  0.00  0.00    -0.038 A 
ATOM      7  C   UNL     1      -8.983   2.201  -2.249  0.00  0.00    +0.049 A 
ATOM      8  C   UNL     1      -7.642   2.609  -2.310  0.00  0.00    +0.139 A 
ATOM      9  N   UNL     1      -7.312   3.883  -2.368  0.00  0.00    -0.231 NA
ATOM     10  C   UNL     1      -8.244   4.843  -2.365  0.00  0.00    +0.073 A 
ATOM     11  C   UNL     1      -9.615   4.495  -2.299  0.00  0.00    +0.003 A 
ATOM     12  C   UNL     1     -10.588   5.507  -2.297  0.00  0.00    +0.010 A 
ATOM     13  C   UNL     1     -10.202   6.812  -2.359  0.00  0.00    +0.001 A 
ATOM     14  C   UNL     1      -8.854   7.156  -2.424  0.00  0.00    +0.002 A 
ATOM     15  C   UNL     1      -7.885   6.200  -2.428  0.00  0.00    +0.028 A 
ENDBRANCH   3   8
ENDBRANCH   1   3
BRANCH   2  16
ATOM     16  C   UNL     1      -2.928   1.570  -2.460  0.00  0.00    +0.188 C 
BRANCH  16  17
ATOM     17  O   UNL     1      -2.847   2.996  -2.514  0.00  0.00    -0.384 OA
ATOM     18  H   UNL     1      -3.235   3.441  -1.748  0.00  0.00    +0.210 HD
ENDBRANCH  16  17
BRANCH  16  19
ATOM     19  C   UNL     1      -2.188   1.063  -1.221  0.00  0.00    +0.179 C 
BRANCH  19  20
ATOM     20  O   UNL     1      -2.857   1.524  -0.045  0.00  0.00    -0.386 OA
ATOM     21  H   UNL     1      -2.908   2.487   0.027  0.00  0.00    +0.210 HD
ENDBRANCH  19  20
BRANCH  19  22
ATOM     22  C   UNL     1      -0.753   1.593  -1.232  0.00  0.00    +0.176 C 
BRANCH  22  23
ATOM     23  O   UNL     1      -0.084   1.132  -2.407  0.00  0.00    -0.386 OA
ATOM     24  H   UNL     1      -0.033   0.169  -2.479  0.00  0.00    +0.210 HD
ENDBRANCH  22  23
BRANCH  22  25
ATOM     25  C   UNL     1      -0.013   1.086   0.008  0.00  0.00    +0.171 C 
BRANCH  25  26
ATOM     26  O   UNL     1      -0.682   1.547   1.184  0.00  0.00    -0.387 OA
ATOM     27  H   UNL     1      -0.732   2.510   1.256  0.00  0.00    +0.210 HD
ENDBRANCH  25  26
BRANCH  25  28
ATOM     28  C   UNL     1       1.423   1.615  -0.003  0.00  0.00    +0.189 C 
BRANCH  28  29
ATOM     29  O   UNL     1       2.147   1.049   1.091  0.00  0.00    -0.392 OA
ATOM     30  H   UNL     1       3.068   1.342   1.146  0.00  0.00    +0.210 HD
ENDBRANCH  28  29
ENDBRANCH  25  28
ENDBRANCH  22  25
ENDBRANCH  19  22
ENDBRANCH  16  19
ENDBRANCH   2  16
TORSDOF 12
