REMARK  Name = ZINC20166017
REMARK  9 active torsions:
REMARK  status: ('A' for Active; 'I' for Inactive)
REMARK    1  A    between atoms: C_1  and  C_2
REMARK    2  A    between atoms: C_4  and  C_32
REMARK    3  A    between atoms: N_7  and  C_8
REMARK    4  A    between atoms: C_11  and  C_14
REMARK    5  A    between atoms: C_18  and  C_22
REMARK    6  A    between atoms: C_25  and  O_30
REMARK    7  A    between atoms: C_26  and  O_28
REMARK    8  A    between atoms: O_28  and  C_29
REMARK    9  A    between atoms: O_30  and  C_31
REMARK                            x       y       z     vdW  Elec       q    Type
REMARK                         _______ _______ _______ _____ _____    ______ ____
ROOT
ATOM      1  C   UNL     1      -4.680   9.520  -0.441  0.00  0.00    +0.044 C 
ATOM      2  C   UNL     1      -4.754   8.039  -0.173  0.00  0.00    -0.047 A 
ATOM      3  C   UNL     1      -5.986   7.402  -0.172  0.00  0.00    +0.007 A 
ATOM      4  C   UNL     1      -6.068   6.048   0.071  0.00  0.00    -0.038 A 
ATOM      5  C   UNL     1      -4.905   5.322   0.317  0.00  0.00    +0.044 A 
ATOM      6  C   UNL     1      -4.949   3.868   0.583  0.00  0.00    +0.054 A 
ATOM      7  N   UNL     1      -6.097   3.203   0.598  0.00  0.00    -0.354 N 
ATOM      8  C   UNL     1      -3.714   3.212   0.819  0.00  0.00    +0.073 A 
ATOM      9  C   UNL     1      -2.561   3.931   0.801  0.00  0.00    +0.138 A 
ATOM     10  O   UNL     1      -2.536   5.253   0.557  0.00  0.00    -0.455 OA
ATOM     11  C   UNL     1      -3.658   5.965   0.317  0.00  0.00    +0.138 A 
ATOM     12  C   UNL     1      -3.596   7.330   0.069  0.00  0.00    +0.050 A 
ATOM     13  C   UNL     1      -7.408   5.357   0.071  0.00  0.00    +0.044 C 
ATOM     14  H   UNL     1      -7.049   3.746   0.498  0.00  0.00    +0.166 HD
ENDROOT
BRANCH   7  15
ATOM     15  C   UNL     1      -6.098   1.852   0.735  0.00  0.00    +0.040 A 
ATOM     16  C   UNL     1      -5.949   1.032  -0.393  0.00  0.00    +0.026 A 
ATOM     17  C   UNL     1      -5.944  -0.324  -0.253  0.00  0.00    +0.017 A 
ATOM     18  C   UNL     1      -6.099  -0.898   1.015  0.00  0.00    +0.063 A 
ATOM     19  C   UNL     1      -6.253  -0.080   2.141  0.00  0.00    +0.017 A 
ATOM     20  C   UNL     1      -6.253   1.276   2.004  0.00  0.00    +0.026 A 
BRANCH  18  21
ATOM     21  C   UNL     1      -6.100  -2.363   1.164  0.00  0.00    +0.387 C 
ATOM     22  O   UNL     1      -6.234  -2.861   2.264  0.00  0.00    -0.241 OA
ATOM     23  O   UNL     1      -5.952  -3.150   0.080  0.00  0.00    -0.241 OA
ENDBRANCH  18  21
ENDBRANCH   7  15
BRANCH   9  24
ATOM     24  C   UNL     1      -1.286   3.233   1.053  0.00  0.00    +0.021 A 
ATOM     25  C   UNL     1      -1.279   1.858   1.304  0.00  0.00    +0.015 A 
ATOM     26  C   UNL     1      -0.087   1.209   1.544  0.00  0.00    +0.050 A 
ATOM     27  C   UNL     1       1.108   1.915   1.527  0.00  0.00    +0.162 A 
ATOM     28  C   UNL     1       1.108   3.285   1.272  0.00  0.00    +0.162 A 
ATOM     29  C   UNL     1      -0.083   3.944   1.036  0.00  0.00    +0.061 A 
BRANCH  28  30
ATOM     30  O   UNL     1       2.281   3.973   1.256  0.00  0.00    -0.491 OA
ATOM     31  C   UNL     1       2.207   5.375   0.988  0.00  0.00    +0.277 C 
ENDBRANCH  28  30
BRANCH  27  32
ATOM     32  O   UNL     1       2.280   1.268   1.759  0.00  0.00    -0.491 OA
ATOM     33  C   UNL     1       2.207  -0.136   2.013  0.00  0.00    +0.277 C 
ENDBRANCH  27  32
ENDBRANCH   9  24
TORSDOF 5
