REMARK  Name = ZINC39192059
REMARK  16 active torsions:
REMARK  status: ('A' for Active; 'I' for Inactive)
REMARK    1  A    between atoms: C_1  and  C_2
REMARK    2  A    between atoms: C_2  and  C_3
REMARK    3  A    between atoms: C_2  and  C_4
REMARK    4  A    between atoms: C_4  and  C_6
REMARK    5  A    between atoms: C_4  and  N_23
REMARK    6  A    between atoms: C_6  and  O_8
REMARK    7  A    between atoms: O_8  and  C_9
REMARK    8  A    between atoms: C_9  and  C_10
REMARK    9  A    between atoms: C_13  and  C_15
REMARK   10  A    between atoms: C_18  and  O_21
REMARK   11  A    between atoms: O_21  and  C_22
REMARK   12  A    between atoms: C_24  and  C_26
REMARK   13  A    between atoms: C_28  and  O_34
REMARK   14  A    between atoms: C_30  and  O_32
REMARK   15  A    between atoms: O_32  and  C_33
REMARK   16  A    between atoms: O_34  and  C_35
REMARK                            x       y       z     vdW  Elec       q    Type
REMARK                         _______ _______ _______ _____ _____    ______ ____
ROOT
ATOM      1  C   UNL     1      -1.433  -0.534   0.013  0.00  0.00    +0.185 C 
ENDROOT
BRANCH   1   2
ATOM      2  N   UNL     1      -2.142  -0.048  -1.174  0.00  0.00    -0.298 N 
ATOM      3  C   UNL     1      -2.727   1.166  -1.160  0.00  0.00    +0.245 C 
ATOM      4  O   UNL     1      -2.667   1.858  -0.163  0.00  0.00    -0.270 OA
ATOM      5  H   UNL     1      -2.190  -0.601  -1.970  0.00  0.00    +0.150 HD
BRANCH   3   6
ATOM      6  C   UNL     1      -3.442   1.656  -2.358  0.00  0.00    +0.044 A 
ATOM      7  C   UNL     1      -3.517   0.860  -3.502  0.00  0.00    +0.059 A 
ATOM      8  C   UNL     1      -4.189   1.323  -4.622  0.00  0.00    +0.124 A 
ATOM      9  C   UNL     1      -4.785   2.575  -4.607  0.00  0.00    +0.091 A 
ATOM     10  C   UNL     1      -4.713   3.369  -3.472  0.00  0.00    +0.124 A 
ATOM     11  C   UNL     1      -4.048   2.912  -2.346  0.00  0.00    +0.059 A 
BRANCH  10  12
ATOM     12  O   UNL     1      -5.299   4.595  -3.463  0.00  0.00    -0.495 OA
ATOM     13  C   UNL     1      -5.972   5.001  -4.656  0.00  0.00    +0.277 C 
ENDBRANCH  10  12
BRANCH   8  14
ATOM     14  O   UNL     1      -4.263   0.549  -5.736  0.00  0.00    -0.495 OA
ATOM     15  C   UNL     1      -4.970   1.088  -6.855  0.00  0.00    +0.277 C 
ENDBRANCH   8  14
ENDBRANCH   3   6
ENDBRANCH   1   2
BRANCH   1  17
ATOM     16  C   UNL     1      -0.019   1.526   0.010  0.00  0.00    +0.009 C 
ATOM     17  C   UNL     1       0.002  -0.004   0.002  0.00  0.00    +0.014 C 
ATOM     18  C   UNL     1       0.742  -0.511   1.242  0.00  0.00    +0.009 C 
ENDBRANCH   1  17
BRANCH   1  19
ATOM     19  C   UNL     1      -1.413  -2.041   0.005  0.00  0.00    +0.328 C 
ATOM     20  O   UNL     1      -1.936  -2.647  -0.900  0.00  0.00    -0.249 OA
BRANCH  19  21
ATOM     21  O   UNL     1      -0.813  -2.709   1.002  0.00  0.00    -0.457 OA
BRANCH  21  22
ATOM     22  C   UNL     1      -0.832  -4.136   0.930  0.00  0.00    +0.288 C 
BRANCH  22  23
ATOM     23  C   UNL     1      -0.116  -4.709   2.126  0.00  0.00    +0.086 A 
ATOM     24  C   UNL     1       0.416  -3.880   3.062  0.00  0.00    +0.074 A 
ATOM     25  S   UNL     1       1.111  -5.071   4.201  0.00  0.00    -0.075 S 
ATOM     26  C   UNL     1       0.618  -6.540   3.308  0.00  0.00    +0.109 A 
ATOM     27  N   UNL     1      -0.011  -6.010   2.268  0.00  0.00    -0.241 NA
BRANCH  26  28
ATOM     28  C   UNL     1       0.846  -7.961   3.642  0.00  0.00    +0.007 A 
ATOM     29  C   UNL     1       0.375  -8.964   2.793  0.00  0.00    +0.014 A 
ATOM     30  C   UNL     1       0.590 -10.289   3.108  0.00  0.00    +0.046 A 
ATOM     31  C   UNL     1       1.273 -10.626   4.269  0.00  0.00    +0.120 A 
ATOM     32  C   UNL     1       1.742  -9.632   5.117  0.00  0.00    +0.046 A 
ATOM     33  C   UNL     1       1.537  -8.305   4.806  0.00  0.00    +0.014 A 
BRANCH  31  34
ATOM     34  O   UNL     1       1.482 -11.933   4.576  0.00  0.00    -0.495 OA
ATOM     35  C   UNL     1       2.192 -12.210   5.785  0.00  0.00    +0.277 C 
ENDBRANCH  31  34
ENDBRANCH  26  28
ENDBRANCH  22  23
ENDBRANCH  21  22
ENDBRANCH  19  21
ENDBRANCH   1  19
TORSDOF 11
