REMARK  Name = ZINC38918454
REMARK  11 active torsions:
REMARK  status: ('A' for Active; 'I' for Inactive)
REMARK    1  A    between atoms: C_1  and  C_2
REMARK    2  A    between atoms: C_8  and  C_14
REMARK    3  A    between atoms: C_14  and  N_15
REMARK    4  A    between atoms: N_15  and  C_16
REMARK    5  A    between atoms: C_21  and  O_22
REMARK    6  A    between atoms: O_22  and  C_23
REMARK    7  A    between atoms: C_24  and  C_26
REMARK    8  A    between atoms: C_29  and  C_32
REMARK    9  A    between atoms: C_32  and  C_33
REMARK   10  A    between atoms: C_32  and  C_34
REMARK   11  A    between atoms: C_32  and  C_35
REMARK                            x       y       z     vdW  Elec       q    Type
REMARK                         _______ _______ _______ _____ _____    ______ ____
ROOT
ATOM      1  N   UNL     1      -1.216  -1.981   6.067  0.00  0.00    -0.263 N 
ATOM      2  C   UNL     1      -0.086  -2.406   6.664  0.00  0.00    +0.251 C 
ATOM      3  O   UNL     1       0.468  -3.414   6.270  0.00  0.00    -0.270 OA
ENDROOT
BRANCH   1   4
ATOM      4  C   UNL     1      -1.896  -0.864   6.568  0.00  0.00    +0.078 A 
ATOM      5  C   UNL     1      -2.654  -0.972   7.725  0.00  0.00    +0.027 A 
ATOM      6  C   UNL     1      -3.323   0.133   8.218  0.00  0.00    +0.002 A 
ATOM      7  C   UNL     1      -3.239   1.346   7.561  0.00  0.00    +0.004 A 
ATOM      8  C   UNL     1      -2.486   1.462   6.407  0.00  0.00    +0.047 A 
ATOM      9  C   UNL     1      -1.808   0.361   5.909  0.00  0.00    +0.141 A 
BRANCH   9  10
ATOM     10  O   UNL     1      -1.062   0.474   4.778  0.00  0.00    -0.493 OA
ATOM     11  C   UNL     1      -0.930   1.782   4.217  0.00  0.00    +0.277 C 
ENDBRANCH   9  10
ENDBRANCH   1   4
BRANCH   2  12
ATOM     12  C   UNL     1       0.482  -1.646   7.797  0.00  0.00    +0.037 A 
ATOM     13  C   UNL     1       1.129  -2.316   8.837  0.00  0.00    +0.013 A 
ATOM     14  C   UNL     1       1.658  -1.601   9.892  0.00  0.00    +0.005 A 
ATOM     15  C   UNL     1       1.547  -0.222   9.921  0.00  0.00    -0.042 A 
ATOM     16  C   UNL     1       0.906   0.449   8.894  0.00  0.00    +0.005 A 
ATOM     17  C   UNL     1       0.379  -0.254   7.830  0.00  0.00    +0.013 A 
BRANCH  15  18
ATOM     18  C   UNL     1       2.126   0.553  11.076  0.00  0.00    -0.013 C 
ATOM     19  C   UNL     1       3.633   0.299  11.156  0.00  0.00    +0.015 C 
ATOM     20  C   UNL     1       1.871   2.047  10.867  0.00  0.00    +0.015 C 
ATOM     21  C   UNL     1       1.463   0.099  12.378  0.00  0.00    +0.015 C 
ENDBRANCH  15  18
ENDBRANCH   2  12
BRANCH   1  22
ATOM     22  C   UNL     1      -1.735  -2.688   4.893  0.00  0.00    +0.131 C 
BRANCH  22  30
ATOM     23  C   UNL     1      -1.870  -8.774   5.677  0.00  0.00    +0.045 C 
ATOM     24  C   UNL     1      -2.568  -7.880   4.684  0.00  0.00    -0.029 A 
ATOM     25  C   UNL     1      -3.134  -8.420   3.573  0.00  0.00    +0.005 A 
ATOM     26  C   UNL     1      -3.794  -7.650   2.615  0.00  0.00    +0.001 A 
ATOM     27  C   UNL     1      -3.907  -6.303   2.745  0.00  0.00    +0.009 A 
ATOM     28  C   UNL     1      -3.320  -5.656   3.919  0.00  0.00    -0.007 A 
ATOM     29  C   UNL     1      -3.409  -4.307   4.092  0.00  0.00    -0.003 C 
ATOM     30  C   UNL     1      -2.771  -3.722   5.337  0.00  0.00    +0.116 C 
ATOM     31  C   UNL     1      -2.090  -4.683   6.286  0.00  0.00    +0.226 C 
ATOM     32  O   UNL     1      -1.562  -4.268   7.300  0.00  0.00    -0.275 OA
ATOM     33  N   UNL     1      -2.069  -5.975   6.008  0.00  0.00    -0.284 N 
ATOM     34  C   UNL     1      -2.633  -6.494   4.917  0.00  0.00    +0.043 A 
ATOM     35  H   UNL     1      -1.627  -6.574   6.629  0.00  0.00    +0.155 HD
ENDBRANCH  22  30
ENDBRANCH   1  22
TORSDOF 6
