REMARK  Name = ZINC59369632
REMARK  5 active torsions:
REMARK  status: ('A' for Active; 'I' for Inactive)
REMARK    1  A    between atoms: C_4  and  O_24
REMARK    2  A    between atoms: C_5  and  C_7
REMARK    3  A    between atoms: C_7  and  N_9
REMARK    4  A    between atoms: C_7  and  S_18
REMARK    5  A    between atoms: S_18  and  C_19
REMARK                            x       y       z     vdW  Elec       q    Type
REMARK                         _______ _______ _______ _____ _____    ______ ____
ROOT
ATOM      1  C   UNL     1       1.202  -2.149  -0.012  0.00  0.00    +0.171 C 
ENDROOT
BRANCH   1   2
ATOM      2  N   UNL     1       0.111  -2.909  -0.627  0.00  0.00    -0.313 N 
ATOM      3  C   UNL     1       0.385  -3.839  -1.605  0.00  0.00    +0.130 A 
ATOM      4  C   UNL     1      -0.658  -4.564  -2.199  0.00  0.00    +0.113 A 
ATOM      5  C   UNL     1      -0.357  -5.481  -3.167  0.00  0.00    +0.256 A 
ATOM      6  N   UNL     1       0.949  -5.665  -3.525  0.00  0.00    -0.273 N 
ATOM      7  C   UNL     1       1.921  -4.950  -2.931  0.00  0.00    +0.350 A 
ATOM      8  N   UNL     1       1.639  -4.051  -1.992  0.00  0.00    -0.178 NA
ATOM      9  O   UNL     1       3.082  -5.126  -3.262  0.00  0.00    -0.245 OA
ATOM     10  O   UNL     1      -1.337  -6.196  -3.760  0.00  0.00    -0.268 OA
ATOM     11  H   UNL     1      -0.805  -2.756  -0.345  0.00  0.00    +0.149 HD
ATOM     12  H   UNL     1       1.175  -6.313  -4.210  0.00  0.00    +0.173 HD
ENDBRANCH   1   2
BRANCH   1  17
ATOM     13  C   UNL     1      -0.453   1.055   1.105  0.00  0.00    +0.001 A 
ATOM     14  C   UNL     1       0.104   1.975   0.236  0.00  0.00    +0.004 A 
ATOM     15  C   UNL     1       1.017   1.563  -0.715  0.00  0.00    +0.046 A 
ATOM     16  C   UNL     1       1.375   0.226  -0.798  0.00  0.00    +0.123 A 
ATOM     17  C   UNL     1       0.816  -0.695   0.076  0.00  0.00    +0.025 A 
ATOM     18  C   UNL     1      -0.097  -0.278   1.025  0.00  0.00    +0.010 A 
BRANCH  16  19
ATOM     19  O   UNL     1       2.273  -0.182  -1.734  0.00  0.00    -0.506 OA
ATOM     20  H   UNL     1       3.196  -0.083  -1.463  0.00  0.00    +0.292 HD
ENDBRANCH  16  19
ENDBRANCH   1  17
BRANCH   1  21
ATOM     21  S   UNL     1       1.521  -2.791   1.655  0.00  0.00    -0.072 S 
BRANCH  21  22
ATOM     22  C   UNL     1       3.205  -2.369   1.959  0.00  0.00    +0.127 C 
ATOM     23  N   UNL     1       4.048  -1.834   1.122  0.00  0.00    -0.270 NA
ATOM     24  C   UNL     1       5.421  -1.561   1.506  0.00  0.00    +0.154 C 
ATOM     25  C   UNL     1       5.576  -1.543   3.051  0.00  0.00    +0.099 C 
ATOM     26  S   UNL     1       4.113  -2.577   3.482  0.00  0.00    -0.098 S 
ENDBRANCH  21  22
ENDBRANCH   1  21
TORSDOF 5
