REMARK  Name = ZINC36497960
REMARK  9 active torsions:
REMARK  status: ('A' for Active; 'I' for Inactive)
REMARK    1  A    between atoms: C_4  and  O_36
REMARK    2  A    between atoms: C_5  and  C_7
REMARK    3  A    between atoms: N_9  and  C_10
REMARK    4  A    between atoms: N_9  and  C_16
REMARK    5  A    between atoms: C_10  and  C_11
REMARK    6  A    between atoms: C_16  and  C_18
REMARK    7  A    between atoms: C_16  and  C_27
REMARK    8  A    between atoms: C_21  and  N_24
REMARK    9  A    between atoms: N_29  and  C_30
REMARK                            x       y       z     vdW  Elec       q    Type
REMARK                         _______ _______ _______ _____ _____    ______ ____
ROOT
ATOM      1  C   UNL     1      -0.249  -4.111  -1.083  0.00  0.00    +0.193 C 
ENDROOT
BRANCH   1   2
ATOM      2  C   UNL     1      -1.156  -3.385  -2.043  0.00  0.00    -0.018 A 
ATOM      3  C   UNL     1      -1.887  -2.294  -1.613  0.00  0.00    +0.008 A 
ATOM      4  C   UNL     1      -2.718  -1.628  -2.495  0.00  0.00    +0.033 A 
ATOM      5  C   UNL     1      -2.818  -2.053  -3.806  0.00  0.00    +0.126 A 
ATOM      6  C   UNL     1      -2.086  -3.144  -4.237  0.00  0.00    +0.033 A 
ATOM      7  C   UNL     1      -1.252  -3.808  -3.356  0.00  0.00    +0.008 A 
BRANCH   5   8
ATOM      8  N   UNL     1      -3.708  -1.341  -4.749  0.00  0.00    +0.056 N 
ATOM      9  O   UNL     1      -4.349  -0.387  -4.373  0.00  0.00    -0.126 OA
ATOM     10  O   UNL     1      -3.796  -1.713  -5.896  0.00  0.00    -0.126 OA
ENDBRANCH   5   8
ENDBRANCH   1   2
BRANCH   1  11
ATOM     11  C   UNL     1       0.487  -5.204  -1.815  0.00  0.00    +0.238 C 
ATOM     12  O   UNL     1       0.159  -6.362  -1.665  0.00  0.00    -0.273 OA
ATOM     13  N   UNL     1       1.510  -4.894  -2.636  0.00  0.00    -0.311 N 
ATOM     14  H   UNL     1       1.772  -3.968  -2.756  0.00  0.00    +0.149 HD
BRANCH  13  15
ATOM     15  C   UNL     1       2.225  -5.956  -3.347  0.00  0.00    +0.073 C 
ATOM     16  C   UNL     1       3.318  -6.529  -2.443  0.00  0.00    +0.022 C 
ATOM     17  C   UNL     1       4.065  -7.638  -3.186  0.00  0.00    +0.002 C 
ATOM     18  C   UNL     1       4.702  -7.064  -4.453  0.00  0.00    +0.000 C 
ATOM     19  C   UNL     1       3.609  -6.490  -5.358  0.00  0.00    +0.002 C 
ATOM     20  C   UNL     1       2.862  -5.381  -4.615  0.00  0.00    +0.022 C 
ENDBRANCH  13  15
ENDBRANCH   1  11
BRANCH   1  23
ATOM     21  C   UNL     1      -0.752  -4.427   1.280  0.00  0.00    +0.251 C 
ATOM     22  O   UNL     1      -1.242  -5.093   2.172  0.00  0.00    -0.270 OA
ATOM     23  N   UNL     1      -1.050  -4.699  -0.006  0.00  0.00    -0.275 N 
BRANCH  21  28
ATOM     24  C   UNL     1       1.029  -1.126   1.145  0.00  0.00    +0.001 A 
ATOM     25  C   UNL     1       1.898  -1.241   2.218  0.00  0.00    +0.004 A 
ATOM     26  C   UNL     1       1.910  -2.387   2.988  0.00  0.00    +0.046 A 
ATOM     27  C   UNL     1       1.049  -3.433   2.691  0.00  0.00    +0.129 A 
ATOM     28  C   UNL     1       0.168  -3.321   1.607  0.00  0.00    +0.078 A 
ATOM     29  C   UNL     1       0.167  -2.155   0.836  0.00  0.00    +0.017 A 
BRANCH  27  30
ATOM     30  O   UNL     1       1.060  -4.560   3.446  0.00  0.00    -0.506 OA
ATOM     31  H   UNL     1       0.452  -4.535   4.198  0.00  0.00    +0.292 HD
ENDBRANCH  27  30
ENDBRANCH  21  28
BRANCH  23  32
ATOM     32  C   UNL     1      -2.174  -5.582  -0.326  0.00  0.00    +0.183 C 
BRANCH  32  33
ATOM     33  C   UNL     1      -2.130  -6.795   0.566  0.00  0.00    +0.122 A 
ATOM     34  C   UNL     1      -2.815  -6.954   1.713  0.00  0.00    +0.046 A 
ATOM     35  C   UNL     1      -2.478  -8.231   2.218  0.00  0.00    +0.041 A 
ATOM     36  C   UNL     1      -1.607  -8.776   1.350  0.00  0.00    +0.195 A 
ATOM     37  O   UNL     1      -1.404  -7.904   0.348  0.00  0.00    -0.466 OA
ENDBRANCH  32  33
ENDBRANCH  23  32
ENDBRANCH   1  23
TORSDOF 9
