REMARK  Name = ZINC36559761
REMARK  14 active torsions:
REMARK  status: ('A' for Active; 'I' for Inactive)
REMARK    1  A    between atoms: C_1  and  C_2
REMARK    2  A    between atoms: C_2  and  C_3
REMARK    3  A    between atoms: C_3  and  N_4
REMARK    4  A    between atoms: N_4  and  C_5
REMARK    5  A    between atoms: C_5  and  C_7
REMARK    6  A    between atoms: C_5  and  C_16
REMARK    7  A    between atoms: C_10  and  N_13
REMARK    8  A    between atoms: N_18  and  C_19
REMARK    9  A    between atoms: C_19  and  C_20
REMARK   10  A    between atoms: C_19  and  C_21
REMARK   11  A    between atoms: C_19  and  C_22
REMARK   12  A    between atoms: C_23  and  C_25
REMARK   13  A    between atoms: C_25  and  C_33
REMARK   14  A    between atoms: C_26  and  C_27
REMARK                            x       y       z     vdW  Elec       q    Type
REMARK                         _______ _______ _______ _____ _____    ______ ____
ROOT
ATOM      1  N   UNL     1       0.403  -2.563  -0.687  0.00  0.00    -0.282 N 
ATOM      2  C   UNL     1       1.420  -3.296  -1.182  0.00  0.00    +0.248 C 
ATOM      3  O   UNL     1       2.568  -2.920  -1.036  0.00  0.00    -0.270 OA
ENDROOT
BRANCH   2   4
ATOM      4  C   UNL     1       1.142  -4.550  -1.901  0.00  0.00    +0.045 C 
ATOM      5  C   UNL     1       1.764  -5.700  -1.527  0.00  0.00    +0.021 C 
BRANCH   5   6
ATOM      6  C   UNL     1       1.604  -6.918  -2.333  0.00  0.00    -0.024 A 
ATOM      7  C   UNL     1       1.458  -6.827  -3.722  0.00  0.00    +0.008 A 
ATOM      8  C   UNL     1       1.309  -7.975  -4.471  0.00  0.00    +0.001 A 
ATOM      9  C   UNL     1       1.303  -9.214  -3.854  0.00  0.00    +0.000 A 
ATOM     10  C   UNL     1       1.446  -9.312  -2.481  0.00  0.00    +0.001 A 
ATOM     11  C   UNL     1       1.603  -8.174  -1.717  0.00  0.00    +0.008 A 
ENDBRANCH   5   6
BRANCH   4  12
ATOM     12  C   UNL     1       0.186  -4.559  -3.031  0.00  0.00    -0.013 A 
ATOM     13  C   UNL     1       0.369  -3.696  -4.112  0.00  0.00    +0.008 A 
ATOM     14  C   UNL     1      -0.525  -3.710  -5.162  0.00  0.00    +0.001 A 
ATOM     15  C   UNL     1      -1.603  -4.577  -5.145  0.00  0.00    +0.000 A 
ATOM     16  C   UNL     1      -1.791  -5.435  -4.076  0.00  0.00    +0.001 A 
ATOM     17  C   UNL     1      -0.900  -5.436  -3.023  0.00  0.00    +0.008 A 
ENDBRANCH   4  12
ENDBRANCH   2   4
BRANCH   1  18
ATOM     18  C   UNL     1       0.671  -1.266  -0.061  0.00  0.00    +0.109 C 
BRANCH  18  20
ATOM     19  C   UNL     1       1.177  -0.111   2.096  0.00  0.00    +0.005 C 
ATOM     20  C   UNL     1       0.986  -1.471   1.422  0.00  0.00    +0.016 C 
ENDBRANCH  18  20
ENDBRANCH   1  18
BRANCH   1  21
ATOM     21  C   UNL     1      -0.971  -3.065  -0.774  0.00  0.00    +0.192 C 
BRANCH  21  22
ATOM     22  C   UNL     1      -1.544  -3.205   0.613  0.00  0.00    -0.018 A 
ATOM     23  C   UNL     1      -1.747  -2.082   1.393  0.00  0.00    +0.008 A 
ATOM     24  C   UNL     1      -2.272  -2.210   2.666  0.00  0.00    +0.033 A 
ATOM     25  C   UNL     1      -2.595  -3.461   3.157  0.00  0.00    +0.126 A 
ATOM     26  C   UNL     1      -2.392  -4.584   2.377  0.00  0.00    +0.033 A 
ATOM     27  C   UNL     1      -1.871  -4.455   1.103  0.00  0.00    +0.008 A 
BRANCH  25  28
ATOM     28  N   UNL     1      -3.156  -3.599   4.520  0.00  0.00    +0.056 N 
ATOM     29  O   UNL     1      -3.333  -2.617   5.203  0.00  0.00    -0.126 OA
ATOM     30  O   UNL     1      -3.438  -4.693   4.950  0.00  0.00    -0.126 OA
ENDBRANCH  25  28
ENDBRANCH  21  22
BRANCH  21  31
ATOM     31  C   UNL     1      -1.810  -2.097  -1.568  0.00  0.00    +0.238 C 
ATOM     32  O   UNL     1      -1.309  -1.088  -2.017  0.00  0.00    -0.273 OA
ATOM     33  N   UNL     1      -3.116  -2.353  -1.780  0.00  0.00    -0.309 N 
ATOM     34  H   UNL     1      -3.516  -3.160  -1.420  0.00  0.00    +0.149 HD
BRANCH  33  35
ATOM     35  C   UNL     1      -3.931  -1.412  -2.552  0.00  0.00    +0.026 C 
ATOM     36  C   UNL     1      -3.349  -1.270  -3.960  0.00  0.00    +0.031 C 
ATOM     37  C   UNL     1      -5.366  -1.935  -2.643  0.00  0.00    +0.031 C 
ATOM     38  C   UNL     1      -3.929  -0.048  -1.859  0.00  0.00    +0.031 C 
ENDBRANCH  33  35
ENDBRANCH  21  31
ENDBRANCH   1  21
TORSDOF 10
