REMARK  Name = ZINC16502693
REMARK  11 active torsions:
REMARK  status: ('A' for Active; 'I' for Inactive)
REMARK    1  A    between atoms: C_1  and  C_2
REMARK    2  A    between atoms: C_5  and  N_9
REMARK    3  A    between atoms: C_10  and  C_34
REMARK    4  A    between atoms: C_11  and  C_27
REMARK    5  A    between atoms: C_12  and  C_17
REMARK    6  A    between atoms: C_21  and  N_23
REMARK    7  A    between atoms: C_27  and  O_29
REMARK    8  A    between atoms: O_29  and  C_30
REMARK    9  A    between atoms: C_30  and  C_31
REMARK   10  A    between atoms: C_31  and  O_32
REMARK   11  A    between atoms: O_32  and  C_33
REMARK                            x       y       z     vdW  Elec       q    Type
REMARK                         _______ _______ _______ _____ _____    ______ ____
ROOT
ATOM      1  N   UNL     1      -1.047   2.649   5.652  0.00  0.00    -0.255 N 
ATOM      2  C   UNL     1      -0.506   1.781   4.746  0.00  0.00    +0.027 C 
ATOM      3  C   UNL     1      -0.997   1.688   3.491  0.00  0.00    +0.078 C 
ATOM      4  C   UNL     1      -2.163   2.583   3.122  0.00  0.00    +0.141 C 
ATOM      5  N   UNL     1      -2.675   3.479   4.173  0.00  0.00    -0.315 N 
ATOM      6  C   UNL     1      -2.079   3.457   5.381  0.00  0.00    +0.142 C 
ATOM      7  S   UNL     1      -2.661   4.498   6.609  0.00  0.00    -0.018 S 
ATOM      8  C   UNL     1       0.657   0.914   5.154  0.00  0.00    +0.062 C 
ATOM      9  H   UNL     1      -3.421   4.074   3.997  0.00  0.00    +0.149 HD
ENDROOT
BRANCH   1  14
ATOM     10  C   UNL     1       1.204   2.834  10.859  0.00  0.00    +0.047 C 
ATOM     11  C   UNL     1       0.607   2.785   9.477  0.00  0.00    -0.015 A 
ATOM     12  C   UNL     1      -0.508   2.004   9.234  0.00  0.00    +0.008 A 
ATOM     13  C   UNL     1      -1.061   1.961   7.969  0.00  0.00    +0.024 A 
ATOM     14  C   UNL     1      -0.491   2.695   6.937  0.00  0.00    +0.043 A 
ATOM     15  C   UNL     1       0.628   3.479   7.182  0.00  0.00    +0.062 A 
ATOM     16  C   UNL     1       1.175   3.523   8.452  0.00  0.00    +0.128 A 
ATOM     17  F   UNL     1       2.264   4.286   8.692  0.00  0.00    -0.205 F 
ENDBRANCH   1  14
BRANCH   4  18
ATOM     18  C   UNL     1      -1.745   3.429   1.947  0.00  0.00    -0.020 A 
ATOM     19  C   UNL     1      -0.866   4.481   2.131  0.00  0.00    +0.007 A 
ATOM     20  C   UNL     1      -0.482   5.257   1.054  0.00  0.00    +0.022 A 
ATOM     21  C   UNL     1      -0.979   4.982  -0.208  0.00  0.00    +0.071 A 
ATOM     22  C   UNL     1      -1.859   3.931  -0.391  0.00  0.00    +0.145 A 
ATOM     23  C   UNL     1      -2.237   3.151   0.686  0.00  0.00    +0.040 A 
ATOM     24 CL   UNL     1      -0.498   5.958  -1.562  0.00  0.00    -0.081 Cl
BRANCH  22  25
ATOM     25  N   UNL     1      -2.389   3.636  -1.741  0.00  0.00    +0.058 N 
ATOM     26  O   UNL     1      -3.238   2.774  -1.887  0.00  0.00    -0.126 OA
ATOM     27  O   UNL     1      -1.978   4.255  -2.706  0.00  0.00    -0.126 OA
ENDBRANCH  22  25
ENDBRANCH   4  18
BRANCH   3  28
ATOM     28  C   UNL     1      -0.438   0.791   2.552  0.00  0.00    +0.339 C 
ATOM     29  O   UNL     1      -0.950  -0.298   2.371  0.00  0.00    -0.245 OA
BRANCH  28  30
ATOM     30  O   UNL     1       0.664   1.142   1.856  0.00  0.00    -0.459 OA
BRANCH  30  31
ATOM     31  C   UNL     1       1.111   0.234   0.847  0.00  0.00    +0.260 C 
BRANCH  31  32
ATOM     32  C   UNL     1       2.423   0.744   0.248  0.00  0.00    +0.200 C 
BRANCH  32  33
ATOM     33  O   UNL     1       3.447   0.712   1.244  0.00  0.00    -0.380 OA
ATOM     34  C   UNL     1       4.691   1.270   0.818  0.00  0.00    +0.194 C 
ENDBRANCH  32  33
ENDBRANCH  31  32
ENDBRANCH  30  31
ENDBRANCH  28  30
ENDBRANCH   3  28
TORSDOF 8
