REMARK  Name = ZINC09603999
REMARK  11 active torsions:
REMARK  status: ('A' for Active; 'I' for Inactive)
REMARK    1  A    between atoms: C_1  and  N_64
REMARK    2  A    between atoms: C_2  and  N_64
REMARK    3  A    between atoms: C_3  and  C_4
REMARK    4  A    between atoms: C_3  and  N_64
REMARK    5  A    between atoms: C_4  and  N_5
REMARK    6  A    between atoms: C_16  and  C_18
REMARK    7  A    between atoms: C_21  and  S_24
REMARK    8  A    between atoms: S_24  and  N_27
REMARK    9  A    between atoms: N_27  and  C_28
REMARK   10  A    between atoms: N_27  and  C_29
REMARK   11  A    between atoms: C_29  and  C_30
REMARK                            x       y       z     vdW  Elec       q    Type
REMARK                         _______ _______ _______ _____ _____    ______ ____
ROOT
ATOM      1  N   UNL     1      -0.150  -4.008   0.719  0.00  0.00    -0.248 N 
ATOM      2  C   UNL     1       0.082  -2.685   0.384  0.00  0.00    +0.168 A 
ATOM      3  N   UNL     1       0.976  -2.188  -0.439  0.00  0.00    -0.221 NA
ATOM      4  C   UNL     1       1.091  -0.862  -0.671  0.00  0.00    +0.115 A 
ATOM      5  C   UNL     1       2.006  -0.201  -1.527  0.00  0.00    +0.150 A 
ATOM      6  C   UNL     1       1.989   1.166  -1.647  0.00  0.00    +0.040 A 
ATOM      7  C   UNL     1       1.082   1.944  -0.942  0.00  0.00    +0.004 A 
ATOM      8  C   UNL     1       0.176   1.331  -0.097  0.00  0.00    +0.017 A 
ATOM      9  C   UNL     1       0.185  -0.037   0.031  0.00  0.00    +0.044 A 
ATOM     10  S   UNL     1      -0.758  -1.218   0.965  0.00  0.00    -0.052 S 
ATOM     11  F   UNL     1       2.904  -0.923  -2.232  0.00  0.00    -0.203 F 
ATOM     12  C   UNL     1       0.599  -4.984   0.168  0.00  0.00    +0.252 C 
ATOM     13  O   UNL     1       1.402  -4.715  -0.704  0.00  0.00    -0.270 OA
ENDROOT
BRANCH  12  14
ATOM     14  C   UNL     1       0.444  -6.381   0.624  0.00  0.00    +0.037 A 
ATOM     15  C   UNL     1      -0.829  -6.938   0.757  0.00  0.00    +0.015 A 
ATOM     16  C   UNL     1      -0.966  -8.244   1.179  0.00  0.00    +0.029 A 
ATOM     17  C   UNL     1       0.154  -8.999   1.480  0.00  0.00    +0.106 A 
ATOM     18  C   UNL     1       1.418  -8.451   1.355  0.00  0.00    +0.029 A 
ATOM     19  C   UNL     1       1.570  -7.148   0.929  0.00  0.00    +0.015 A 
BRANCH  17  20
ATOM     20  S   UNL     1      -0.031 -10.664   2.025  0.00  0.00    +0.061 S 
ATOM     21  O   UNL     1      -1.288 -11.114   1.537  0.00  0.00    -0.153 OA
ATOM     22  O   UNL     1       1.187 -11.329   1.719  0.00  0.00    -0.153 OA
BRANCH  20  23
ATOM     23  N   UNL     1      -0.149 -10.629   3.676  0.00  0.00    -0.177 NA
ATOM     24  C   UNL     1      -1.462 -10.504   4.314  0.00  0.00    +0.131 C 
BRANCH  23  25
ATOM     25  C   UNL     1       1.059 -10.723   4.499  0.00  0.00    +0.140 C 
BRANCH  25  26
ATOM     26  C   UNL     1       1.535  -9.317   4.869  0.00  0.00    +0.134 C 
ATOM     27  C   UNL     1       2.807  -9.405   5.735  0.00  0.00    +0.035 C 
ATOM     28  C   UNL     1       3.868  -8.612   4.934  0.00  0.00    +0.031 C 
ATOM     29  C   UNL     1       2.986  -7.727   4.016  0.00  0.00    +0.160 C 
ATOM     30  O   UNL     1       1.879  -8.589   3.678  0.00  0.00    -0.375 OA
ENDBRANCH  25  26
ENDBRANCH  23  25
ENDBRANCH  20  23
ENDBRANCH  17  20
ENDBRANCH  12  14
BRANCH   1  31
ATOM     31  C   UNL     1      -1.211  -4.348   1.670  0.00  0.00    +0.097 C 
BRANCH  31  32
ATOM     32  C   UNL     1      -2.559  -4.365   0.947  0.00  0.00    -0.060 C 
BRANCH  32  35
ATOM     33  C   UNL     1      -3.807  -3.879   2.964  0.00  0.00    -0.097 C 
ATOM     34  C   UNL     1      -4.860  -5.091   1.152  0.00  0.00    -0.097 C 
ATOM     35  N   UNL     1      -3.594  -4.860   1.879  0.00  0.00    +0.377 N 
ATOM     36  H   UNL     1      -3.278  -5.747   2.288  0.00  0.00    -0.083 HD
ENDBRANCH  32  35
ENDBRANCH  31  32
ENDBRANCH   1  31
TORSDOF 8
