REMARK  Name = ZINC05941968
REMARK  2 active torsions:
REMARK  status: ('A' for Active; 'I' for Inactive)
REMARK    1  A    between atoms: C_2  and  C_8
REMARK    2  A    between atoms: N_10  and  N_11
REMARK                            x       y       z     vdW  Elec       q    Type
REMARK                         _______ _______ _______ _____ _____    ______ ____
ROOT
ATOM      1  C   UNL     1      -0.016   1.351   0.009  0.00  0.00    +0.082 A 
ATOM      2  C   UNL     1       1.342   1.748  -0.001  0.00  0.00    +0.163 A 
ATOM      3  N   UNL     1       2.067   0.648  -0.014  0.00  0.00    -0.167 NA
ATOM      4  N   UNL     1       1.304  -0.386  -0.013  0.00  0.00    -0.269 N 
ATOM      5  H   UNL     1       1.613  -1.305  -0.020  0.00  0.00    +0.190 HD
ATOM      6  C   UNL     1       0.002  -0.004   0.002  0.00  0.00    +0.116 A 
ATOM      7 BR   UNL     1      -1.504  -1.148   0.011  0.00  0.00    -0.028 Br
ATOM      8 BR   UNL     1      -1.537   2.475   0.037  0.00  0.00    -0.045 Br
ENDROOT
BRANCH   2   9
ATOM      9  C   UNL     1       1.851   3.135   0.001  0.00  0.00    +0.279 C 
ATOM     10  O   UNL     1       1.073   4.068   0.012  0.00  0.00    -0.267 OA
ATOM     11  N   UNL     1       3.179   3.365  -0.011  0.00  0.00    -0.248 N 
ATOM     12  H   UNL     1       3.800   2.620  -0.020  0.00  0.00    +0.169 HD
BRANCH  11  13
ATOM     13  N   UNL     1       3.650   4.647  -0.009  0.00  0.00    -0.254 NA
ATOM     14  H   UNL     1       4.659   4.662  -0.018  0.00  0.00    +0.140 HD
ATOM     15  H   UNL     1       3.273   5.172  -0.784  0.00  0.00    +0.140 HD
ENDBRANCH  11  13
ENDBRANCH   2   9
TORSDOF 2
