REMARK  Name = ZINC19902679
REMARK  7 active torsions:
REMARK  status: ('A' for Active; 'I' for Inactive)
REMARK    1  A    between atoms: C_4  and  C_7
REMARK    2  A    between atoms: C_7  and  N_8
REMARK    3  A    between atoms: N_16  and  C_17
REMARK    4  A    between atoms: C_17  and  C_19
REMARK    5  A    between atoms: C_19  and  C_31
REMARK    6  A    between atoms: C_20  and  C_21
REMARK    7  A    between atoms: C_26  and  C_27
REMARK                            x       y       z     vdW  Elec       q    Type
REMARK                         _______ _______ _______ _____ _____    ______ ____
ROOT
ATOM      1  N   UNL     1       2.723   5.638  -1.058  0.00  0.00    +0.386 N 
ATOM      2  C   UNL     1       3.802   6.617  -1.253  0.00  0.00    -0.072 C 
ATOM      3  C   UNL     1       4.500   6.379  -2.595  0.00  0.00    +0.035 C 
ATOM      4  C   UNL     1       3.434   6.330  -3.683  0.00  0.00    +0.024 A 
ATOM      5  C   UNL     1       2.135   6.123  -3.336  0.00  0.00    -0.004 A 
ATOM      6  S   UNL     1       1.305   6.150  -4.900  0.00  0.00    -0.059 S 
ATOM      7  C   UNL     1       2.713   6.428  -5.882  0.00  0.00    +0.164 A 
ATOM      8  N   UNL     1       3.674   6.478  -4.981  0.00  0.00    -0.339 N 
ATOM      9  N   UNL     1       2.802   6.563  -7.261  0.00  0.00    -0.152 NA
ATOM     10  C   UNL     1       1.591   5.924  -1.963  0.00  0.00    -0.033 C 
ATOM     11  H   UNL     1       4.702   6.647  -5.334  0.00  0.00    +0.167 HD
ATOM     12  H   UNL     1       3.119   4.642  -1.301  0.00  0.00    -0.081 HD
ENDROOT
BRANCH   9  13
ATOM     13  C   UNL     1       4.000   6.776  -7.842  0.00  0.00    +0.280 C 
ATOM     14  O   UNL     1       5.003   6.851  -7.158  0.00  0.00    -0.267 OA
BRANCH  13  15
ATOM     15  C   UNL     1       4.094   6.919  -9.304  0.00  0.00    +0.116 C 
ATOM     16  C   UNL     1       5.308   7.135  -9.892  0.00  0.00    +0.032 C 
BRANCH  16  17
ATOM     17  C   UNL     1       5.386   7.426 -11.328  0.00  0.00    -0.012 A 
ATOM     18  C   UNL     1       4.356   8.135 -11.960  0.00  0.00    +0.008 A 
ATOM     19  C   UNL     1       4.440   8.408 -13.309  0.00  0.00    +0.001 A 
ATOM     20  C   UNL     1       5.532   7.973 -14.040  0.00  0.00    +0.001 A 
ATOM     21  C   UNL     1       6.552   7.267 -13.425  0.00  0.00    +0.013 A 
ATOM     22  C   UNL     1       6.487   6.990 -12.076  0.00  0.00    +0.062 A 
BRANCH  22  23
ATOM     23  C   UNL     1       7.598   6.222 -11.408  0.00  0.00    +0.418 C 
ATOM     24  F   UNL     1       8.577   5.900 -12.355  0.00  0.00    -0.166 F 
ATOM     25  F   UNL     1       8.166   7.006 -10.398  0.00  0.00    -0.166 F 
ATOM     26  F   UNL     1       7.083   5.046 -10.852  0.00  0.00    -0.166 F 
ENDBRANCH  22  23
ENDBRANCH  16  17
BRANCH  15  27
ATOM     27  C   UNL     1       2.913   6.831 -10.110  0.00  0.00    +0.104 C 
ATOM     28  N   UNL     1       1.977   6.762 -10.749  0.00  0.00    -0.191 NA
ENDBRANCH  15  27
ENDBRANCH  13  15
ENDBRANCH   9  13
BRANCH   1  29
ATOM     29  C   UNL     1       2.283   5.612   0.343  0.00  0.00    -0.043 C 
BRANCH  29  33
ATOM     30  C   UNL     1      -1.282   3.280   0.668  0.00  0.00    +0.000 A 
ATOM     31  C   UNL     1      -0.046   2.677   0.808  0.00  0.00    +0.000 A 
ATOM     32  C   UNL     1       1.108   3.431   0.702  0.00  0.00    +0.002 A 
ATOM     33  C   UNL     1       1.025   4.790   0.460  0.00  0.00    -0.064 A 
ATOM     34  C   UNL     1      -0.211   5.394   0.325  0.00  0.00    +0.002 A 
ATOM     35  C   UNL     1      -1.364   4.639   0.431  0.00  0.00    +0.000 A 
ENDBRANCH  29  33
ENDBRANCH   1  29
TORSDOF 7
