REMARK  Name = ZINC34774432
REMARK  10 active torsions:
REMARK  status: ('A' for Active; 'I' for Inactive)
REMARK    1  A    between atoms: C_1  and  C_2
REMARK    2  A    between atoms: C_2  and  C_3
REMARK    3  A    between atoms: C_2  and  C_4
REMARK    4  A    between atoms: C_4  and  S_5
REMARK    5  A    between atoms: S_5  and  C_6
REMARK    6  A    between atoms: C_10  and  C_15
REMARK    7  A    between atoms: N_24  and  C_27
REMARK    8  A    between atoms: C_27  and  C_28
REMARK    9  A    between atoms: N_30  and  C_31
REMARK   10  A    between atoms: C_31  and  C_32
REMARK                            x       y       z     vdW  Elec       q    Type
REMARK                         _______ _______ _______ _____ _____    ______ ____
ROOT
ATOM      1  C   UNL     1      -3.868  -2.556  -1.059  0.00  0.00    +0.191 A 
ATOM      2  N   UNL     1      -4.100  -3.863  -1.098  0.00  0.00    -0.206 NA
ATOM      3  C   UNL     1      -4.059  -4.616  -0.012  0.00  0.00    +0.134 A 
ATOM      4  C   UNL     1      -3.760  -4.015   1.241  0.00  0.00    +0.055 A 
ATOM      5  C   UNL     1      -3.658  -4.626   2.564  0.00  0.00    +0.002 A 
ATOM      6  C   UNL     1      -3.356  -3.840   3.623  0.00  0.00    +0.056 A 
ATOM      7  S   UNL     1      -3.189  -2.218   2.902  0.00  0.00    -0.076 S 
ATOM      8  C   UNL     1      -3.525  -2.626   1.210  0.00  0.00    +0.115 A 
ATOM      9  N   UNL     1      -3.579  -1.944   0.082  0.00  0.00    -0.215 NA
ATOM     10  N   UNL     1      -4.307  -5.974  -0.094  0.00  0.00    -0.318 N 
ATOM     11  C   UNL     1      -5.672  -6.483  -0.297  0.00  0.00    +0.088 C 
ATOM     12  C   UNL     1      -5.650  -7.479  -1.461  0.00  0.00    -0.059 C 
ATOM     13  N   UNL     1      -4.649  -8.520  -1.195  0.00  0.00    +0.387 N 
ATOM     14  C   UNL     1      -3.307  -7.925  -1.159  0.00  0.00    -0.059 C 
ATOM     15  C   UNL     1      -3.212  -6.950   0.014  0.00  0.00    +0.088 C 
ATOM     16  H   UNL     1      -4.846  -8.955  -0.307  0.00  0.00    -0.081 HD
ENDROOT
BRANCH   5  17
ATOM     17  C   UNL     1      -3.881  -6.080   2.743  0.00  0.00    -0.017 A 
ATOM     18  C   UNL     1      -5.106  -6.649   2.395  0.00  0.00    +0.008 A 
ATOM     19  C   UNL     1      -5.307  -8.003   2.563  0.00  0.00    +0.001 A 
ATOM     20  C   UNL     1      -4.297  -8.797   3.076  0.00  0.00    +0.000 A 
ATOM     21  C   UNL     1      -3.080  -8.239   3.423  0.00  0.00    +0.001 A 
ATOM     22  C   UNL     1      -2.864  -6.886   3.254  0.00  0.00    +0.008 A 
ENDBRANCH   5  17
BRANCH   1  23
ATOM     23  S   UNL     1      -3.940  -1.619  -2.549  0.00  0.00    -0.086 S 
BRANCH  23  24
ATOM     24  C   UNL     1      -3.557   0.074  -2.023  0.00  0.00    +0.080 C 
BRANCH  24  26
ATOM     25  C   UNL     1      -3.386   2.450  -2.777  0.00  0.00    +0.008 C 
ATOM     26  C   UNL     1      -3.585   1.004  -3.237  0.00  0.00    -0.007 C 
ATOM     27  C   UNL     1      -2.463   0.617  -4.203  0.00  0.00    +0.008 C 
ENDBRANCH  24  26
ENDBRANCH  23  24
ENDBRANCH   1  23
BRANCH  13  28
ATOM     28  C   UNL     1      -4.705  -9.534  -2.257  0.00  0.00    +0.019 C 
BRANCH  28  29
ATOM     29  C   UNL     1      -3.765 -10.664  -1.922  0.00  0.00    +0.197 C 
ATOM     30  O   UNL     1      -3.113 -10.627  -0.900  0.00  0.00    -0.278 OA
ATOM     31  N   UNL     1      -3.650 -11.714  -2.759  0.00  0.00    -0.313 N 
ATOM     32  H   UNL     1      -4.171 -11.742  -3.576  0.00  0.00    +0.149 HD
BRANCH  31  33
ATOM     33  C   UNL     1      -2.736 -12.812  -2.434  0.00  0.00    +0.139 C 
BRANCH  33  34
ATOM     34  C   UNL     1      -2.793 -13.852  -3.523  0.00  0.00    -0.030 A 
ATOM     35  C   UNL     1      -3.706 -14.887  -3.442  0.00  0.00    +0.005 A 
ATOM     36  C   UNL     1      -3.759 -15.842  -4.441  0.00  0.00    +0.000 A 
ATOM     37  C   UNL     1      -2.899 -15.760  -5.521  0.00  0.00    +0.000 A 
ATOM     38  C   UNL     1      -1.987 -14.724  -5.602  0.00  0.00    +0.000 A 
ATOM     39  C   UNL     1      -1.938 -13.768  -4.605  0.00  0.00    +0.005 A 
ENDBRANCH  33  34
ENDBRANCH  31  33
ENDBRANCH  28  29
ENDBRANCH  13  28
TORSDOF 8
