REMARK  Name = ZINC20232359
REMARK  8 active torsions:
REMARK  status: ('A' for Active; 'I' for Inactive)
REMARK    1  A    between atoms: C_1  and  C_2
REMARK    2  A    between atoms: C_7  and  N_8
REMARK    3  A    between atoms: N_8  and  C_9
REMARK    4  A    between atoms: N_8  and  S_27
REMARK    5  A    between atoms: C_9  and  C_10
REMARK    6  A    between atoms: C_13  and  C_16
REMARK    7  A    between atoms: N_18  and  N_19
REMARK    8  A    between atoms: S_27  and  C_30
REMARK                            x       y       z     vdW  Elec       q    Type
REMARK                         _______ _______ _______ _____ _____    ______ ____
ROOT
ATOM      1  C   UNL     1       1.360   0.262   3.159  0.00  0.00    +0.166 C 
ENDROOT
BRANCH   1   2
ATOM      2  C   UNL     1       1.974   1.528   2.620  0.00  0.00    -0.028 A 
ATOM      3  C   UNL     1       3.003   1.456   1.697  0.00  0.00    +0.006 A 
ATOM      4  C   UNL     1       3.569   2.612   1.200  0.00  0.00    +0.013 A 
ATOM      5  C   UNL     1       3.102   3.855   1.629  0.00  0.00    +0.038 A 
ATOM      6  C   UNL     1       2.064   3.921   2.560  0.00  0.00    +0.013 A 
ATOM      7  C   UNL     1       1.503   2.758   3.046  0.00  0.00    +0.006 A 
BRANCH   5   8
ATOM      8  C   UNL     1       3.705   5.097   1.100  0.00  0.00    +0.263 C 
ATOM      9  O   UNL     1       4.609   5.037   0.290  0.00  0.00    -0.268 OA
ATOM     10  N   UNL     1       3.252   6.296   1.517  0.00  0.00    -0.203 N 
ATOM     11  H   UNL     1       2.530   6.344   2.163  0.00  0.00    +0.178 HD
BRANCH  10  12
ATOM     12  N   UNL     1       3.823   7.473   1.016  0.00  0.00    -0.189 NA
ATOM     13  C   UNL     1       3.465   8.609   1.486  0.00  0.00    +0.037 C 
ATOM     14  C   UNL     1       2.527   8.684   2.687  0.00  0.00    +0.052 C 
ATOM     15  C   UNL     1       2.931   9.793   3.621  0.00  0.00    +0.006 C 
ATOM     16  C   UNL     1       2.236  11.100   3.213  0.00  0.00    +0.000 C 
ATOM     17  C   UNL     1       2.908  11.773   2.099  0.00  0.00    +0.000 C 
ATOM     18  C   UNL     1       2.888  10.944   0.807  0.00  0.00    +0.006 C 
ATOM     19  C   UNL     1       3.976   9.900   0.854  0.00  0.00    +0.052 C 
ENDBRANCH  10  12
ENDBRANCH   5   8
ENDBRANCH   1   2
BRANCH   1  20
ATOM     20  N   UNL     1       0.243  -0.142   2.301  0.00  0.00    -0.198 N 
BRANCH  20  27
ATOM     21  C   UNL     1       0.528   1.218  -0.181  0.00  0.00    +0.046 C 
ATOM     22  C   UNL     1       0.628  -0.282  -0.077  0.00  0.00    -0.028 A 
ATOM     23  C   UNL     1       0.872  -1.038  -1.208  0.00  0.00    +0.006 A 
ATOM     24  C   UNL     1       0.964  -2.414  -1.114  0.00  0.00    +0.020 A 
ATOM     25  C   UNL     1       0.814  -3.039   0.112  0.00  0.00    +0.043 A 
ATOM     26  C   UNL     1       0.570  -2.288   1.246  0.00  0.00    +0.045 A 
ATOM     27  C   UNL     1       0.483  -0.905   1.155  0.00  0.00    +0.056 A 
ATOM     28 CL   UNL     1       0.931  -4.767   0.224  0.00  0.00    -0.083 Cl
ENDBRANCH  20  27
BRANCH  20  29
ATOM     29  S   UNL     1      -1.303   0.305   2.689  0.00  0.00    +0.075 S 
ATOM     30  O   UNL     1      -1.199   1.467   3.501  0.00  0.00    -0.150 OA
ATOM     31  O   UNL     1      -2.048   0.285   1.479  0.00  0.00    -0.150 OA
BRANCH  29  32
ATOM     32  C   UNL     1      -1.971  -0.965   3.713  0.00  0.00    +0.109 A 
ATOM     33  C   UNL     1      -2.636  -2.034   3.142  0.00  0.00    +0.029 A 
ATOM     34  C   UNL     1      -3.160  -3.030   3.945  0.00  0.00    +0.002 A 
ATOM     35  C   UNL     1      -3.018  -2.957   5.318  0.00  0.00    +0.000 A 
ATOM     36  C   UNL     1      -2.352  -1.889   5.888  0.00  0.00    +0.002 A 
ATOM     37  C   UNL     1      -1.825  -0.895   5.085  0.00  0.00    +0.029 A 
ENDBRANCH  29  32
ENDBRANCH  20  29
ENDBRANCH   1  20
TORSDOF 7
