REMARK  Name = ZINC28347732
REMARK  12 active torsions:
REMARK  status: ('A' for Active; 'I' for Inactive)
REMARK    1  A    between atoms: C_1  and  C_2
REMARK    2  A    between atoms: C_2  and  C_3
REMARK    3  A    between atoms: C_3  and  C_5
REMARK    4  A    between atoms: C_3  and  C_6
REMARK    5  A    between atoms: C_6  and  C_8
REMARK    6  A    between atoms: C_6  and  N_23
REMARK    7  A    between atoms: N_10  and  N_11
REMARK    8  A    between atoms: N_11  and  C_12
REMARK    9  A    between atoms: C_12  and  N_14
REMARK   10  A    between atoms: N_14  and  C_15
REMARK   11  A    between atoms: C_17  and  C_22
REMARK   12  A    between atoms: C_20  and  C_21
REMARK                            x       y       z     vdW  Elec       q    Type
REMARK                         _______ _______ _______ _____ _____    ______ ____
ROOT
ATOM      1  C   UNL     1      -2.249  -0.410   1.813  0.00  0.00    +0.250 C 
ATOM      2  O   UNL     1      -2.236  -1.213   0.905  0.00  0.00    -0.272 OA
ATOM      3  N   UNL     1      -2.021  -0.818   3.077  0.00  0.00    -0.234 N 
ATOM      4  H   UNL     1      -2.032  -0.090   3.901  0.00  0.00    +0.173 HD
ENDROOT
BRANCH   3   5
ATOM      5  N   UNL     1      -1.770  -2.171   3.341  0.00  0.00    -0.246 N 
ATOM      6  H   UNL     1      -1.759  -2.900   2.517  0.00  0.00    +0.172 HD
BRANCH   5   7
ATOM      7  C   UNL     1      -1.542  -2.580   4.605  0.00  0.00    +0.151 C 
ATOM      8  S   UNL     1      -1.236  -4.233   4.928  0.00  0.00    -0.017 S 
BRANCH   7   9
ATOM      9  N   UNL     1      -1.556  -1.688   5.615  0.00  0.00    -0.296 N 
ATOM     10  H   UNL     1      -1.835  -0.641   5.421  0.00  0.00    +0.154 HD
BRANCH   9  11
ATOM     11  C   UNL     1      -1.216  -2.091   6.910  0.00  0.00    +0.036 A 
ATOM     12  C   UNL     1      -1.680  -3.303   7.406  0.00  0.00    +0.027 A 
ATOM     13  C   UNL     1      -1.338  -3.702   8.683  0.00  0.00    -0.049 A 
ATOM     14  C   UNL     1      -0.543  -2.891   9.473  0.00  0.00    +0.004 A 
ATOM     15  C   UNL     1      -0.084  -1.681   8.984  0.00  0.00    +0.005 A 
ATOM     16  C   UNL     1      -0.418  -1.280   7.706  0.00  0.00    -0.029 A 
ATOM     17  C   UNL     1       0.083   0.039   7.174  0.00  0.00    +0.045 C 
ATOM     18  C   UNL     1      -1.837  -5.019   9.220  0.00  0.00    +0.044 C 
ENDBRANCH   9  11
ENDBRANCH   7   9
ENDBRANCH   5   7
ENDBRANCH   3   5
BRANCH   1  19
ATOM     19  C   UNL     1      -2.519   1.046   1.529  0.00  0.00    +0.165 C 
BRANCH  19  20
ATOM     20  N   UNL     1      -3.188   1.174   0.232  0.00  0.00    -0.288 N 
ATOM     21  C   UNL     1      -2.566   0.764  -0.891  0.00  0.00    +0.298 C 
ATOM     22  O   UNL     1      -1.421   0.359  -0.838  0.00  0.00    -0.253 OA
ATOM     23  N   UNL     1      -3.213   0.803  -2.072  0.00  0.00    -0.313 N 
ATOM     24  H   UNL     1      -4.199   1.605   0.175  0.00  0.00    +0.151 HD
ATOM     25  H   UNL     1      -2.705   0.468  -2.989  0.00  0.00    +0.146 HD
ATOM     26  H   UNL     1      -4.249   1.169  -2.120  0.00  0.00    +0.146 HD
ENDBRANCH  19  20
BRANCH  19  27
ATOM     27  C   UNL     1      -1.196   1.813   1.499  0.00  0.00    +0.015 C 
ATOM     28  C   UNL     1      -1.476   3.303   1.288  0.00  0.00    +0.010 C 
BRANCH  27  30
ATOM     29  C   UNL     1       0.916   2.278   2.749  0.00  0.00    +0.004 C 
ATOM     30  C   UNL     1      -0.460   1.615   2.825  0.00  0.00    +0.002 C 
ENDBRANCH  27  30
ENDBRANCH  19  27
ENDBRANCH   1  19
TORSDOF 8
