REMARK  Name = ZINC20000140
REMARK  7 active torsions:
REMARK  status: ('A' for Active; 'I' for Inactive)
REMARK    1  A    between atoms: C_1  and  C_2
REMARK    2  A    between atoms: C_4  and  N_22
REMARK    3  A    between atoms: C_6  and  S_9
REMARK    4  A    between atoms: C_7  and  C_8
REMARK    5  A    between atoms: S_9  and  N_12
REMARK    6  A    between atoms: C_13  and  C_21
REMARK    7  A    between atoms: C_18  and  C_20
REMARK                            x       y       z     vdW  Elec       q    Type
REMARK                         _______ _______ _______ _____ _____    ______ ____
ROOT
ATOM      1  C   UNL     1       2.749  -1.275   1.610  0.00  0.00    +0.044 C 
ATOM      2  C   UNL     1       1.508  -1.064   0.781  0.00  0.00    -0.044 A 
ATOM      3  C   UNL     1       0.981  -2.110   0.049  0.00  0.00    +0.026 A 
ATOM      4  C   UNL     1      -0.162  -1.915  -0.715  0.00  0.00    +0.027 A 
ATOM      5  C   UNL     1      -0.775  -0.668  -0.735  0.00  0.00    +0.051 A 
ATOM      6  C   UNL     1      -0.240   0.375  -0.006  0.00  0.00    +0.110 A 
ATOM      7  C   UNL     1       0.899   0.177   0.754  0.00  0.00    -0.021 A 
ATOM      8  C   UNL     1       1.477   1.316   1.554  0.00  0.00    +0.046 C 
ENDROOT
BRANCH   6   9
ATOM      9  S   UNL     1      -1.013   1.958  -0.036  0.00  0.00    +0.062 S 
ATOM     10  O   UNL     1      -0.002   2.897  -0.378  0.00  0.00    -0.153 OA
ATOM     11  O   UNL     1      -2.205   1.813  -0.795  0.00  0.00    -0.153 OA
BRANCH   9  12
ATOM     12  N   UNL     1      -1.478   2.306   1.514  0.00  0.00    -0.171 NA
ATOM     13  C   UNL     1      -0.954   3.493   2.204  0.00  0.00    +0.077 C 
ATOM     14  C   UNL     1      -2.141   4.320   2.722  0.00  0.00    +0.020 C 
ATOM     15  C   UNL     1      -3.034   3.431   3.591  0.00  0.00    +0.003 C 
ATOM     16  C   UNL     1      -3.583   2.278   2.748  0.00  0.00    +0.020 C 
ATOM     17  C   UNL     1      -2.417   1.431   2.229  0.00  0.00    +0.077 C 
ATOM     18  C   UNL     1      -2.945   0.357   1.274  0.00  0.00    +0.026 C 
ATOM     19  C   UNL     1      -0.129   4.332   1.227  0.00  0.00    +0.026 C 
ENDBRANCH   9  12
ENDBRANCH   6   9
BRANCH   4  20
ATOM     20  N   UNL     1      -0.697  -2.970  -1.456  0.00  0.00    -0.358 N 
ATOM     21  H   UNL     1      -1.603  -2.814  -2.061  0.00  0.00    +0.142 HD
ATOM     22  H   UNL     1      -0.214  -3.958  -1.436  0.00  0.00    +0.142 HD
ENDBRANCH   4  20
TORSDOF 3
