REMARK  Name = ZINC09833637
REMARK  9 active torsions:
REMARK  status: ('A' for Active; 'I' for Inactive)
REMARK    1  A    between atoms: C_1  and  C_2
REMARK    2  A    between atoms: C_5  and  N_8
REMARK    3  A    between atoms: C_9  and  C_11
REMARK    4  A    between atoms: C_14  and  C_17
REMARK    5  A    between atoms: C_17  and  N_18
REMARK    6  A    between atoms: N_18  and  S_19
REMARK    7  A    between atoms: S_19  and  C_22
REMARK    8  A    between atoms: C_25  and  N_28
REMARK    9  A    between atoms: C_29  and  C_31
REMARK                            x       y       z     vdW  Elec       q    Type
REMARK                         _______ _______ _______ _____ _____    ______ ____
ROOT
ATOM      1  C   UNL     1      -6.866   5.509   6.455  0.00  0.00    +0.037 A 
ATOM      2  C   UNL     1      -5.950   4.458   6.391  0.00  0.00    +0.013 A 
ATOM      3  C   UNL     1      -5.329   4.159   5.195  0.00  0.00    +0.006 A 
ATOM      4  C   UNL     1      -5.614   4.899   4.061  0.00  0.00    -0.032 A 
ATOM      5  C   UNL     1      -6.517   5.946   4.119  0.00  0.00    +0.006 A 
ATOM      6  C   UNL     1      -7.148   6.251   5.307  0.00  0.00    +0.013 A 
ENDROOT
BRANCH   1   8
ATOM      7  N   UNL     1      -8.418   6.850   7.791  0.00  0.00    -0.308 N 
ATOM      8  C   UNL     1      -7.534   5.835   7.733  0.00  0.00    +0.244 C 
ATOM      9  O   UNL     1      -7.287   5.186   8.731  0.00  0.00    -0.270 OA
ATOM     10  H   UNL     1      -8.616   7.367   6.995  0.00  0.00    +0.149 HD
BRANCH   7  15
ATOM     11  C   UNL     1     -12.680   8.237   6.904  0.00  0.00    +0.007 C 
ATOM     12  C   UNL     1     -11.711   7.995   8.062  0.00  0.00    -0.014 C 
ATOM     13  C   UNL     1     -10.478   8.884   7.891  0.00  0.00    +0.005 C 
ATOM     14  C   UNL     1      -9.509   8.642   9.049  0.00  0.00    +0.022 C 
ATOM     15  C   UNL     1      -9.081   7.173   9.057  0.00  0.00    +0.073 C 
ATOM     16  C   UNL     1     -10.314   6.283   9.229  0.00  0.00    +0.022 C 
ATOM     17  C   UNL     1     -11.283   6.526   8.070  0.00  0.00    +0.005 C 
ENDBRANCH   7  15
ENDBRANCH   1   8
BRANCH   4  18
ATOM     18  C   UNL     1      -4.932   4.567   2.759  0.00  0.00    +0.141 C 
BRANCH  18  19
ATOM     19  N   UNL     1      -5.734   3.587   2.024  0.00  0.00    -0.186 NA
ATOM     20  H   UNL     1      -6.439   3.098   2.478  0.00  0.00    +0.148 HD
BRANCH  19  21
ATOM     21  S   UNL     1      -5.439   3.312   0.417  0.00  0.00    +0.059 S 
ATOM     22  O   UNL     1      -5.379   4.587  -0.208  0.00  0.00    -0.153 OA
ATOM     23  O   UNL     1      -6.350   2.303   0.004  0.00  0.00    -0.153 OA
BRANCH  21  24
ATOM     24  C   UNL     1      -3.826   2.615   0.296  0.00  0.00    +0.105 A 
ATOM     25  C   UNL     1      -3.662   1.243   0.350  0.00  0.00    +0.030 A 
ATOM     26  C   UNL     1      -2.398   0.693   0.255  0.00  0.00    +0.025 A 
ATOM     27  C   UNL     1      -1.292   1.520   0.104  0.00  0.00    +0.033 A 
ATOM     28  C   UNL     1      -1.460   2.897   0.056  0.00  0.00    +0.025 A 
ATOM     29  C   UNL     1      -2.727   3.441   0.146  0.00  0.00    +0.030 A 
BRANCH  27  30
ATOM     30  N   UNL     1      -0.011   0.966   0.007  0.00  0.00    -0.286 N 
ATOM     31  C   UNL     1       0.924   1.561  -0.759  0.00  0.00    +0.214 C 
ATOM     32  O   UNL     1       0.631   2.523  -1.436  0.00  0.00    -0.276 OA
ATOM     33  C   UNL     1       2.335   1.032  -0.773  0.00  0.00    +0.109 C 
ATOM     34  H   UNL     1       0.203   0.151   0.488  0.00  0.00    +0.155 HD
ENDBRANCH  27  30
ENDBRANCH  21  24
ENDBRANCH  19  21
ENDBRANCH  18  19
ENDBRANCH   4  18
TORSDOF 7
