REMARK  Name = ZINC00972605
REMARK  8 active torsions:
REMARK  status: ('A' for Active; 'I' for Inactive)
REMARK    1  A    between atoms: C_1  and  C_2
REMARK    2  A    between atoms: C_2  and  C_3
REMARK    3  A    between atoms: C_2  and  C_4
REMARK    4  A    between atoms: C_2  and  C_5
REMARK    5  A    between atoms: C_8  and  C_11
REMARK    6  A    between atoms: C_11  and  N_12
REMARK    7  A    between atoms: C_20  and  N_21
REMARK    8  A    between atoms: C_22  and  C_23
REMARK                            x       y       z     vdW  Elec       q    Type
REMARK                         _______ _______ _______ _____ _____    ______ ____
ROOT
ATOM      1  N   UNL     1       2.520  -0.898  -5.833  0.00  0.00    -0.305 N 
ATOM      2  C   UNL     1       1.488  -0.882  -6.753  0.00  0.00    +0.068 A 
ATOM      3  C   UNL     1       0.378  -1.687  -6.968  0.00  0.00    +0.028 A 
ATOM      4  C   UNL     1      -0.488  -1.397  -8.002  0.00  0.00    +0.002 A 
ATOM      5  C   UNL     1      -0.256  -0.307  -8.829  0.00  0.00    +0.002 A 
ATOM      6  C   UNL     1       0.832   0.496  -8.634  0.00  0.00    +0.028 A 
ATOM      7  C   UNL     1       1.723   0.222  -7.591  0.00  0.00    +0.066 A 
ATOM      8  N   UNL     1       2.860   0.820  -7.159  0.00  0.00    -0.324 N 
ATOM      9  C   UNL     1       3.333   0.169  -6.119  0.00  0.00    +0.210 A 
ATOM     10  H   UNL     1       3.261   1.610  -7.554  0.00  0.00    +0.169 HD
ENDROOT
BRANCH   9  11
ATOM     11  N   UNL     1       4.458   0.501  -5.434  0.00  0.00    -0.221 NA
ATOM     12  C   UNL     1       5.160   1.544  -5.795  0.00  0.00    +0.122 C 
BRANCH  12  13
ATOM     13  C   UNL     1       6.376   1.903  -5.054  0.00  0.00    -0.003 A 
ATOM     14  C   UNL     1       6.789   1.127  -3.964  0.00  0.00    +0.013 A 
ATOM     15  C   UNL     1       7.930   1.466  -3.272  0.00  0.00    +0.050 A 
ATOM     16  C   UNL     1       8.674   2.576  -3.650  0.00  0.00    +0.166 A 
ATOM     17  C   UNL     1       8.268   3.355  -4.735  0.00  0.00    +0.167 A 
ATOM     18  C   UNL     1       7.129   3.018  -5.439  0.00  0.00    +0.059 A 
ATOM     19  O   UNL     1       9.161   4.375  -4.897  0.00  0.00    -0.453 OA
ATOM     20  C   UNL     1       9.886   4.452  -3.655  0.00  0.00    +0.466 C 
ATOM     21  O   UNL     1       9.819   3.111  -3.136  0.00  0.00    -0.453 OA
ENDBRANCH  12  13
ENDBRANCH   9  11
BRANCH   1  22
ATOM     22  C   UNL     1       2.707  -1.868  -4.752  0.00  0.00    +0.160 C 
BRANCH  22  26
ATOM     23  C   UNL     1       0.707  -0.490  -1.238  0.00  0.00    -0.042 A 
ATOM     24  C   UNL     1       0.036  -1.284  -2.148  0.00  0.00    +0.004 A 
ATOM     25  C   UNL     1       0.683  -1.730  -3.286  0.00  0.00    +0.005 A 
ATOM     26  C   UNL     1       2.001  -1.381  -3.513  0.00  0.00    -0.028 A 
ATOM     27  C   UNL     1       2.672  -0.586  -2.603  0.00  0.00    +0.005 A 
ATOM     28  C   UNL     1       2.024  -0.137  -1.467  0.00  0.00    +0.004 A 
BRANCH  23  30
ATOM     29  C   UNL     1      -0.019   1.526   0.010  0.00  0.00    +0.015 C 
ATOM     30  C   UNL     1       0.002  -0.004   0.002  0.00  0.00    -0.013 C 
ATOM     31  C   UNL     1       0.742  -0.511   1.242  0.00  0.00    +0.015 C 
ATOM     32  C   UNL     1      -1.433  -0.534   0.013  0.00  0.00    +0.015 C 
ENDBRANCH  23  30
ENDBRANCH  22  26
ENDBRANCH   1  22
TORSDOF 5
