REMARK  Name = ZINC39125702
REMARK  5 active torsions:
REMARK  status: ('A' for Active; 'I' for Inactive)
REMARK    1  A    between atoms: C_1  and  C_2
REMARK    2  A    between atoms: C_2  and  C_4
REMARK    3  A    between atoms: C_4  and  C_5
REMARK    4  A    between atoms: C_4  and  S_6
REMARK    5  A    between atoms: S_6  and  C_7
REMARK                            x       y       z     vdW  Elec       q    Type
REMARK                         _______ _______ _______ _____ _____    ______ ____
ROOT
ATOM      1  C   UNL     1      -1.293  -0.775   0.010  0.00  0.00    +0.145 C 
ATOM      2  C   UNL     1      -2.143  -0.332   1.202  0.00  0.00    +0.048 C 
ATOM      3 CL   UNL     1      -2.191  -0.457  -1.520  0.00  0.00    -0.099 Cl
ENDROOT
BRANCH   1   5
ATOM      4  C   UNL     1      -0.018   1.503   0.010  0.00  0.00    +0.089 C 
ATOM      5  C   UNL     1       0.002  -0.004   0.002  0.00  0.00    +0.161 C 
ATOM      6  O   UNL     1       1.056  -0.594  -0.011  0.00  0.00    -0.295 OA
ENDBRANCH   1   5
BRANCH   1   7
ATOM      7  S   UNL     1      -0.939  -2.549   0.146  0.00  0.00    -0.134 S 
ATOM      8  C   UNL     1      -2.567  -3.334  -0.010  0.00  0.00    +0.086 C 
ENDBRANCH   1   7
TORSDOF 2
