REMARK  Name = ZINC12546898
REMARK  9 active torsions:
REMARK  status: ('A' for Active; 'I' for Inactive)
REMARK    1  A    between atoms: C_4  and  C_7
REMARK    2  A    between atoms: C_15  and  C_18
REMARK    3  A    between atoms: C_18  and  O_19
REMARK    4  A    between atoms: O_19  and  C_20
REMARK    5  A    between atoms: C_20  and  C_22
REMARK    6  A    between atoms: C_22  and  N_23
REMARK    7  A    between atoms: N_23  and  C_24
REMARK    8  A    between atoms: C_27  and  C_33
REMARK    9  A    between atoms: C_29  and  N_30
REMARK                            x       y       z     vdW  Elec       q    Type
REMARK                         _______ _______ _______ _____ _____    ______ ____
ROOT
ATOM      1  O   UNL     1       2.642  -5.323   0.242  0.00  0.00    -0.459 OA
ENDROOT
BRANCH   1   2
ATOM      2  C   UNL     1       1.711  -4.361   0.148  0.00  0.00    +0.325 C 
ATOM      3  O   UNL     1       0.543  -4.657   0.064  0.00  0.00    -0.249 OA
BRANCH   2   4
ATOM      4  C   UNL     1       2.123  -2.911   0.148  0.00  0.00    +0.222 C 
BRANCH   4   5
ATOM      5  N   UNL     1       0.932  -2.065   0.036  0.00  0.00    -0.332 N 
ATOM      6  H   UNL     1       0.053  -2.470  -0.023  0.00  0.00    +0.147 HD
BRANCH   5   7
ATOM      7  C   UNL     1       1.063  -0.674   0.016  0.00  0.00    +0.058 A 
ATOM      8  C   UNL     1       2.325  -0.094  -0.020  0.00  0.00    +0.026 A 
ATOM      9  C   UNL     1       2.450   1.281  -0.041  0.00  0.00    +0.014 A 
ATOM     10  C   UNL     1       1.322   2.080  -0.027  0.00  0.00    +0.057 A 
ATOM     11  C   UNL     1       0.064   1.506   0.009  0.00  0.00    +0.047 A 
ATOM     12  C   UNL     1      -0.068   0.131   0.030  0.00  0.00    +0.147 A 
BRANCH  10  13
ATOM     13  C   UNL     1       1.463   3.580  -0.050  0.00  0.00    +0.417 C 
ATOM     14  F   UNL     1       1.535   4.062   1.261  0.00  0.00    -0.166 F 
ATOM     15  F   UNL     1       2.629   3.928  -0.741  0.00  0.00    -0.166 F 
ATOM     16  F   UNL     1       0.355   4.143  -0.693  0.00  0.00    -0.166 F 
ENDBRANCH  10  13
BRANCH  12  17
ATOM     17  N   UNL     1      -1.415  -0.482   0.069  0.00  0.00    +0.058 N 
ATOM     18  O   UNL     1      -2.401   0.221   0.194  0.00  0.00    -0.126 OA
ATOM     19  O   UNL     1      -1.536  -1.691  -0.025  0.00  0.00    -0.126 OA
ENDBRANCH  12  17
ENDBRANCH   5   7
ENDBRANCH   4   5
ENDBRANCH   2   4
ENDBRANCH   1   2
BRANCH   1  20
ATOM     20  C   UNL     1       2.173  -6.697   0.236  0.00  0.00    +0.271 C 
BRANCH  20  28
ATOM     21  C   UNL     1       1.694 -10.860   0.670  0.00  0.00    +0.340 C 
ATOM     22  O   UNL     1       2.706 -11.659   0.045  0.00  0.00    -0.333 OA
ATOM     23  C   UNL     1       4.026 -11.354   0.496  0.00  0.00    +0.203 C 
ATOM     24  C   UNL     1       4.233  -9.861   0.469  0.00  0.00    +0.023 A 
ATOM     25  C   UNL     1       5.513  -9.346   0.555  0.00  0.00    +0.047 A 
ATOM     26  C   UNL     1       5.713  -7.977   0.539  0.00  0.00    +0.124 A 
ATOM     27  C   UNL     1       4.631  -7.119   0.437  0.00  0.00    +0.049 A 
ATOM     28  C   UNL     1       3.351  -7.630   0.349  0.00  0.00    +0.035 A 
ATOM     29  C   UNL     1       3.148  -9.004   0.369  0.00  0.00    +0.136 A 
ATOM     30  O   UNL     1       1.884  -9.497   0.281  0.00  0.00    -0.459 OA
ATOM     31  F   UNL     1       6.965  -7.476   0.623  0.00  0.00    -0.205 F 
BRANCH  21  35
ATOM     32  C   UNL     1      -2.164 -12.188  -0.597  0.00  0.00    +0.000 A 
ATOM     33  C   UNL     1      -1.323 -13.052   0.079  0.00  0.00    +0.000 A 
ATOM     34  C   UNL     1      -0.075 -12.622   0.489  0.00  0.00    +0.010 A 
ATOM     35  C   UNL     1       0.333 -11.329   0.223  0.00  0.00    +0.020 A 
ATOM     36  C   UNL     1      -0.510 -10.463  -0.449  0.00  0.00    +0.010 A 
ATOM     37  C   UNL     1      -1.757 -10.894  -0.863  0.00  0.00    +0.000 A 
ENDBRANCH  21  35
ENDBRANCH  20  28
ENDBRANCH   1  20
TORSDOF 9
