REMARK  Name = ZINC50309816
REMARK  6 active torsions:
REMARK  status: ('A' for Active; 'I' for Inactive)
REMARK    1  A    between atoms: C_1  and  C_2
REMARK    2  A    between atoms: C_2  and  C_3
REMARK    3  A    between atoms: C_2  and  C_4
REMARK    4  A    between atoms: C_5  and  N_22
REMARK    5  A    between atoms: C_6  and  C_10
REMARK    6  A    between atoms: N_12  and  C_13
REMARK                            x       y       z     vdW  Elec       q    Type
REMARK                         _______ _______ _______ _____ _____    ______ ____
ROOT
ATOM      1  C   UNL     1       1.711  -1.194   4.989  0.00  0.00    +0.270 C 
ATOM      2  O   UNL     1       1.017  -0.745   5.881  0.00  0.00    -0.268 OA
ATOM      3  N   UNL     1       2.322  -2.385   5.146  0.00  0.00    -0.278 N 
ATOM      4  H   UNL     1       2.816  -2.778   4.409  0.00  0.00    +0.155 HD
ENDROOT
BRANCH   3   5
ATOM      5  C   UNL     1       2.245  -3.055   6.373  0.00  0.00    +0.071 A 
ATOM      6  C   UNL     1       3.191  -2.809   7.361  0.00  0.00    +0.065 A 
ATOM      7  C   UNL     1       3.112  -3.472   8.571  0.00  0.00    +0.042 A 
ATOM      8  C   UNL     1       2.094  -4.380   8.799  0.00  0.00    +0.044 A 
ATOM      9  C   UNL     1       1.151  -4.627   7.817  0.00  0.00    +0.042 A 
ATOM     10  C   UNL     1       1.220  -3.963   6.607  0.00  0.00    +0.065 A 
ATOM     11 CL   UNL     1       0.032  -4.268   5.379  0.00  0.00    -0.082 Cl
ATOM     12 CL   UNL     1       1.999  -5.212  10.320  0.00  0.00    -0.083 Cl
ATOM     13 CL   UNL     1       4.470  -1.670   7.075  0.00  0.00    -0.082 Cl
ENDBRANCH   3   5
BRANCH   1  16
ATOM     14  C   UNL     1       1.743   1.121   2.173  0.00  0.00    +0.060 A 
ATOM     15  C   UNL     1       1.306   0.822   3.426  0.00  0.00    +0.078 A 
ATOM     16  C   UNL     1       1.883  -0.437   3.736  0.00  0.00    +0.168 A 
ATOM     17  N   UNL     1       2.602  -0.801   2.691  0.00  0.00    -0.167 NA
ATOM     18  N   UNL     1       2.529   0.089   1.768  0.00  0.00    -0.279 N 
ATOM     19  H   UNL     1       2.974   0.034   0.908  0.00  0.00    +0.189 HD
BRANCH  14  21
ATOM     20  C   UNL     1       2.704   3.110   1.047  0.00  0.00    +0.014 C 
ATOM     21  C   UNL     1       1.413   2.360   1.381  0.00  0.00    +0.033 C 
ATOM     22  C   UNL     1       0.703   1.963   0.086  0.00  0.00    +0.014 C 
ENDBRANCH  14  21
BRANCH  15  23
ATOM     23  N   UNL     1       0.465   1.595   4.239  0.00  0.00    -0.355 N 
ATOM     24  H   UNL     1       0.129   2.447   3.918  0.00  0.00    +0.142 HD
ATOM     25  H   UNL     1       0.218   1.278   5.122  0.00  0.00    +0.142 HD
ENDBRANCH  15  23
ENDBRANCH   1  16
TORSDOF 4
