REMARK  Name = ZINC59409344
REMARK  12 active torsions:
REMARK  status: ('A' for Active; 'I' for Inactive)
REMARK    1  A    between atoms: C_1  and  C_2
REMARK    2  A    between atoms: C_2  and  C_3
REMARK    3  A    between atoms: C_3  and  C_4
REMARK    4  A    between atoms: C_5  and  C_6
REMARK    5  A    between atoms: C_6  and  C_7
REMARK    6  A    between atoms: C_6  and  C_8
REMARK    7  A    between atoms: C_6  and  O_26
REMARK    8  A    between atoms: C_8  and  N_9
REMARK    9  A    between atoms: N_9  and  CA_10
REMARK   10  A    between atoms: CA_10  and  CB_12
REMARK   11  A    between atoms: CA_10  and  C_23
REMARK   12  A    between atoms: CB_12  and  CG_13
REMARK                            x       y       z     vdW  Elec       q    Type
REMARK                         _______ _______ _______ _____ _____    ______ ____
ROOT
ATOM      1  CA  UNL     1      -2.020  -7.122  -1.266  0.00  0.00    +0.048 C 
ENDROOT
BRANCH   1   2
ATOM      2  N   UNL     1      -0.641  -6.614  -1.277  0.00  0.00    +0.391 N 
ATOM      3  H1  UNL     1      -0.169  -6.939  -2.107  0.00  0.00    -0.085 HD
ATOM      4  H2  UNL     1      -0.153  -6.948  -0.459  0.00  0.00    -0.085 HD
BRANCH   2   5
ATOM      5  C   ACE A   0      -0.661  -5.145  -1.269  0.00  0.00    -0.033 C 
BRANCH   5   6
ATOM      6  C   UNL     1       0.774  -4.615  -1.279  0.00  0.00    +0.109 C 
ATOM      7  C   UNL     1       1.490  -5.109  -2.538  0.00  0.00    +0.053 C 
BRANCH   6   9
ATOM      8  C   UNL     1       0.738  -1.969  -1.265  0.00  0.00    -0.099 C 
ATOM      9  C   UNL     1       0.754  -3.143  -1.271  0.00  0.00    -0.070 C 
BRANCH   8  10
ATOM     10  C   UNL     1       0.718  -0.497  -1.257  0.00  0.00    +0.088 C 
BRANCH  10  12
ATOM     11  C   UNL     1      -0.019   1.526   0.010  0.00  0.00    +0.005 C 
ATOM     12  C   UNL     1       0.002  -0.004   0.002  0.00  0.00    +0.009 C 
ENDBRANCH  10  12
ENDBRANCH   8  10
ENDBRANCH   6   9
BRANCH   6  13
ATOM     13  O   UNL     1       1.465  -5.088  -0.122  0.00  0.00    -0.379 OA
ATOM     14  H   UNL     1       1.066  -4.813   0.715  0.00  0.00    +0.211 HD
ENDBRANCH   6  13
ENDBRANCH   5   6
ENDBRANCH   2   5
ENDBRANCH   1   2
BRANCH   1  15
ATOM     15  C   UNL     1      -2.711  -6.726  -2.545  0.00  0.00    +0.343 C 
ATOM     16  O   UNL     1      -2.068  -6.242  -3.461  0.00  0.00    -0.248 OA
ATOM     17  OXT UNL     1      -3.913  -6.888  -2.664  0.00  0.00    -0.248 OA
ENDBRANCH   1  15
BRANCH   1  18
ATOM     18  CB  UNL     1      -2.000  -8.647  -1.149  0.00  0.00    +0.032 C 
BRANCH  18  19
ATOM     19  CG  UNL     1      -1.419  -9.041   0.185  0.00  0.00    -0.023 A 
ATOM     20  CD1 UNL     1      -0.139  -9.355   0.437  0.00  0.00    +0.087 A 
ATOM     21  NE1 UNL     1       0.015  -9.659   1.763  0.00  0.00    -0.360 N 
ATOM     22  HE1 UNL     1       0.850  -9.917   2.182  0.00  0.00    +0.165 HD
ATOM     23  CE2 UNL     1      -1.194  -9.546   2.412  0.00  0.00    +0.047 A 
ATOM     24  CD2 UNL     1      -2.144  -9.147   1.454  0.00  0.00    +0.003 A 
ATOM     25  CE3 UNL     1      -3.473  -8.946   1.832  0.00  0.00    +0.010 A 
ATOM     26  CZ3 UNL     1      -3.844  -9.133   3.133  0.00  0.00    +0.001 A 
ATOM     27  CH2 UNL     1      -2.910  -9.523   4.083  0.00  0.00    +0.002 A 
ATOM     28  CZ2 UNL     1      -1.595  -9.736   3.730  0.00  0.00    +0.026 A 
ENDBRANCH  18  19
ENDBRANCH   1  18
TORSDOF 10
