REMARK  Name = ZINC09082032
REMARK  12 active torsions:
REMARK  status: ('A' for Active; 'I' for Inactive)
REMARK    1  A    between atoms: C_1  and  C_2
REMARK    2  A    between atoms: C_2  and  C_3
REMARK    3  A    between atoms: C_2  and  C_4
REMARK    4  A    between atoms: C_7  and  S_10
REMARK    5  A    between atoms: S_10  and  C_13
REMARK    6  A    between atoms: C_13  and  C_15
REMARK    7  A    between atoms: C_13  and  C_33
REMARK    8  A    between atoms: C_15  and  N_16
REMARK    9  A    between atoms: C_17  and  C_19
REMARK   10  A    between atoms: C_19  and  C_20
REMARK   11  A    between atoms: C_20  and  C_21
REMARK   12  A    between atoms: C_21  and  N_22
REMARK                            x       y       z     vdW  Elec       q    Type
REMARK                         _______ _______ _______ _____ _____    ______ ____
ROOT
ATOM      1  C   UNL     1       4.413   5.877  -0.009  0.00  0.00    +0.138 C 
ENDROOT
BRANCH   1   2
ATOM      2  N   UNL     1       3.039   5.370   0.002  0.00  0.00    -0.313 N 
ATOM      3  C   UNL     1       2.811   4.042  -0.003  0.00  0.00    +0.213 C 
ATOM      4  O   UNL     1       3.743   3.266  -0.016  0.00  0.00    -0.276 OA
ATOM      5  H   UNL     1       2.293   5.990   0.012  0.00  0.00    +0.149 HD
BRANCH   3   6
ATOM      6  C   UNL     1       1.397   3.520   0.008  0.00  0.00    +0.097 C 
BRANCH   6   7
ATOM      7  C   UNL     1       1.418   1.990  -0.001  0.00  0.00    +0.029 C 
BRANCH   7   8
ATOM      8  C   UNL     1      -0.018   1.461   0.010  0.00  0.00    +0.117 C 
BRANCH   8   9
ATOM      9  N   UNL     1       0.002  -0.004   0.002  0.00  0.00    -0.234 N 
ATOM     10  C   UNL     1      -0.004  -0.759  -1.111  0.00  0.00    +0.254 C 
ATOM     11  O   UNL     1      -0.026  -0.341  -2.251  0.00  0.00    -0.270 OA
ATOM     12  C   UNL     1       0.024  -2.183  -0.715  0.00  0.00    +0.049 A 
ATOM     13  C   UNL     1       0.032  -3.381  -1.410  0.00  0.00    +0.014 A 
ATOM     14  C   UNL     1       0.055  -4.580  -0.714  0.00  0.00    +0.001 A 
ATOM     15  C   UNL     1       0.069  -4.587   0.668  0.00  0.00    +0.001 A 
ATOM     16  C   UNL     1       0.060  -3.396   1.377  0.00  0.00    +0.014 A 
ATOM     17  C   UNL     1       0.037  -2.191   0.695  0.00  0.00    +0.049 A 
ATOM     18  C   UNL     1       0.023  -0.771   1.107  0.00  0.00    +0.254 C 
ATOM     19  O   UNL     1       0.029  -0.365   2.252  0.00  0.00    -0.270 OA
ENDBRANCH   8   9
ENDBRANCH   7   8
ENDBRANCH   6   7
ENDBRANCH   3   6
ENDBRANCH   1   2
BRANCH   1  20
ATOM     20  C   UNL     1       4.393   7.407  -0.000  0.00  0.00    +0.218 C 
BRANCH  20  21
ATOM     21  C   UNL     1       5.806   7.929  -0.011  0.00  0.00    +0.131 A 
ATOM     22  C   UNL     1       6.347   8.718  -0.957  0.00  0.00    +0.047 A 
ATOM     23  C   UNL     1       7.684   8.963  -0.571  0.00  0.00    +0.041 A 
ATOM     24  C   UNL     1       7.882   8.309   0.588  0.00  0.00    +0.195 A 
ATOM     25  O   UNL     1       6.739   7.689   0.925  0.00  0.00    -0.466 OA
ENDBRANCH  20  21
BRANCH  20  26
ATOM     26  S   UNL     1       3.543   7.992   1.492  0.00  0.00    +0.008 S 
ATOM     27  O   UNL     1       2.163   7.660   1.432  0.00  0.00    -0.169 OA
ATOM     28  O   UNL     1       4.313   7.683   2.646  0.00  0.00    -0.169 OA
BRANCH  26  32
ATOM     29  C   UNL     1       3.660  12.508   1.203  0.00  0.00    -0.045 A 
ATOM     30  C   UNL     1       2.600  11.807   0.658  0.00  0.00    +0.006 A 
ATOM     31  C   UNL     1       2.564  10.428   0.747  0.00  0.00    +0.027 A 
ATOM     32  C   UNL     1       3.589   9.750   1.379  0.00  0.00    +0.089 A 
ATOM     33  C   UNL     1       4.646  10.451   1.929  0.00  0.00    +0.027 A 
ATOM     34  C   UNL     1       4.684  11.829   1.837  0.00  0.00    +0.006 A 
BRANCH  29  36
ATOM     35  C   UNL     1       3.726  14.613   2.512  0.00  0.00    +0.012 C 
ATOM     36  C   UNL     1       3.699  14.011   1.105  0.00  0.00    +0.013 C 
ATOM     37  C   UNL     1       4.955  14.440   0.343  0.00  0.00    +0.012 C 
ENDBRANCH  29  36
ENDBRANCH  26  32
ENDBRANCH  20  26
ENDBRANCH   1  20
TORSDOF 10
