REMARK  Name = ZINC03213880
REMARK  4 active torsions:
REMARK  status: ('A' for Active; 'I' for Inactive)
REMARK    1  A    between atoms: C_1  and  C_2
REMARK    2  A    between atoms: C_5  and  N_8
REMARK    3  A    between atoms: N_11  and  C_12
REMARK    4  A    between atoms: C_13  and  C_21
REMARK                            x       y       z     vdW  Elec       q    Type
REMARK                         _______ _______ _______ _____ _____    ______ ____
ROOT
ATOM      1  C   UNL     1       3.486   6.221   0.309  0.00  0.00    +0.086 A 
ATOM      2  C   UNL     1       3.669   7.592   0.421  0.00  0.00    +0.068 A 
ATOM      3  C   UNL     1       5.034   8.083   0.513  0.00  0.00    -0.023 A 
ATOM      4  C   UNL     1       5.991   7.132   0.467  0.00  0.00    -0.004 A 
ATOM      5  S   UNL     1       5.106   5.606   0.313  0.00  0.00    -0.077 S 
ATOM      6  C   UNL     1       7.473   7.338   0.531  0.00  0.00    +0.043 C 
ATOM      7  C   UNL     1       7.766   8.825   0.282  0.00  0.00    +0.005 C 
ATOM      8  C   UNL     1       6.833   9.665   1.160  0.00  0.00    +0.005 C 
ATOM      9  C   UNL     1       5.397   9.557   0.645  0.00  0.00    +0.037 C 
ENDROOT
BRANCH   1  13
ATOM     10  N   UNL     1       1.162   3.485   0.009  0.00  0.00    -0.269 N 
ATOM     11  C   UNL     1       2.318   4.172   0.104  0.00  0.00    +0.308 C 
ATOM     12  O   UNL     1       3.379   3.579   0.091  0.00  0.00    -0.252 OA
ATOM     13  N   UNL     1       2.297   5.515   0.212  0.00  0.00    -0.263 N 
ATOM     14  H   UNL     1       0.319   3.961  -0.058  0.00  0.00    +0.156 HD
ATOM     15  H   UNL     1       1.450   5.988   0.222  0.00  0.00    +0.157 HD
BRANCH  10  20
ATOM     16  C   UNL     1       1.222  -2.188   0.008  0.00  0.00    +0.044 C 
ATOM     17  C   UNL     1       1.206  -0.681   0.009  0.00  0.00    -0.050 A 
ATOM     18  C   UNL     1       2.145   0.019   0.744  0.00  0.00    +0.005 A 
ATOM     19  C   UNL     1       2.133   1.400   0.746  0.00  0.00    +0.023 A 
ATOM     20  C   UNL     1       1.177   2.086   0.009  0.00  0.00    +0.035 A 
ATOM     21  C   UNL     1       0.235   1.380  -0.729  0.00  0.00    +0.023 A 
ATOM     22  C   UNL     1       0.252  -0.001  -0.727  0.00  0.00    +0.005 A 
ENDBRANCH  10  20
ENDBRANCH   1  13
BRANCH   2  23
ATOM     23  C   UNL     1       2.527   8.511   0.450  0.00  0.00    +0.244 C 
ATOM     24  O   UNL     1       2.015   8.812   1.512  0.00  0.00    -0.270 OA
ATOM     25  N   UNL     1       2.044   9.022  -0.700  0.00  0.00    -0.325 N 
ATOM     26  H   UNL     1       2.452   8.782  -1.547  0.00  0.00    +0.145 HD
ATOM     27  H   UNL     1       1.288   9.630  -0.681  0.00  0.00    +0.145 HD
ENDBRANCH   2  23
TORSDOF 3
