REMARK  Name = ZINC22715940
REMARK  16 active torsions:
REMARK  status: ('A' for Active; 'I' for Inactive)
REMARK    1  A    between atoms: C_1  and  C_2
REMARK    2  A    between atoms: C_2  and  C_4
REMARK    3  A    between atoms: C_2  and  N_11
REMARK    4  A    between atoms: C_12  and  C_14
REMARK    5  A    between atoms: C_14  and  C_16
REMARK    6  A    between atoms: C_14  and  S_17
REMARK    7  A    between atoms: S_17  and  C_18
REMARK    8  A    between atoms: N_28  and  C_29
REMARK    9  A    between atoms: C_29  and  C_30
REMARK   10  A    between atoms: C_30  and  N_31
REMARK   11  A    between atoms: N_31  and  C_32
REMARK   12  A    between atoms: N_31  and  C_35
REMARK   13  A    between atoms: C_32  and  C_33
REMARK   14  A    between atoms: C_32  and  C_34
REMARK   15  A    between atoms: C_35  and  C_36
REMARK   16  A    between atoms: C_35  and  C_37
REMARK                            x       y       z     vdW  Elec       q    Type
REMARK                         _______ _______ _______ _____ _____    ______ ____
ROOT
ATOM      1  C   UNL     1       0.678  -1.624  -7.290  0.00  0.00    +0.173 A 
ATOM      2  N   UNL     1       1.693  -2.440  -7.142  0.00  0.00    -0.223 NA
ATOM      3  C   UNL     1       2.510  -2.745  -8.170  0.00  0.00    +0.079 A 
ATOM      4  C   UNL     1       3.592  -3.616  -8.013  0.00  0.00    +0.028 A 
ATOM      5  C   UNL     1       4.394  -3.898  -9.082  0.00  0.00    +0.002 A 
ATOM      6  C   UNL     1       4.152  -3.332 -10.327  0.00  0.00    +0.001 A 
ATOM      7  C   UNL     1       3.101  -2.476 -10.513  0.00  0.00    +0.015 A 
ATOM      8  C   UNL     1       2.265  -2.171  -9.439  0.00  0.00    +0.065 A 
ATOM      9  C   UNL     1       1.122  -1.260  -9.580  0.00  0.00    +0.262 A 
ATOM     10  O   UNL     1       0.860  -0.735 -10.646  0.00  0.00    -0.267 OA
ATOM     11  N   UNL     1       0.366  -1.031  -8.480  0.00  0.00    -0.289 N 
ENDROOT
BRANCH   1  12
ATOM     12  S   UNL     1      -0.336  -1.283  -5.891  0.00  0.00    -0.075 S 
BRANCH  12  13
ATOM     13  C   UNL     1       0.417  -2.253  -4.556  0.00  0.00    +0.137 C 
ATOM     14  C   UNL     1       0.289  -3.744  -4.874  0.00  0.00    +0.029 C 
BRANCH  13  16
ATOM     15  N   UNL     1       0.355  -2.127  -2.086  0.00  0.00    -0.308 N 
ATOM     16  C   UNL     1      -0.288  -1.954  -3.258  0.00  0.00    +0.227 C 
ATOM     17  O   UNL     1      -1.434  -1.558  -3.268  0.00  0.00    -0.275 OA
ATOM     18  H   UNL     1       1.272  -2.444  -2.078  0.00  0.00    +0.149 HD
BRANCH  15  20
ATOM     19  C   UNL     1      -0.203  -0.346  -0.506  0.00  0.00    +0.033 C 
ATOM     20  C   UNL     1      -0.331  -1.837  -0.824  0.00  0.00    +0.100 C 
BRANCH  20  21
ATOM     21  C   UNL     1       0.295  -2.643   0.285  0.00  0.00    -0.027 A 
ATOM     22  C   UNL     1       1.668  -2.800   0.334  0.00  0.00    +0.008 A 
ATOM     23  C   UNL     1       2.243  -3.539   1.351  0.00  0.00    +0.038 A 
ATOM     24  C   UNL     1       1.444  -4.121   2.320  0.00  0.00    +0.123 A 
ATOM     25  C   UNL     1       0.069  -3.962   2.270  0.00  0.00    +0.038 A 
ATOM     26  C   UNL     1      -0.503  -3.219   1.255  0.00  0.00    +0.008 A 
ATOM     27  F   UNL     1       2.005  -4.843   3.314  0.00  0.00    -0.205 F 
ENDBRANCH  20  21
ENDBRANCH  15  20
ENDBRANCH  13  16
ENDBRANCH  12  13
ENDBRANCH   1  12
BRANCH  11  28
ATOM     28  C   UNL     1      -0.790  -0.135  -8.566  0.00  0.00    +0.109 C 
BRANCH  28  29
ATOM     29  C   UNL     1      -0.349   1.297  -8.257  0.00  0.00    -0.056 C 
BRANCH  29  30
ATOM     30  N   UNL     1      -1.474   2.215  -8.482  0.00  0.00    +0.384 N 
ATOM     31  H   UNL     1      -1.830   2.089  -9.417  0.00  0.00    -0.081 HD
BRANCH  30  32
ATOM     32  C   UNL     1      -2.539   1.930  -7.511  0.00  0.00    -0.074 C 
ATOM     33  C   UNL     1      -2.245   2.663  -6.200  0.00  0.00    -0.014 C 
ATOM     34  C   UNL     1      -3.881   2.406  -8.071  0.00  0.00    -0.014 C 
ENDBRANCH  30  32
BRANCH  30  35
ATOM     35  C   UNL     1      -1.017   3.601  -8.314  0.00  0.00    -0.074 C 
ATOM     36  C   UNL     1       0.187   3.854  -9.223  0.00  0.00    -0.014 C 
ATOM     37  C   UNL     1      -2.149   4.560  -8.687  0.00  0.00    -0.014 C 
ENDBRANCH  30  35
ENDBRANCH  29  30
ENDBRANCH  28  29
ENDBRANCH  11  28
TORSDOF 10
