REMARK  Name = ZINC14244732
REMARK  10 active torsions:
REMARK  status: ('A' for Active; 'I' for Inactive)
REMARK    1  A    between atoms: C_1  and  C_2
REMARK    2  A    between atoms: C_2  and  C_4
REMARK    3  A    between atoms: C_2  and  N_16
REMARK    4  A    between atoms: N_6  and  C_7
REMARK    5  A    between atoms: C_10  and  N_13
REMARK    6  A    between atoms: N_20  and  C_23
REMARK    7  A    between atoms: C_23  and  C_25
REMARK    8  A    between atoms: C_23  and  C_26
REMARK    9  A    between atoms: N_28  and  C_29
REMARK   10  A    between atoms: C_32  and  N_35
REMARK                            x       y       z     vdW  Elec       q    Type
REMARK                         _______ _______ _______ _____ _____    ______ ____
ROOT
ATOM      1  N   UNL     1      -1.269   3.257   2.101  0.00  0.00    +0.388 N 
ATOM      2  C   UNL     1       0.118   3.564   1.850  0.00  0.00    -0.076 C 
ATOM      3  C   UNL     1       0.459   4.902   2.536  0.00  0.00    -0.003 C 
ATOM      4  C   UNL     1      -0.016   6.048   1.763  0.00  0.00    +0.083 C 
ATOM      5  N   UNL     1      -1.487   6.036   1.593  0.00  0.00    -0.294 NA
ATOM      6  C   UNL     1      -1.854   5.133   0.529  0.00  0.00    +0.066 C 
ATOM      7  C   UNL     1      -2.196   3.723   1.044  0.00  0.00    -0.062 C 
ATOM      8  H   UNL     1      -1.509   3.832   3.008  0.00  0.00    -0.081 HD
ENDROOT
BRANCH   1  10
ATOM      9  C   UNL     1      -0.845   1.011   1.222  0.00  0.00    -0.004 C 
ATOM     10  C   UNL     1      -1.451   1.824   2.367  0.00  0.00    +0.016 C 
BRANCH  10  11
ATOM     11  C   UNL     1      -0.765   1.462   3.659  0.00  0.00    +0.203 C 
ATOM     12  O   UNL     1      -0.181   2.313   4.295  0.00  0.00    -0.277 OA
ATOM     13  N   UNL     1      -0.800   0.191   4.107  0.00  0.00    -0.287 N 
ATOM     14  H   UNL     1      -1.401  -0.563   3.578  0.00  0.00    +0.155 HD
BRANCH  13  15
ATOM     15  C   UNL     1      -0.071  -0.170   5.246  0.00  0.00    +0.033 A 
ATOM     16  C   UNL     1       0.510  -1.428   5.331  0.00  0.00    +0.025 A 
ATOM     17  C   UNL     1       1.233  -1.779   6.454  0.00  0.00    +0.034 A 
ATOM     18  C   UNL     1       1.369  -0.882   7.498  0.00  0.00    +0.126 A 
ATOM     19  C   UNL     1       0.787   0.369   7.419  0.00  0.00    +0.034 A 
ATOM     20  C   UNL     1       0.067   0.728   6.296  0.00  0.00    +0.025 A 
BRANCH  18  21
ATOM     21  N   UNL     1       2.140  -1.264   8.703  0.00  0.00    +0.056 N 
ATOM     22  O   UNL     1       2.261  -0.475   9.623  0.00  0.00    -0.126 OA
ATOM     23  O   UNL     1       2.653  -2.366   8.774  0.00  0.00    -0.126 OA
ENDBRANCH  18  21
ENDBRANCH  13  15
ENDBRANCH  10  11
ENDBRANCH   1  10
BRANCH   5  24
ATOM     24  C   UNL     1      -1.998   7.389   1.335  0.00  0.00    +0.140 C 
ATOM     25  C   UNL     1      -1.538   7.852  -0.050  0.00  0.00    +0.034 C 
BRANCH  24  26
ATOM     26  C   UNL     1      -3.504   7.376   1.385  0.00  0.00    +0.234 C 
ATOM     27  O   UNL     1      -4.094   6.339   1.603  0.00  0.00    -0.274 OA
ATOM     28  N   UNL     1      -4.195   8.516   1.189  0.00  0.00    -0.284 N 
ATOM     29  H   UNL     1      -3.666   9.439   0.909  0.00  0.00    +0.155 HD
BRANCH  28  30
ATOM     30  C   UNL     1      -5.586   8.526   1.341  0.00  0.00    +0.034 A 
ATOM     31  C   UNL     1      -6.367   9.355   0.546  0.00  0.00    +0.025 A 
ATOM     32  C   UNL     1      -7.740   9.359   0.696  0.00  0.00    +0.034 A 
ATOM     33  C   UNL     1      -8.336   8.547   1.643  0.00  0.00    +0.126 A 
ATOM     34  C   UNL     1      -7.561   7.724   2.440  0.00  0.00    +0.034 A 
ATOM     35  C   UNL     1      -6.188   7.712   2.292  0.00  0.00    +0.025 A 
BRANCH  33  36
ATOM     36  N   UNL     1      -9.808   8.558   1.804  0.00  0.00    +0.056 N 
ATOM     37  O   UNL     1     -10.334   7.843   2.638  0.00  0.00    -0.126 OA
ATOM     38  O   UNL     1     -10.492   9.282   1.103  0.00  0.00    -0.126 OA
ENDBRANCH  33  36
ENDBRANCH  28  30
ENDBRANCH  24  26
ENDBRANCH   5  24
TORSDOF 8
