REMARK  Name = ZINC01251592
REMARK  6 active torsions:
REMARK  status: ('A' for Active; 'I' for Inactive)
REMARK    1  A    between atoms: C_1  and  C_2
REMARK    2  A    between atoms: C_5  and  S_8
REMARK    3  A    between atoms: S_8  and  N_11
REMARK    4  A    between atoms: C_15  and  C_29
REMARK    5  A    between atoms: C_16  and  N_18
REMARK    6  A    between atoms: N_21  and  C_22
REMARK                            x       y       z     vdW  Elec       q    Type
REMARK                         _______ _______ _______ _____ _____    ______ ____
ROOT
ATOM      1  N   UNL     1       1.650  -5.000  -0.042  0.00  0.00    -0.103 NA
ATOM      2  C   UNL     1       1.957  -6.274  -0.046  0.00  0.00    +0.193 A 
ATOM      3  N   UNL     1       1.125  -7.370  -0.043  0.00  0.00    -0.335 N 
ATOM      4  H   UNL     1       0.161  -7.262  -0.037  0.00  0.00    +0.168 HD
ATOM      5  C   UNL     1       1.689  -8.619  -0.049  0.00  0.00    +0.043 A 
ATOM      6  C   UNL     1       3.022  -8.749  -0.057  0.00  0.00    +0.095 A 
ATOM      7  S   UNL     1       3.566  -7.049  -0.065  0.00  0.00    -0.033 S 
ATOM      8  C   UNL     1       0.811  -9.844  -0.045  0.00  0.00    +0.066 C 
ENDROOT
BRANCH   6   9
ATOM      9  N   UNL     1       3.792  -9.919  -0.064  0.00  0.00    -0.262 N 
ATOM     10  C   UNL     1       5.138  -9.841  -0.072  0.00  0.00    +0.309 C 
ATOM     11  O   UNL     1       5.683  -8.754  -0.074  0.00  0.00    -0.252 OA
ATOM     12  N   UNL     1       5.878 -10.966  -0.079  0.00  0.00    -0.269 N 
ATOM     13  H   UNL     1       3.357 -10.786  -0.062  0.00  0.00    +0.157 HD
ATOM     14  H   UNL     1       5.446 -11.832  -0.010  0.00  0.00    +0.156 HD
BRANCH  12  15
ATOM     15  C   UNL     1       7.272 -10.887  -0.185  0.00  0.00    +0.035 A 
ATOM     16  C   UNL     1       7.972 -11.855  -0.893  0.00  0.00    +0.025 A 
ATOM     17  C   UNL     1       9.347 -11.774  -0.997  0.00  0.00    +0.022 A 
ATOM     18  C   UNL     1      10.027 -10.730  -0.395  0.00  0.00    +0.041 A 
ATOM     19  C   UNL     1       9.332  -9.764   0.311  0.00  0.00    +0.022 A 
ATOM     20  C   UNL     1       7.956  -9.837   0.413  0.00  0.00    +0.025 A 
ATOM     21 CL   UNL     1      11.755 -10.632  -0.526  0.00  0.00    -0.084 Cl
ENDBRANCH  12  15
ENDBRANCH   6   9
BRANCH   1  22
ATOM     22  S   UNL     1       0.062  -4.531  -0.025  0.00  0.00    +0.101 S 
ATOM     23  O   UNL     1      -0.470  -4.944   1.226  0.00  0.00    -0.146 OA
ATOM     24  O   UNL     1      -0.497  -4.944  -1.264  0.00  0.00    -0.146 OA
BRANCH  22  29
ATOM     25  C   UNL     1      -0.020   1.502  -0.023  0.00  0.00    +0.044 C 
ATOM     26  C   UNL     1       0.001  -0.005  -0.023  0.00  0.00    -0.050 A 
ATOM     27  C   UNL     1      -0.002  -0.696  -1.221  0.00  0.00    +0.005 A 
ATOM     28  C   UNL     1       0.017  -2.078  -1.221  0.00  0.00    +0.029 A 
ATOM     29  C   UNL     1       0.039  -2.769  -0.024  0.00  0.00    +0.113 A 
ATOM     30  C   UNL     1       0.043  -2.078   1.173  0.00  0.00    +0.029 A 
ATOM     31  C   UNL     1       0.028  -0.696   1.173  0.00  0.00    +0.005 A 
ENDBRANCH  22  29
ENDBRANCH   1  22
TORSDOF 4
