REMARK  Name = ZINC59170496
REMARK  9 active torsions:
REMARK  status: ('A' for Active; 'I' for Inactive)
REMARK    1  A    between atoms: C_1  and  O_2
REMARK    2  A    between atoms: O_2  and  C_3
REMARK    3  A    between atoms: C_6  and  N_9
REMARK    4  A    between atoms: C_10  and  C_12
REMARK    5  A    between atoms: C_17  and  O_33
REMARK    6  A    between atoms: N_22  and  C_23
REMARK    7  A    between atoms: C_26  and  S_29
REMARK    8  A    between atoms: S_29  and  N_32
REMARK    9  A    between atoms: O_33  and  C_34
REMARK                            x       y       z     vdW  Elec       q    Type
REMARK                         _______ _______ _______ _____ _____    ______ ____
ROOT
ATOM      1  C   UNL     1      -6.229  -4.577  -0.228  0.00  0.00    +0.098 A 
ATOM      2  C   UNL     1      -6.298  -5.963  -0.218  0.00  0.00    +0.030 A 
ATOM      3  C   UNL     1      -7.578  -6.570  -0.286  0.00  0.00    +0.018 A 
ATOM      4  C   UNL     1      -7.720  -7.951  -0.078  0.00  0.00    +0.015 A 
ATOM      5  C   UNL     1      -8.960  -8.518  -0.105  0.00  0.00    +0.046 A 
ATOM      6  C   UNL     1     -10.090  -7.737  -0.347  0.00  0.00    +0.124 A 
ATOM      7  C   UNL     1      -9.967  -6.375  -0.574  0.00  0.00    +0.092 A 
ATOM      8  C   UNL     1      -8.715  -5.784  -0.557  0.00  0.00    +0.141 A 
ATOM      9  O   UNL     1      -8.579  -4.461  -0.822  0.00  0.00    -0.438 OA
ATOM     10  C   UNL     1      -7.504  -3.834  -0.271  0.00  0.00    +0.212 A 
ATOM     11  N   UNL     1      -7.595  -2.610   0.202  0.00  0.00    -0.325 N 
ATOM     12  H   UNL     1      -6.852  -2.222   0.690  0.00  0.00    +0.169 HD
ENDROOT
BRANCH  11  13
ATOM     13  C   UNL     1      -8.737  -1.884   0.005  0.00  0.00    +0.042 A 
ATOM     14  C   UNL     1      -9.350  -1.866  -1.250  0.00  0.00    +0.027 A 
ATOM     15  C   UNL     1     -10.502  -1.132  -1.441  0.00  0.00    +0.030 A 
ATOM     16  C   UNL     1     -11.051  -0.414  -0.393  0.00  0.00    +0.105 A 
ATOM     17  C   UNL     1     -10.449  -0.427   0.853  0.00  0.00    +0.030 A 
ATOM     18  C   UNL     1      -9.300  -1.162   1.060  0.00  0.00    +0.027 A 
BRANCH  16  19
ATOM     19  S   UNL     1     -12.522   0.522  -0.647  0.00  0.00    +0.056 S 
ATOM     20  O   UNL     1     -12.531   1.541   0.344  0.00  0.00    -0.153 OA
ATOM     21  O   UNL     1     -12.585   0.810  -2.037  0.00  0.00    -0.153 OA
BRANCH  19  22
ATOM     22  N   UNL     1     -13.800  -0.476  -0.311  0.00  0.00    -0.204 NA
ATOM     23  H   UNL     1     -14.628  -0.104   0.033  0.00  0.00    +0.144 HD
ATOM     24  H   UNL     1     -13.722  -1.431  -0.459  0.00  0.00    +0.144 HD
ENDBRANCH  19  22
ENDBRANCH  16  19
ENDBRANCH  11  13
BRANCH   1  26
ATOM     25  N   UNL     1      -4.891  -2.537  -0.347  0.00  0.00    -0.281 N 
ATOM     26  C   UNL     1      -4.936  -3.875  -0.192  0.00  0.00    +0.253 C 
ATOM     27  O   UNL     1      -3.908  -4.503  -0.021  0.00  0.00    -0.270 OA
ATOM     28  H   UNL     1      -5.714  -2.030  -0.427  0.00  0.00    +0.155 HD
BRANCH  25  32
ATOM     29  C   UNL     1      -1.214  -0.576  -0.479  0.00  0.00    +0.120 A 
ATOM     30  C   UNL     1      -2.274  -0.116  -1.248  0.00  0.00    +0.047 A 
ATOM     31  C   UNL     1      -3.492  -0.765  -1.204  0.00  0.00    +0.027 A 
ATOM     32  C   UNL     1      -3.656  -1.879  -0.392  0.00  0.00    +0.034 A 
ATOM     33  C   UNL     1      -2.595  -2.339   0.377  0.00  0.00    +0.027 A 
ATOM     34  C   UNL     1      -1.376  -1.692   0.329  0.00  0.00    +0.047 A 
BRANCH  29  36
ATOM     35  C   UNL     1       0.081   1.205  -1.376  0.00  0.00    +0.277 C 
ATOM     36  O   UNL     1      -0.015   0.063  -0.522  0.00  0.00    -0.495 OA
ENDBRANCH  29  36
ENDBRANCH  25  32
ENDBRANCH   1  26
BRANCH   6  37
ATOM     37  O   UNL     1     -11.318  -8.315  -0.359  0.00  0.00    -0.495 OA
ATOM     38  C   UNL     1     -11.375  -9.722  -0.118  0.00  0.00    +0.277 C 
ENDBRANCH   6  37
TORSDOF 7
