REMARK  Name = ZINC00934373
REMARK  10 active torsions:
REMARK  status: ('A' for Active; 'I' for Inactive)
REMARK    1  A    between atoms: C_1  and  O_2
REMARK    2  A    between atoms: O_2  and  C_3
REMARK    3  A    between atoms: C_5  and  N_11
REMARK    4  A    between atoms: C_7  and  O_9
REMARK    5  A    between atoms: O_9  and  C_10
REMARK    6  A    between atoms: N_11  and  S_12
REMARK    7  A    between atoms: S_12  and  C_15
REMARK    8  A    between atoms: C_18  and  N_21
REMARK    9  A    between atoms: C_22  and  C_23
REMARK   10  A    between atoms: C_28  and  O_29
REMARK                            x       y       z     vdW  Elec       q    Type
REMARK                         _______ _______ _______ _____ _____    ______ ____
ROOT
ATOM      1  C   UNL     1      -2.733   0.292   1.542  0.00  0.00    +0.109 A 
ATOM      2  C   UNL     1      -2.224  -0.992   1.620  0.00  0.00    +0.031 A 
ATOM      3  C   UNL     1      -2.281  -1.689   2.809  0.00  0.00    +0.029 A 
ATOM      4  C   UNL     1      -2.864  -1.100   3.933  0.00  0.00    +0.064 A 
ATOM      5  C   UNL     1      -3.381   0.195   3.846  0.00  0.00    +0.029 A 
ATOM      6  C   UNL     1      -3.312   0.882   2.652  0.00  0.00    +0.031 A 
ENDROOT
BRANCH   1   7
ATOM      7  S   UNL     1      -2.650   1.177   0.021  0.00  0.00    +0.073 S 
ATOM      8  O   UNL     1      -3.687   2.147   0.058  0.00  0.00    -0.150 OA
ATOM      9  O   UNL     1      -2.553   0.204  -1.010  0.00  0.00    -0.150 OA
BRANCH   7  10
ATOM     10  N   UNL     1      -1.220   2.013   0.019  0.00  0.00    -0.199 N 
ATOM     11  H   UNL     1      -1.225   2.983   0.024  0.00  0.00    +0.175 HD
BRANCH  10  14
ATOM     12  C   UNL     1       2.373   1.289  -0.014  0.00  0.00    +0.222 A 
ATOM     13  C   UNL     1       1.192   2.020   0.002  0.00  0.00    +0.112 A 
ATOM     14  C   UNL     1      -0.016   1.327   0.009  0.00  0.00    +0.148 A 
ATOM     15  N   UNL     1       0.002  -0.004   0.002  0.00  0.00    -0.178 NA
ATOM     16  C   UNL     1       1.147  -0.665  -0.013  0.00  0.00    +0.323 A 
ATOM     17  N   UNL     1       2.313  -0.039  -0.020  0.00  0.00    -0.160 NA
BRANCH  12  19
ATOM     18  C   UNL     1       4.740   1.099  -0.036  0.00  0.00    +0.279 C 
ATOM     19  O   UNL     1       3.572   1.922  -0.021  0.00  0.00    -0.479 OA
ENDBRANCH  12  19
BRANCH  16  20
ATOM     20  O   UNL     1       1.127  -2.020  -0.019  0.00  0.00    -0.466 OA
ATOM     21  C   UNL     1       2.390  -2.688  -0.035  0.00  0.00    +0.280 C 
ENDBRANCH  16  20
ENDBRANCH  10  14
ENDBRANCH   7  10
ENDBRANCH   1   7
BRANCH   4  22
ATOM     22  N   UNL     1      -2.928  -1.787   5.115  0.00  0.00    -0.255 NA
ATOM     23  C   UNL     1      -3.305  -3.035   5.123  0.00  0.00    +0.123 C 
BRANCH  23  24
ATOM     24  C   UNL     1      -3.375  -3.774   6.393  0.00  0.00    +0.036 A 
ATOM     25  C   UNL     1      -3.779  -5.113   6.406  0.00  0.00    +0.028 A 
ATOM     26  C   UNL     1      -3.841  -5.799   7.601  0.00  0.00    +0.019 A 
ATOM     27  C   UNL     1      -3.505  -5.168   8.788  0.00  0.00    +0.019 A 
ATOM     28  C   UNL     1      -3.104  -3.846   8.788  0.00  0.00    +0.047 A 
ATOM     29  C   UNL     1      -3.030  -3.141   7.597  0.00  0.00    +0.125 A 
ATOM     30 BR   UNL     1      -4.388  -7.609   7.619  0.00  0.00    -0.050 Br
BRANCH  29  31
ATOM     31  O   UNL     1      -2.631  -1.844   7.596  0.00  0.00    -0.506 OA
ATOM     32  H   UNL     1      -3.354  -1.210   7.699  0.00  0.00    +0.292 HD
ENDBRANCH  29  31
ENDBRANCH  23  24
ENDBRANCH   4  22
TORSDOF 8
