REMARK  Name = ZINC49298978
REMARK  6 active torsions:
REMARK  status: ('A' for Active; 'I' for Inactive)
REMARK    1  A    between atoms: C_2  and  C_3
REMARK    2  A    between atoms: C_3  and  N_4
REMARK    3  A    between atoms: C_5  and  C_7
REMARK    4  A    between atoms: C_7  and  C_8
REMARK    5  A    between atoms: C_8  and  C_10
REMARK    6  A    between atoms: C_8  and  N_17
REMARK                            x       y       z     vdW  Elec       q    Type
REMARK                         _______ _______ _______ _____ _____    ______ ____
ROOT
ATOM      1  C   UNL     1       4.032  -3.713   2.732  0.00  0.00    +0.113 C 
ENDROOT
BRANCH   1   2
ATOM      2  C   UNL     1       3.757  -4.658   3.874  0.00  0.00    -0.026 A 
ATOM      3  C   UNL     1       3.173  -5.887   3.628  0.00  0.00    +0.005 A 
ATOM      4  C   UNL     1       2.921  -6.754   4.675  0.00  0.00    +0.001 A 
ATOM      5  C   UNL     1       3.251  -6.392   5.967  0.00  0.00    +0.015 A 
ATOM      6  C   UNL     1       3.835  -5.163   6.213  0.00  0.00    +0.018 A 
ATOM      7  C   UNL     1       4.093  -4.298   5.165  0.00  0.00    +0.020 A 
ATOM      8 BR   UNL     1       4.287  -4.667   7.981  0.00  0.00    -0.050 Br
ENDBRANCH   1   2
BRANCH   1   9
ATOM      9  N   UNL     1       5.357  -3.111   2.905  0.00  0.00    -0.292 N 
ATOM     10  C   UNL     1       6.456  -3.769   2.484  0.00  0.00    +0.298 C 
ATOM     11  O   UNL     1       6.343  -4.818   1.881  0.00  0.00    -0.253 OA
ATOM     12  N   UNL     1       7.680  -3.263   2.733  0.00  0.00    -0.313 N 
ATOM     13  H   UNL     1       5.443  -2.240   3.322  0.00  0.00    +0.151 HD
ATOM     14  H   UNL     1       7.770  -2.426   3.215  0.00  0.00    +0.146 HD
ATOM     15  H   UNL     1       8.471  -3.736   2.430  0.00  0.00    +0.146 HD
ENDBRANCH   1   9
BRANCH   1  16
ATOM     16  C   UNL     1       2.970  -2.612   2.714  0.00  0.00    +0.123 C 
BRANCH  16  18
ATOM     17  N   UNL     1       2.349  -0.696   1.278  0.00  0.00    -0.311 N 
ATOM     18  C   UNL     1       3.173  -1.739   1.502  0.00  0.00    +0.215 C 
ATOM     19  O   UNL     1       4.077  -1.974   0.730  0.00  0.00    -0.276 OA
ATOM     20  H   UNL     1       1.625  -0.508   1.896  0.00  0.00    +0.149 HD
BRANCH  17  21
ATOM     21  C   UNL     1       2.545   0.152   0.100  0.00  0.00    +0.146 C 
BRANCH  21  23
ATOM     22  C   UNL     1       1.855   2.493   0.212  0.00  0.00    +0.021 C 
ATOM     23  C   UNL     1       1.499   1.237   0.082  0.00  0.00    +0.005 C 
ATOM     24 BR   UNL     1      -0.326   0.788  -0.127  0.00  0.00    -0.054 Br
ENDBRANCH  21  23
ENDBRANCH  17  21
ENDBRANCH  16  18
ENDBRANCH   1  16
TORSDOF 6
