REMARK  Name = ZINC08860122
REMARK  9 active torsions:
REMARK  status: ('A' for Active; 'I' for Inactive)
REMARK    1  A    between atoms: C_1  and  C_2
REMARK    2  A    between atoms: C_2  and  C_3
REMARK    3  A    between atoms: C_7  and  C_27
REMARK    4  A    between atoms: C_8  and  N_9
REMARK    5  A    between atoms: N_11  and  C_12
REMARK    6  A    between atoms: C_12  and  C_13
REMARK    7  A    between atoms: C_13  and  C_14
REMARK    8  A    between atoms: C_15  and  C_25
REMARK    9  A    between atoms: C_21  and  C_24
REMARK                            x       y       z     vdW  Elec       q    Type
REMARK                         _______ _______ _______ _____ _____    ______ ____
ROOT
ATOM      1  N   UNL     1      -1.312  -1.227   2.810  0.00  0.00    -0.295 N 
ATOM      2  C   UNL     1      -1.919  -1.789   3.900  0.00  0.00    +0.143 C 
ATOM      3  N   UNL     1      -3.277  -1.936   3.927  0.00  0.00    -0.367 N 
ATOM      4  S   UNL     1      -1.004  -2.294   5.190  0.00  0.00    -0.016 SA
ATOM      5  H   UNL     1      -3.812  -1.641   3.173  0.00  0.00    +0.161 HD
ATOM      6  H   UNL     1      -1.825  -0.670   2.203  0.00  0.00    +0.154 HD
ENDROOT
BRANCH   1  12
ATOM      7  C   UNL     1       0.991  -0.522   2.978  0.00  0.00    -0.026 A 
ATOM      8  C   UNL     1       2.333  -0.753   2.744  0.00  0.00    +0.005 A 
ATOM      9  C   UNL     1       2.736  -1.909   2.101  0.00  0.00    +0.001 A 
ATOM     10  C   UNL     1       1.797  -2.837   1.689  0.00  0.00    +0.005 A 
ATOM     11  C   UNL     1       0.454  -2.613   1.920  0.00  0.00    -0.029 A 
ATOM     12  C   UNL     1       0.047  -1.455   2.571  0.00  0.00    +0.039 A 
ATOM     13  C   UNL     1      -0.568  -3.625   1.470  0.00  0.00    +0.045 C 
BRANCH   7  15
ATOM     14  C   UNL     1       0.397   0.460   5.176  0.00  0.00    +0.009 C 
ATOM     15  C   UNL     1       0.553   0.738   3.679  0.00  0.00    +0.033 C 
ENDBRANCH   7  15
ENDBRANCH   1  12
BRANCH   3  16
ATOM     16  C   UNL     1      -3.926  -2.538   5.094  0.00  0.00    +0.119 C 
BRANCH  16  17
ATOM     17  C   UNL     1      -5.439  -2.583   4.869  0.00  0.00    +0.058 C 
BRANCH  17  18
ATOM     18  C   UNL     1      -6.107  -3.202   6.070  0.00  0.00    -0.018 A 
ATOM     19  C   UNL     1      -6.359  -4.507   6.259  0.00  0.00    +0.017 A 
ATOM     20  N   UNL     1      -6.977  -4.693   7.466  0.00  0.00    -0.358 N 
ATOM     21  H   UNL     1      -7.257  -5.551   7.822  0.00  0.00    +0.166 HD
ATOM     22  C   UNL     1      -7.142  -3.481   8.099  0.00  0.00    +0.047 A 
ATOM     23  C   UNL     1      -6.598  -2.495   7.255  0.00  0.00    +0.003 A 
ATOM     24  C   UNL     1      -6.619  -1.155   7.646  0.00  0.00    +0.013 A 
ATOM     25  C   UNL     1      -7.166  -0.808   8.850  0.00  0.00    -0.050 A 
ATOM     26  C   UNL     1      -7.700  -1.778   9.687  0.00  0.00    +0.005 A 
ATOM     27  C   UNL     1      -7.697  -3.105   9.317  0.00  0.00    +0.026 A 
ATOM     28  C   UNL     1      -7.189   0.638   9.271  0.00  0.00    +0.044 C 
ATOM     29  C   UNL     1      -6.014  -5.605   5.286  0.00  0.00    +0.063 C 
ENDBRANCH  17  18
ENDBRANCH  16  17
ENDBRANCH   3  16
TORSDOF 5
