REMARK  Name = ZINC37425254
REMARK  13 active torsions:
REMARK  status: ('A' for Active; 'I' for Inactive)
REMARK    1  A    between atoms: C_1  and  C_2
REMARK    2  A    between atoms: C_6  and  N_9
REMARK    3  A    between atoms: C_7  and  C_8
REMARK    4  A    between atoms: C_12  and  C_14
REMARK    5  A    between atoms: C_14  and  C_15
REMARK    6  A    between atoms: C_14  and  C_16
REMARK    7  A    between atoms: C_14  and  C_17
REMARK    8  A    between atoms: C_18  and  C_32
REMARK    9  A    between atoms: N_24  and  C_25
REMARK   10  A    between atoms: C_25  and  C_26
REMARK   11  A    between atoms: N_28  and  C_29
REMARK   12  A    between atoms: C_29  and  C_30
REMARK   13  A    between atoms: C_29  and  C_31
REMARK                            x       y       z     vdW  Elec       q    Type
REMARK                         _______ _______ _______ _____ _____    ______ ____
ROOT
ATOM      1  N   UNL     1      -2.235  -2.472   3.312  0.00  0.00    -0.217 N 
ATOM      2  C   UNL     1      -2.942  -3.507   3.825  0.00  0.00    +0.136 A 
ATOM      3  C   UNL     1      -2.239  -4.027   4.858  0.00  0.00    +0.034 A 
ATOM      4  C   UNL     1      -1.058  -3.293   4.984  0.00  0.00    +0.075 A 
ATOM      5  N   UNL     1      -1.050  -2.365   4.057  0.00  0.00    -0.169 NA
ATOM      6  C   UNL     1      -2.685  -5.191   5.704  0.00  0.00    +0.112 C 
ATOM      7  S   UNL     1      -2.515  -6.725   4.723  0.00  0.00    -0.138 S 
ATOM      8  C   UNL     1      -3.104  -6.188   3.082  0.00  0.00    +0.166 C 
ATOM      9  C   UNL     1      -4.317  -5.317   3.212  0.00  0.00    +0.231 C 
ATOM     10  O   UNL     1      -5.423  -5.810   3.146  0.00  0.00    -0.274 OA
ATOM     11  N   UNL     1      -4.185  -4.000   3.400  0.00  0.00    -0.246 N 
ENDROOT
BRANCH   1  17
ATOM     12  C   UNL     1      -1.451  -0.897  -1.280  0.00  0.00    +0.044 C 
ATOM     13  C   UNL     1      -2.252  -0.879  -0.004  0.00  0.00    -0.046 A 
ATOM     14  C   UNL     1      -3.362  -0.061   0.104  0.00  0.00    +0.004 A 
ATOM     15  C   UNL     1      -4.098  -0.042   1.274  0.00  0.00    +0.002 A 
ATOM     16  C   UNL     1      -3.728  -0.840   2.339  0.00  0.00    +0.028 A 
ATOM     17  C   UNL     1      -2.614  -1.662   2.233  0.00  0.00    +0.071 A 
ATOM     18  C   UNL     1      -1.879  -1.683   1.055  0.00  0.00    -0.022 A 
ATOM     19  C   UNL     1      -0.673  -2.579   0.935  0.00  0.00    +0.046 C 
ENDBRANCH   1  17
BRANCH   6  20
ATOM     20  C   UNL     1      -1.825  -5.278   6.939  0.00  0.00    -0.030 A 
ATOM     21  C   UNL     1      -2.223  -4.647   8.103  0.00  0.00    +0.008 A 
ATOM     22  C   UNL     1      -1.435  -4.727   9.236  0.00  0.00    +0.038 A 
ATOM     23  C   UNL     1      -0.248  -5.438   9.205  0.00  0.00    +0.123 A 
ATOM     24  C   UNL     1       0.149  -6.070   8.038  0.00  0.00    +0.038 A 
ATOM     25  C   UNL     1      -0.643  -5.993   6.908  0.00  0.00    +0.008 A 
ATOM     26  F   UNL     1       0.523  -5.516  10.312  0.00  0.00    -0.205 F 
ENDBRANCH   6  20
BRANCH   4  27
ATOM     27  C   UNL     1       0.024  -3.530   6.006  0.00  0.00    +0.007 C 
ATOM     28  C   UNL     1       0.741  -4.845   5.694  0.00  0.00    +0.017 C 
ATOM     29  C   UNL     1       1.029  -2.377   5.961  0.00  0.00    +0.017 C 
ATOM     30  C   UNL     1      -0.600  -3.607   7.401  0.00  0.00    +0.017 C 
ENDBRANCH   4  27
BRANCH  11  31
ATOM     31  C   UNL     1      -5.312  -3.093   3.169  0.00  0.00    +0.210 C 
BRANCH  31  32
ATOM     32  C   UNL     1      -5.416  -2.787   1.697  0.00  0.00    +0.231 C 
ATOM     33  O   UNL     1      -4.644  -3.300   0.915  0.00  0.00    -0.274 OA
ATOM     34  N   UNL     1      -6.366  -1.942   1.250  0.00  0.00    -0.312 N 
ATOM     35  H   UNL     1      -6.952  -1.494   1.880  0.00  0.00    +0.149 HD
BRANCH  34  36
ATOM     36  C   UNL     1      -6.516  -1.702  -0.187  0.00  0.00    +0.067 C 
ATOM     37  C   UNL     1      -7.462  -2.747  -0.783  0.00  0.00    +0.027 C 
ATOM     38  C   UNL     1      -7.093  -0.303  -0.413  0.00  0.00    +0.027 C 
ENDBRANCH  34  36
ENDBRANCH  31  32
ENDBRANCH  11  31
TORSDOF 6
