REMARK  Name = ZINC40343325
REMARK  8 active torsions:
REMARK  status: ('A' for Active; 'I' for Inactive)
REMARK    1  A    between atoms: C_1  and  C_2
REMARK    2  A    between atoms: C_2  and  C_3
REMARK    3  A    between atoms: C_3  and  O_4
REMARK    4  A    between atoms: O_4  and  C_5
REMARK    5  A    between atoms: C_9  and  C_11
REMARK    6  A    between atoms: C_14  and  C_32
REMARK    7  A    between atoms: N_21  and  C_22
REMARK    8  A    between atoms: C_22  and  C_23
REMARK                            x       y       z     vdW  Elec       q    Type
REMARK                         _______ _______ _______ _____ _____    ______ ____
ROOT
ATOM      1  C   UNL     1       2.148  -6.065   3.443  0.00  0.00    +0.142 C 
ATOM      2  C   UNL     1       1.110  -6.593   4.395  0.00  0.00    +0.035 A 
ATOM      3  C   UNL     1      -0.246  -6.703   4.719  0.00  0.00    +0.099 A 
ATOM      4  N   UNL     1      -0.330  -7.400   5.835  0.00  0.00    -0.173 NA
ATOM      5  N   UNL     1       0.838  -7.741   6.248  0.00  0.00    -0.272 N 
ATOM      6  H   UNL     1       1.017  -8.258   7.049  0.00  0.00    +0.189 HD
ATOM      7  C   UNL     1       1.791  -7.268   5.391  0.00  0.00    +0.126 A 
ATOM      8  C   UNL     1       3.228  -7.189   5.109  0.00  0.00    +0.266 C 
ATOM      9  O   UNL     1       4.099  -7.684   5.798  0.00  0.00    -0.268 OA
ATOM     10  N   UNL     1       3.447  -6.493   3.977  0.00  0.00    -0.281 N 
ENDROOT
BRANCH   3  11
ATOM     11  C   UNL     1      -1.382  -6.138   3.948  0.00  0.00    +0.003 A 
ATOM     12  C   UNL     1      -1.242  -4.919   3.288  0.00  0.00    +0.011 A 
ATOM     13  C   UNL     1      -2.300  -4.399   2.573  0.00  0.00    +0.020 A 
ATOM     14  C   UNL     1      -3.501  -5.085   2.511  0.00  0.00    +0.041 A 
ATOM     15  C   UNL     1      -3.646  -6.296   3.165  0.00  0.00    +0.020 A 
ATOM     16  C   UNL     1      -2.590  -6.828   3.878  0.00  0.00    +0.011 A 
ATOM     17 CL   UNL     1      -4.830  -4.424   1.610  0.00  0.00    -0.084 Cl
ENDBRANCH   3  11
BRANCH   1  22
ATOM     18  C   UNL     1       1.385  -2.554   2.273  0.00  0.00    +0.121 A 
ATOM     19  C   UNL     1       1.962  -1.797   3.283  0.00  0.00    +0.045 A 
ATOM     20  C   UNL     1       2.595  -2.424   4.339  0.00  0.00    +0.004 A 
ATOM     21  C   UNL     1       2.654  -3.804   4.390  0.00  0.00    +0.006 A 
ATOM     22  C   UNL     1       2.081  -4.561   3.384  0.00  0.00    -0.019 A 
ATOM     23  C   UNL     1       1.442  -3.939   2.329  0.00  0.00    +0.051 A 
BRANCH  18  24
ATOM     24  O   UNL     1       0.761  -1.940   1.234  0.00  0.00    -0.492 OA
BRANCH  24  25
ATOM     25  C   UNL     1       0.742  -0.511   1.242  0.00  0.00    +0.229 C 
BRANCH  25  27
ATOM     26  C   UNL     1      -0.019   1.526   0.010  0.00  0.00    +0.007 C 
ATOM     27  C   UNL     1       0.002  -0.004   0.002  0.00  0.00    +0.038 C 
ENDBRANCH  25  27
ENDBRANCH  24  25
ENDBRANCH  18  24
ENDBRANCH   1  22
BRANCH  10  28
ATOM     28  C   UNL     1       4.755  -6.210   3.381  0.00  0.00    +0.144 C 
BRANCH  28  29
ATOM     29  C   UNL     1       5.288  -4.913   3.932  0.00  0.00    -0.026 A 
ATOM     30  C   UNL     1       4.993  -3.720   3.298  0.00  0.00    +0.009 A 
ATOM     31  C   UNL     1       5.479  -2.528   3.800  0.00  0.00    +0.050 A 
ATOM     32  C   UNL     1       6.265  -2.525   4.941  0.00  0.00    +0.166 A 
ATOM     33  C   UNL     1       6.563  -3.726   5.580  0.00  0.00    +0.167 A 
ATOM     34  C   UNL     1       6.067  -4.917   5.074  0.00  0.00    +0.054 A 
ATOM     35  O   UNL     1       7.343  -3.460   6.668  0.00  0.00    -0.453 OA
ATOM     36  C   UNL     1       7.857  -2.131   6.456  0.00  0.00    +0.466 C 
ATOM     37  O   UNL     1       6.859  -1.506   5.629  0.00  0.00    -0.453 OA
ENDBRANCH  28  29
ENDBRANCH  10  28
TORSDOF 7
