REMARK  Name = ZINC13499598
REMARK  16 active torsions:
REMARK  status: ('A' for Active; 'I' for Inactive)
REMARK    1  A    between atoms: C_1  and  C_2
REMARK    2  A    between atoms: C_2  and  C_3
REMARK    3  A    between atoms: C_3  and  C_4
REMARK    4  A    between atoms: C_4  and  C_6
REMARK    5  A    between atoms: C_4  and  N_15
REMARK    6  A    between atoms: N_10  and  C_11
REMARK    7  A    between atoms: C_11  and  C_12
REMARK    8  A    between atoms: C_12  and  O_13
REMARK    9  A    between atoms: O_13  and  C_14
REMARK   10  A    between atoms: N_15  and  C_16
REMARK   11  A    between atoms: N_15  and  C_24
REMARK   12  A    between atoms: C_16  and  C_17
REMARK   13  A    between atoms: C_20  and  C_23
REMARK   14  A    between atoms: C_24  and  C_25
REMARK   15  A    between atoms: C_28  and  C_38
REMARK   16  A    between atoms: C_30  and  C_37
REMARK                            x       y       z     vdW  Elec       q    Type
REMARK                         _______ _______ _______ _____ _____    ______ ____
ROOT
ATOM      1  N   UNL     1       1.876  -2.713  -0.100  0.00  0.00    -0.284 NA
ENDROOT
BRANCH   1   2
ATOM      2  C   UNL     1       1.585  -2.487  -1.522  0.00  0.00    +0.127 C 
BRANCH   2   3
ATOM      3  C   UNL     1       2.619  -3.188  -2.364  0.00  0.00    +0.168 A 
ATOM      4  N   UNL     1       3.916  -3.189  -2.171  0.00  0.00    -0.112 NA
ATOM      5  N   UNL     1       4.456  -3.900  -3.100  0.00  0.00    -0.023 NA
ATOM      6  N   UNL     1       3.537  -4.353  -3.880  0.00  0.00    -0.044 NA
ATOM      7  N   UNL     1       2.391  -3.940  -3.457  0.00  0.00    -0.226 N 
BRANCH   7   8
ATOM      8  C   UNL     1       1.086  -4.231  -4.055  0.00  0.00    +0.175 C 
BRANCH   8   9
ATOM      9  C   UNL     1       0.750  -3.160  -5.094  0.00  0.00    +0.183 C 
BRANCH   9  10
ATOM     10  O   UNL     1      -0.523  -3.444  -5.678  0.00  0.00    -0.381 OA
ATOM     11  C   UNL     1      -0.933  -2.499  -6.667  0.00  0.00    +0.194 C 
ENDBRANCH   9  10
ENDBRANCH   8   9
ENDBRANCH   7   8
ENDBRANCH   2   3
BRANCH   2  12
ATOM     12  C   UNL     1       1.619  -0.986  -1.817  0.00  0.00    +0.026 C 
BRANCH  12  14
ATOM     13  C   UNL     1       0.452   1.189  -1.428  0.00  0.00    +0.004 C 
ATOM     14  C   UNL     1       0.519  -0.284  -1.018  0.00  0.00    -0.001 C 
ENDBRANCH  12  14
ENDBRANCH   2  12
ENDBRANCH   1   2
BRANCH   1  15
ATOM     15  C   UNL     1       2.894  -1.771   0.386  0.00  0.00    +0.120 C 
BRANCH  15  16
ATOM     16  C   UNL     1       3.388  -2.218   1.737  0.00  0.00    -0.033 A 
ATOM     17  C   UNL     1       2.786  -1.741   2.886  0.00  0.00    +0.005 A 
ATOM     18  C   UNL     1       3.240  -2.151   4.126  0.00  0.00    +0.003 A 
ATOM     19  C   UNL     1       4.296  -3.039   4.216  0.00  0.00    -0.050 A 
ATOM     20  C   UNL     1       4.897  -3.517   3.067  0.00  0.00    +0.003 A 
ATOM     21  C   UNL     1       4.441  -3.110   1.827  0.00  0.00    +0.005 A 
ATOM     22  C   UNL     1       4.791  -3.485   5.568  0.00  0.00    +0.044 C 
ENDBRANCH  15  16
ENDBRANCH   1  15
BRANCH   1  23
ATOM     23  C   UNL     1       0.652  -2.628   0.708  0.00  0.00    +0.126 C 
BRANCH  23  24
ATOM     24  C   UNL     1      -0.126  -3.912   0.578  0.00  0.00    +0.032 A 
ATOM     25  C   UNL     1       0.073  -4.916   1.467  0.00  0.00    +0.020 A 
ATOM     26  C   UNL     1      -0.700  -6.150   1.312  0.00  0.00    +0.002 A 
ATOM     27  C   UNL     1      -0.538  -7.220   2.199  0.00  0.00    -0.041 A 
ATOM     28  C   UNL     1      -1.275  -8.358   2.027  0.00  0.00    +0.007 A 
ATOM     29  C   UNL     1      -2.181  -8.462   0.981  0.00  0.00    -0.048 A 
ATOM     30  C   UNL     1      -2.356  -7.420   0.096  0.00  0.00    +0.029 A 
ATOM     31  C   UNL     1      -1.618  -6.252   0.251  0.00  0.00    +0.050 A 
ATOM     32  N   UNL     1      -1.774  -5.194  -0.620  0.00  0.00    -0.322 N 
ATOM     33  H   UNL     1      -2.407  -5.265  -1.351  0.00  0.00    +0.169 HD
ATOM     34  C   UNL     1      -1.064  -4.062  -0.467  0.00  0.00    +0.254 A 
ATOM     35  O   UNL     1      -1.231  -3.145  -1.252  0.00  0.00    -0.268 OA
ATOM     36  C   UNL     1      -2.982  -9.727   0.812  0.00  0.00    +0.044 C 
ATOM     37  C   UNL     1       0.444  -7.118   3.337  0.00  0.00    +0.044 C 
ENDBRANCH  23  24
ENDBRANCH   1  23
TORSDOF 11
