REMARK  Name = ZINC59794998
REMARK  11 active torsions:
REMARK  status: ('A' for Active; 'I' for Inactive)
REMARK    1  A    between atoms: C_1  and  O_2
REMARK    2  A    between atoms: O_2  and  C_3
REMARK    3  A    between atoms: C_3  and  C_5
REMARK    4  A    between atoms: C_9  and  N_10
REMARK    5  A    between atoms: C_11  and  C_13
REMARK    6  A    between atoms: C_13  and  C_14
REMARK    7  A    between atoms: C_14  and  S_15
REMARK    8  A    between atoms: S_15  and  C_16
REMARK    9  A    between atoms: C_19  and  C_24
REMARK   10  A    between atoms: N_20  and  C_21
REMARK   11  A    between atoms: C_21  and  C_22
REMARK                            x       y       z     vdW  Elec       q    Type
REMARK                         _______ _______ _______ _____ _____    ______ ____
ROOT
ATOM      1  C   UNL     1      -0.863  -2.935  -4.932  0.00  0.00    +0.107 C 
ENDROOT
BRANCH   1   3
ATOM      2  N   UNL     1      -0.229  -2.692  -2.553  0.00  0.00    -0.279 N 
ATOM      3  C   UNL     1      -0.333  -3.490  -3.635  0.00  0.00    +0.218 C 
ATOM      4  O   UNL     1       0.000  -4.654  -3.564  0.00  0.00    -0.275 OA
ATOM      5  H   UNL     1      -0.496  -1.761  -2.610  0.00  0.00    +0.155 HD
BRANCH   2  10
ATOM      6  C   UNL     1       0.433  -2.535  -0.156  0.00  0.00    +0.091 A 
ATOM      7  C   UNL     1       0.959  -3.305   0.958  0.00  0.00    -0.021 A 
ATOM      8  C   UNL     1       1.219  -4.597   0.663  0.00  0.00    -0.004 A 
ATOM      9  S   UNL     1       0.774  -4.767  -1.040  0.00  0.00    -0.077 S 
ATOM     10  C   UNL     1       0.258  -3.202  -1.360  0.00  0.00    +0.086 A 
ATOM     11  C   UNL     1       1.766  -5.639   1.589  0.00  0.00    +0.043 C 
ATOM     12  C   UNL     1       2.342  -4.931   2.825  0.00  0.00    +0.005 C 
ATOM     13  C   UNL     1       1.319  -3.913   3.335  0.00  0.00    +0.005 C 
ATOM     14  C   UNL     1       1.209  -2.747   2.351  0.00  0.00    +0.037 C 
BRANCH   6  15
ATOM     15  C   UNL     1       0.095  -1.118  -0.012  0.00  0.00    +0.342 C 
ATOM     16  O   UNL     1      -1.024  -0.791   0.334  0.00  0.00    -0.245 OA
BRANCH  15  18
ATOM     17  C   UNL     1       0.628   1.189  -0.104  0.00  0.00    +0.280 C 
ATOM     18  O   UNL     1       1.026  -0.174  -0.264  0.00  0.00    -0.464 OA
ENDBRANCH  15  18
ENDBRANCH   6  15
ENDBRANCH   2  10
ENDBRANCH   1   3
BRANCH   1  19
ATOM     19  C   UNL     1      -0.877  -4.040  -5.991  0.00  0.00    +0.086 C 
BRANCH  19  20
ATOM     20  S   UNL     1      -1.515  -3.372  -7.552  0.00  0.00    -0.086 S 
BRANCH  20  21
ATOM     21  C   UNL     1      -1.469  -4.747  -8.653  0.00  0.00    +0.192 A 
ATOM     22  N   UNL     1      -1.064  -5.964  -8.365  0.00  0.00    -0.122 NA
ATOM     23  N   UNL     1      -1.165  -6.719  -9.400  0.00  0.00    -0.128 NA
ATOM     24  C   UNL     1      -1.639  -6.031 -10.412  0.00  0.00    +0.165 A 
ATOM     25  N   UNL     1      -1.854  -4.748  -9.964  0.00  0.00    -0.298 N 
BRANCH  24  26
ATOM     26  C   UNL     1      -1.899  -6.540 -11.776  0.00  0.00    +0.019 A 
ATOM     27  C   UNL     1      -1.726  -5.705 -12.881  0.00  0.00    +0.013 A 
ATOM     28  C   UNL     1      -1.970  -6.186 -14.150  0.00  0.00    +0.021 A 
ATOM     29  C   UNL     1      -2.386  -7.495 -14.330  0.00  0.00    +0.041 A 
ATOM     30  C   UNL     1      -2.560  -8.328 -13.238  0.00  0.00    +0.021 A 
ATOM     31  C   UNL     1      -2.313  -7.860 -11.964  0.00  0.00    +0.013 A 
ATOM     32 CL   UNL     1      -2.692  -8.092 -15.931  0.00  0.00    -0.084 Cl
ENDBRANCH  24  26
BRANCH  25  33
ATOM     33  C   UNL     1      -2.382  -3.619 -10.733  0.00  0.00    +0.152 C 
BRANCH  33  34
ATOM     34  C   UNL     1      -1.238  -2.787 -11.253  0.00  0.00    -0.013 C 
ATOM     35  C   UNL     1      -1.163  -2.503 -12.530  0.00  0.00    +0.005 C 
ENDBRANCH  33  34
ENDBRANCH  25  33
ENDBRANCH  20  21
ENDBRANCH  19  20
ENDBRANCH   1  19
TORSDOF 10
