REMARK  Name = ZINC12463219
REMARK  10 active torsions:
REMARK  status: ('A' for Active; 'I' for Inactive)
REMARK    1  A    between atoms: C_1  and  C_2
REMARK    2  A    between atoms: C_6  and  C_7
REMARK    3  A    between atoms: C_9  and  C_31
REMARK    4  A    between atoms: C_10  and  N_30
REMARK    5  A    between atoms: C_17  and  C_19
REMARK    6  A    between atoms: C_17  and  C_20
REMARK    7  A    between atoms: C_24  and  S_26
REMARK    8  A    between atoms: S_26  and  C_27
REMARK    9  A    between atoms: C_27  and  C_28
REMARK   10  A    between atoms: C_27  and  C_29
REMARK                            x       y       z     vdW  Elec       q    Type
REMARK                         _______ _______ _______ _____ _____    ______ ____
ROOT
ATOM      1  C   UNL     1       1.291   2.209   0.009  0.00  0.00    +0.104 C 
ATOM      2  C   UNL     1       0.010   1.428   0.006  0.00  0.00    +0.077 C 
ATOM      3  C   UNL     1      -1.195   2.056   0.013  0.00  0.00    +0.108 C 
ATOM      4  N   UNL     1      -1.257   3.431   0.026  0.00  0.00    -0.237 N 
ATOM      5  C   UNL     1      -0.180   4.180  -0.371  0.00  0.00    +0.027 C 
ATOM      6  C   UNL     1       1.058   3.641  -0.404  0.00  0.00    +0.026 C 
ATOM      7  C   UNL     1       2.166   4.396  -0.825  0.00  0.00    +0.162 C 
ATOM      8  O   UNL     1       3.267   3.883  -0.836  0.00  0.00    -0.292 OA
ATOM      9  C   UNL     1       2.014   5.827  -1.262  0.00  0.00    +0.086 C 
ATOM     10  C   UNL     1       0.606   6.029  -1.831  0.00  0.00    -0.023 C 
ATOM     11  C   UNL     1      -0.412   5.618  -0.765  0.00  0.00    +0.058 C 
ATOM     12  C   UNL     1       0.425   5.158  -3.076  0.00  0.00    +0.011 C 
ATOM     13  C   UNL     1       0.401   7.500  -2.198  0.00  0.00    +0.011 C 
ATOM     14  C   UNL     1      -2.425   4.067   0.442  0.00  0.00    +0.194 A 
ATOM     15  N   UNL     1      -3.444   4.523  -0.268  0.00  0.00    -0.124 NA
ATOM     16  N   UNL     1      -4.438   5.082   0.272  0.00  0.00    -0.133 NA
ATOM     17  C   UNL     1      -4.522   5.247   1.584  0.00  0.00    +0.160 A 
ATOM     18  S   UNL     1      -2.978   4.495   2.091  0.00  0.00    -0.024 S 
ENDROOT
BRANCH   1  24
ATOM     19  C   UNL     1       4.031   1.081   0.818  0.00  0.00    +0.044 C 
ATOM     20  C   UNL     1       3.078   1.702   1.806  0.00  0.00    -0.039 A 
ATOM     21  C   UNL     1       3.414   1.791   3.144  0.00  0.00    +0.011 A 
ATOM     22  C   UNL     1       2.532   2.349   4.008  0.00  0.00    +0.046 A 
ATOM     23  S   UNL     1       1.178   2.778   2.927  0.00  0.00    -0.100 S 
ATOM     24  C   UNL     1       1.880   2.185   1.396  0.00  0.00    +0.005 A 
ENDBRANCH   1  24
BRANCH   3  25
ATOM     25  N   UNL     1      -2.353   1.317   0.011  0.00  0.00    -0.345 N 
ATOM     26  H   UNL     1      -2.312   0.350   0.079  0.00  0.00    +0.144 HD
ATOM     27  H   UNL     1      -3.213   1.761  -0.058  0.00  0.00    +0.144 HD
ENDBRANCH   3  25
BRANCH   2  28
ATOM     28  C   UNL     1       0.058  -0.003  -0.012  0.00  0.00    +0.099 C 
ATOM     29  N   UNL     1       0.096  -1.138  -0.025  0.00  0.00    -0.191 NA
ENDBRANCH   2  28
BRANCH  17  30
ATOM     30  S   UNL     1      -5.793   5.987   2.554  0.00  0.00    -0.094 S 
BRANCH  30  31
ATOM     31  C   UNL     1      -7.030   6.507   1.333  0.00  0.00    +0.047 C 
ATOM     32  C   UNL     1      -7.621   5.273   0.649  0.00  0.00    +0.019 C 
ATOM     33  C   UNL     1      -8.145   7.284   2.035  0.00  0.00    +0.019 C 
ENDBRANCH  30  31
ENDBRANCH  17  30
TORSDOF 5
