REMARK  Name = ZINC24286192
REMARK  3 active torsions:
REMARK  status: ('A' for Active; 'I' for Inactive)
REMARK    1  A    between atoms: C_12  and  S_13
REMARK    2  A    between atoms: S_13  and  C_14
REMARK    3  A    between atoms: C_14  and  C_15
REMARK                            x       y       z     vdW  Elec       q    Type
REMARK                         _______ _______ _______ _____ _____    ______ ____
ROOT
ATOM      1  C   UNL     1       1.220  -0.662  -0.013  0.00  0.00    +0.002 A 
ATOM      2  C   UNL     1       0.002  -0.004   0.002  0.00  0.00    +0.001 A 
ATOM      3  C   UNL     1      -0.017   1.380   0.010  0.00  0.00    +0.017 A 
ATOM      4  C   UNL     1       1.171   2.074   0.002  0.00  0.00    +0.040 A 
ATOM      5  C   UNL     1       2.416   1.437  -0.013  0.00  0.00    +0.065 A 
ATOM      6  C   UNL     1       2.406   0.033  -0.021  0.00  0.00    +0.027 A 
ATOM      7  N   UNL     1       3.550   2.264  -0.019  0.00  0.00    -0.264 N 
ATOM      8  C   UNL     1       3.358   3.620  -0.010  0.00  0.00    +0.202 A 
ATOM      9  S   UNL     1       1.591   3.800   0.008  0.00  0.00    -0.048 S 
ATOM     10  N   UNL     1       4.506   4.230  -0.017  0.00  0.00    -0.121 NA
ATOM     11  N   UNL     1       5.506   3.248  -0.032  0.00  0.00    -0.121 NA
ATOM     12  C   UNL     1       4.924   2.077  -0.033  0.00  0.00    +0.197 A 
ENDROOT
BRANCH  12  13
ATOM     13  S   UNL     1       5.748   0.520  -0.050  0.00  0.00    -0.079 S 
BRANCH  13  14
ATOM     14  C   UNL     1       7.509   0.957  -0.064  0.00  0.00    +0.134 C 
BRANCH  14  15
ATOM     15  C   UNL     1       8.338  -0.302  -0.079  0.00  0.00    +0.070 A 
ATOM     16  C   UNL     1       8.787  -0.963   1.010  0.00  0.00    +0.116 A 
ATOM     17  N   UNL     1       9.492  -2.047   0.563  0.00  0.00    -0.305 N 
ATOM     18  C   UNL     1      10.156  -3.049   1.212  0.00  0.00    +0.112 A 
ATOM     19  C   UNL     1      10.790  -4.016   0.515  0.00  0.00    +0.058 A 
ATOM     20  C   UNL     1      10.775  -4.004  -0.890  0.00  0.00    +0.025 A 
ATOM     21  C   UNL     1      10.117  -3.012  -1.548  0.00  0.00    +0.048 A 
ATOM     22  C   UNL     1       9.460  -2.009  -0.806  0.00  0.00    +0.138 A 
ATOM     23  N   UNL     1       8.757  -0.946  -1.171  0.00  0.00    -0.232 NA
ATOM     24 CL   UNL     1      11.629  -5.280   1.359  0.00  0.00    -0.082 Cl
ENDBRANCH  14  15
ENDBRANCH  13  14
ENDBRANCH  12  13
TORSDOF 3
