REMARK  Name = ZINC16569950
REMARK  7 active torsions:
REMARK  status: ('A' for Active; 'I' for Inactive)
REMARK    1  A    between atoms: C_1  and  C_2
REMARK    2  A    between atoms: C_2  and  C_3
REMARK    3  A    between atoms: C_6  and  N_9
REMARK    4  A    between atoms: N_12  and  C_13
REMARK    5  A    between atoms: N_12  and  C_37
REMARK    6  A    between atoms: C_13  and  C_14
REMARK    7  A    between atoms: C_28  and  C_30
REMARK                            x       y       z     vdW  Elec       q    Type
REMARK                         _______ _______ _______ _____ _____    ______ ____
ROOT
ATOM      1  C   UNL     1       7.844   0.427   1.247  0.00  0.00    +0.238 C 
ATOM      2  O   UNL     1       7.378  -0.049   2.261  0.00  0.00    -0.273 OA
ATOM      3  N   UNL     1       8.938   1.212   1.311  0.00  0.00    -0.255 N 
ATOM      4  C   UNL     1       9.617   1.367   2.527  0.00  0.00    +0.061 A 
ATOM      5  C   UNL     1       9.609   0.354   3.473  0.00  0.00    +0.025 A 
ATOM      6  C   UNL     1      10.275   0.524   4.672  0.00  0.00    +0.002 A 
ATOM      7  C   UNL     1      10.951   1.701   4.937  0.00  0.00    +0.002 A 
ATOM      8  C   UNL     1      10.969   2.718   3.998  0.00  0.00    +0.028 A 
ATOM      9  C   UNL     1      10.309   2.553   2.796  0.00  0.00    +0.068 A 
ATOM     10  N   UNL     1      10.319   3.544   1.804  0.00  0.00    -0.316 N 
ATOM     11  C   UNL     1      10.696   4.843   1.871  0.00  0.00    +0.092 A 
ATOM     12  C   UNL     1      10.516   5.398   0.651  0.00  0.00    +0.020 A 
ATOM     13  C   UNL     1      10.008   4.394  -0.203  0.00  0.00    +0.025 A 
ATOM     14  C   UNL     1       9.898   3.273   0.520  0.00  0.00    +0.049 A 
ATOM     15  C   UNL     1       9.421   1.899   0.102  0.00  0.00    +0.159 C 
ENDROOT
BRANCH  15  16
ATOM     16  C   UNL     1      10.559   1.122  -0.508  0.00  0.00    -0.021 A 
ATOM     17  C   UNL     1      11.514   0.543   0.307  0.00  0.00    +0.008 A 
ATOM     18  C   UNL     1      12.555  -0.175  -0.251  0.00  0.00    +0.038 A 
ATOM     19  C   UNL     1      12.647  -0.305  -1.627  0.00  0.00    +0.123 A 
ATOM     20  C   UNL     1      11.692   0.281  -2.441  0.00  0.00    +0.038 A 
ATOM     21  C   UNL     1      10.649   0.993  -1.881  0.00  0.00    +0.008 A 
ATOM     22  F   UNL     1      13.667  -1.001  -2.173  0.00  0.00    -0.205 F 
ENDBRANCH  15  16
BRANCH   1  23
ATOM     23  C   UNL     1       7.198   0.141  -0.085  0.00  0.00    +0.205 C 
BRANCH  23  27
ATOM     24  N   UNL     1       4.684   1.282   0.087  0.00  0.00    -0.269 N 
ATOM     25  C   UNL     1       4.801  -0.043   0.310  0.00  0.00    +0.307 C 
ATOM     26  O   UNL     1       3.837  -0.684   0.681  0.00  0.00    -0.252 OA
ATOM     27  N   UNL     1       5.986  -0.655   0.121  0.00  0.00    -0.274 N 
ATOM     28  H   UNL     1       5.429   1.778  -0.285  0.00  0.00    +0.156 HD
BRANCH  24  32
ATOM     29  C   UNL     1       1.122   3.241   0.999  0.00  0.00    -0.048 A 
ATOM     30  C   UNL     1       1.100   1.915   0.610  0.00  0.00    +0.005 A 
ATOM     31  C   UNL     1       2.279   1.262   0.306  0.00  0.00    +0.023 A 
ATOM     32  C   UNL     1       3.488   1.940   0.394  0.00  0.00    +0.035 A 
ATOM     33  C   UNL     1       3.507   3.272   0.785  0.00  0.00    +0.023 A 
ATOM     34  C   UNL     1       2.324   3.919   1.086  0.00  0.00    +0.005 A 
BRANCH  29  36
ATOM     35  C   UNL     1      -0.734   4.600   0.072  0.00  0.00    +0.009 C 
ATOM     36  C   UNL     1      -0.166   3.948   1.335  0.00  0.00    +0.032 C 
ENDBRANCH  29  36
ENDBRANCH  24  32
BRANCH  27  37
ATOM     37  C   UNL     1       6.063  -2.119   0.122  0.00  0.00    +0.078 C 
ATOM     38  C   UNL     1       4.760  -2.894  -0.085  0.00  0.00    +0.024 C 
ATOM     39  C   UNL     1       5.419  -2.859   1.296  0.00  0.00    +0.024 C 
ENDBRANCH  27  37
ENDBRANCH  23  27
ENDBRANCH   1  23
TORSDOF 6
