REMARK  Name = ZINC53364073
REMARK  9 active torsions:
REMARK  status: ('A' for Active; 'I' for Inactive)
REMARK    1  A    between atoms: C_1  and  C_2
REMARK    2  A    between atoms: C_2  and  C_3
REMARK    3  A    between atoms: C_6  and  C_9
REMARK    4  A    between atoms: C_11  and  C_27
REMARK    5  A    between atoms: C_14  and  C_17
REMARK    6  A    between atoms: C_21  and  O_24
REMARK    7  A    between atoms: C_22  and  O_23
REMARK    8  A    between atoms: O_24  and  C_25
REMARK    9  A    between atoms: C_25  and  C_26
REMARK                            x       y       z     vdW  Elec       q    Type
REMARK                         _______ _______ _______ _____ _____    ______ ____
ROOT
ATOM      1  C   UNL     1       2.695  -1.860  -4.731  0.00  0.00    +0.047 C 
ATOM      2  N   UNL     1       2.002  -2.057  -5.788  0.00  0.00    -0.264 NA
ATOM      3  C   UNL     1       2.556  -2.515  -7.056  0.00  0.00    +0.204 C 
ATOM      4  N   UNL     1       3.883  -3.111  -6.856  0.00  0.00    -0.284 NA
ATOM      5  C   UNL     1       4.742  -2.194  -6.087  0.00  0.00    +0.095 C 
ATOM      6  C   UNL     1       4.180  -2.085  -4.668  0.00  0.00    +0.079 C 
ATOM      7  H   UNL     1       3.812  -4.008  -6.400  0.00  0.00    +0.125 HD
ENDROOT
BRANCH   3   8
ATOM      8  C   UNL     1       2.675  -1.345  -7.998  0.00  0.00    -0.008 A 
ATOM      9  C   UNL     1       3.669  -1.331  -8.960  0.00  0.00    +0.010 A 
ATOM     10  C   UNL     1       3.779  -0.259  -9.825  0.00  0.00    +0.040 A 
ATOM     11  C   UNL     1       2.894   0.802  -9.728  0.00  0.00    +0.137 A 
ATOM     12  C   UNL     1       1.899   0.787  -8.765  0.00  0.00    +0.053 A 
ATOM     13  C   UNL     1       1.788  -0.290  -7.904  0.00  0.00    +0.025 A 
ATOM     14 BR   UNL     1       0.689   2.234  -8.631  0.00  0.00    -0.047 Br
ATOM     15  F   UNL     1       3.001   1.851 -10.573  0.00  0.00    -0.204 F 
ENDBRANCH   3   8
BRANCH   1  19
ATOM     16  C   UNL     1       0.707  -0.490  -1.238  0.00  0.00    -0.048 A 
ATOM     17  C   UNL     1      -0.014  -0.718  -2.396  0.00  0.00    +0.004 A 
ATOM     18  C   UNL     1       0.625  -1.163  -3.535  0.00  0.00    +0.010 A 
ATOM     19  C   UNL     1       2.004  -1.383  -3.516  0.00  0.00    -0.004 A 
ATOM     20  C   UNL     1       2.726  -1.151  -2.344  0.00  0.00    +0.010 A 
ATOM     21  C   UNL     1       2.075  -0.701  -1.214  0.00  0.00    +0.004 A 
BRANCH  16  23
ATOM     22  C   UNL     1      -0.019   1.526   0.010  0.00  0.00    +0.009 C 
ATOM     23  C   UNL     1       0.002  -0.004   0.002  0.00  0.00    +0.032 C 
ENDBRANCH  16  23
ENDBRANCH   1  19
BRANCH   5  24
ATOM     24  C   UNL     1       6.148  -2.734  -6.040  0.00  0.00    +0.015 A 
ATOM     25  C   UNL     1       6.383  -4.073  -6.292  0.00  0.00    +0.009 A 
ATOM     26  C   UNL     1       7.672  -4.572  -6.249  0.00  0.00    +0.004 A 
ATOM     27  C   UNL     1       8.731  -3.733  -5.954  0.00  0.00    +0.049 A 
ATOM     28  C   UNL     1       8.502  -2.391  -5.701  0.00  0.00    +0.162 A 
ATOM     29  C   UNL     1       7.205  -1.888  -5.750  0.00  0.00    +0.163 A 
BRANCH  29  30
ATOM     30  O   UNL     1       6.976  -0.569  -5.508  0.00  0.00    -0.503 OA
ATOM     31  H   UNL     1       6.814  -0.363  -4.577  0.00  0.00    +0.292 HD
ENDBRANCH  29  30
BRANCH  28  32
ATOM     32  O   UNL     1       9.543  -1.565  -5.411  0.00  0.00    -0.489 OA
BRANCH  32  33
ATOM     33  C   UNL     1      10.847  -2.149  -5.383  0.00  0.00    +0.226 C 
ATOM     34  C   UNL     1      11.881  -1.074  -5.042  0.00  0.00    +0.048 C 
ENDBRANCH  32  33
ENDBRANCH  28  32
ENDBRANCH   5  24
TORSDOF 7
