REMARK  Name = ZINC35231826
REMARK  9 active torsions:
REMARK  status: ('A' for Active; 'I' for Inactive)
REMARK    1  A    between atoms: C_1  and  C_2
REMARK    2  A    between atoms: C_2  and  C_3
REMARK    3  A    between atoms: C_3  and  C_4
REMARK    4  A    between atoms: C_4  and  N_5
REMARK    5  A    between atoms: N_5  and  C_6
REMARK    6  A    between atoms: C_6  and  C_7
REMARK    7  A    between atoms: C_21  and  C_23
REMARK    8  A    between atoms: N_32  and  C_33
REMARK    9  A    between atoms: C_37  and  C_39
REMARK                            x       y       z     vdW  Elec       q    Type
REMARK                         _______ _______ _______ _____ _____    ______ ____
ROOT
ATOM      1  C   UNL     1      -3.421  -3.820  -1.877  0.00  0.00    +0.238 C 
ATOM      2  O   UNL     1      -2.754  -4.676  -1.336  0.00  0.00    -0.273 OA
ATOM      3  N   UNL     1      -4.102  -4.108  -3.004  0.00  0.00    -0.255 N 
ATOM      4  C   UNL     1      -4.134  -5.424  -3.485  0.00  0.00    +0.061 A 
ATOM      5  C   UNL     1      -4.038  -6.496  -2.611  0.00  0.00    +0.025 A 
ATOM      6  C   UNL     1      -4.061  -7.788  -3.100  0.00  0.00    +0.002 A 
ATOM      7  C   UNL     1      -4.179  -8.022  -4.458  0.00  0.00    +0.002 A 
ATOM      8  C   UNL     1      -4.280  -6.960  -5.339  0.00  0.00    +0.028 A 
ATOM      9  C   UNL     1      -4.264  -5.666  -4.857  0.00  0.00    +0.068 A 
ATOM     10  N   UNL     1      -4.391  -4.557  -5.707  0.00  0.00    -0.316 N 
ATOM     11  C   UNL     1      -4.302  -4.477  -7.056  0.00  0.00    +0.092 A 
ATOM     12  C   UNL     1      -4.491  -3.187  -7.415  0.00  0.00    +0.020 A 
ATOM     13  C   UNL     1      -4.707  -2.444  -6.233  0.00  0.00    +0.025 A 
ATOM     14  C   UNL     1      -4.644  -3.298  -5.207  0.00  0.00    +0.049 A 
ATOM     15  C   UNL     1      -4.815  -3.041  -3.725  0.00  0.00    +0.159 C 
ENDROOT
BRANCH  15  16
ATOM     16  C   UNL     1      -6.277  -3.068  -3.363  0.00  0.00    -0.021 A 
ATOM     17  C   UNL     1      -6.930  -4.279  -3.217  0.00  0.00    +0.008 A 
ATOM     18  C   UNL     1      -8.271  -4.305  -2.884  0.00  0.00    +0.038 A 
ATOM     19  C   UNL     1      -8.961  -3.119  -2.696  0.00  0.00    +0.123 A 
ATOM     20  C   UNL     1      -8.306  -1.908  -2.843  0.00  0.00    +0.038 A 
ATOM     21  C   UNL     1      -6.964  -1.884  -3.171  0.00  0.00    +0.008 A 
ATOM     22  F   UNL     1     -10.272  -3.144  -2.371  0.00  0.00    -0.205 F 
ENDBRANCH  15  16
BRANCH   1  23
ATOM     23  C   UNL     1      -3.488  -2.434  -1.290  0.00  0.00    +0.205 C 
BRANCH  23  24
ATOM     24  N   UNL     1      -2.772  -2.410  -0.012  0.00  0.00    -0.277 N 
ATOM     25  C   UNL     1      -3.429  -2.683   1.134  0.00  0.00    +0.307 C 
ATOM     26  O   UNL     1      -4.614  -2.950   1.106  0.00  0.00    -0.252 OA
ATOM     27  N   UNL     1      -2.770  -2.662   2.309  0.00  0.00    -0.269 N 
ATOM     28  H   UNL     1      -1.843  -2.376   2.341  0.00  0.00    +0.156 HD
BRANCH  27  29
ATOM     29  C   UNL     1      -3.423  -3.051   3.484  0.00  0.00    +0.035 A 
ATOM     30  C   UNL     1      -3.108  -2.438   4.691  0.00  0.00    +0.023 A 
ATOM     31  C   UNL     1      -3.754  -2.824   5.848  0.00  0.00    +0.002 A 
ATOM     32  C   UNL     1      -4.713  -3.820   5.808  0.00  0.00    +0.003 A 
ATOM     33  C   UNL     1      -5.029  -4.431   4.608  0.00  0.00    -0.049 A 
ATOM     34  C   UNL     1      -4.390  -4.046   3.446  0.00  0.00    +0.026 A 
ATOM     35  C   UNL     1      -6.074  -5.516   4.569  0.00  0.00    +0.044 C 
ENDBRANCH  27  29
BRANCH  24  36
ATOM     36  C   UNL     1      -1.343  -2.089   0.022  0.00  0.00    +0.110 C 
BRANCH  36  37
ATOM     37  C   UNL     1      -1.164  -0.579   0.185  0.00  0.00    +0.019 C 
BRANCH  37  39
ATOM     38  C   UNL     1       0.508   1.267   0.383  0.00  0.00    +0.004 C 
ATOM     39  C   UNL     1       0.329  -0.243   0.220  0.00  0.00    -0.002 C 
ENDBRANCH  37  39
ENDBRANCH  36  37
ENDBRANCH  24  36
ENDBRANCH  23  24
ENDBRANCH   1  23
TORSDOF 7
