REMARK  Name = ZINC53508089
REMARK  8 active torsions:
REMARK  status: ('A' for Active; 'I' for Inactive)
REMARK    1  A    between atoms: C_1  and  C_2
REMARK    2  A    between atoms: C_2  and  C_3
REMARK    3  A    between atoms: C_3  and  C_5
REMARK    4  A    between atoms: C_3  and  C_6
REMARK    5  A    between atoms: C_6  and  C_8
REMARK    6  A    between atoms: C_6  and  N_24
REMARK    7  A    between atoms: N_10  and  C_11
REMARK    8  A    between atoms: C_11  and  C_12
REMARK                            x       y       z     vdW  Elec       q    Type
REMARK                         _______ _______ _______ _____ _____    ______ ____
ROOT
ATOM      1  C   UNL     1       1.597  -2.568   2.384  0.00  0.00    +0.234 C 
ATOM      2  O   UNL     1       2.781  -2.821   2.323  0.00  0.00    -0.274 OA
ATOM      3  N   UNL     1       0.937  -2.706   3.552  0.00  0.00    -0.310 N 
ATOM      4  H   UNL     1      -0.010  -2.504   3.601  0.00  0.00    +0.149 HD
ENDROOT
BRANCH   1   5
ATOM      5  C   UNL     1       0.862  -2.098   1.155  0.00  0.00    +0.163 C 
BRANCH   5   6
ATOM      6  N   UNL     1       1.621  -2.473  -0.041  0.00  0.00    -0.288 N 
ATOM      7  C   UNL     1       2.875  -2.012  -0.215  0.00  0.00    +0.298 C 
ATOM      8  O   UNL     1       3.377  -1.285   0.620  0.00  0.00    -0.253 OA
ATOM      9  N   UNL     1       3.573  -2.357  -1.315  0.00  0.00    -0.313 N 
ATOM     10  H   UNL     1       1.221  -3.053  -0.707  0.00  0.00    +0.151 HD
ATOM     11  H   UNL     1       3.173  -2.937  -1.981  0.00  0.00    +0.146 HD
ATOM     12  H   UNL     1       4.476  -2.025  -1.440  0.00  0.00    +0.146 HD
ENDBRANCH   5   6
BRANCH   5  13
ATOM     13  C   UNL     1       0.707  -0.577   1.204  0.00  0.00    +0.015 C 
ATOM     14  C   UNL     1      -0.086  -0.185   2.453  0.00  0.00    +0.010 C 
BRANCH  13  16
ATOM     15  C   UNL     1      -0.085   1.429  -0.057  0.00  0.00    +0.004 C 
ATOM     16  C   UNL     1      -0.039  -0.100  -0.044  0.00  0.00    +0.002 C 
ENDBRANCH  13  16
ENDBRANCH   5  13
ENDBRANCH   1   5
BRANCH   3  17
ATOM     17  C   UNL     1       1.651  -3.163   4.746  0.00  0.00    +0.141 C 
BRANCH  17  18
ATOM     18  C   UNL     1       0.694  -3.233   5.908  0.00  0.00    -0.014 A 
ATOM     19  C   UNL     1       0.502  -2.127   6.726  0.00  0.00    +0.010 A 
ATOM     20  C   UNL     1      -0.386  -2.232   7.781  0.00  0.00    +0.042 A 
ATOM     21  C   UNL     1      -1.052  -3.437   7.987  0.00  0.00    +0.099 A 
ATOM     22  N   UNL     1      -0.842  -4.469   7.184  0.00  0.00    -0.349 N 
ATOM     23  C   UNL     1      -0.005  -4.394   6.167  0.00  0.00    +0.089 A 
ATOM     24  N   UNL     1      -1.947  -3.557   9.044  0.00  0.00    -0.317 N 
ATOM     25  C   UNL     1      -2.758  -4.771   9.203  0.00  0.00    +0.106 C 
ATOM     26  C   UNL     1      -2.552  -5.319  10.619  0.00  0.00    +0.019 C 
ATOM     27  C   UNL     1      -2.861  -4.220  11.637  0.00  0.00    +0.003 C 
ATOM     28  C   UNL     1      -1.901  -3.046  11.429  0.00  0.00    +0.019 C 
ATOM     29  C   UNL     1      -2.095  -2.475  10.026  0.00  0.00    +0.106 C 
ATOM     30  H   UNL     1      -1.317  -5.298   7.347  0.00  0.00    +0.167 HD
ENDBRANCH  17  18
ENDBRANCH   3  17
TORSDOF 6
