REMARK  Name = ZINC25667109
REMARK  9 active torsions:
REMARK  status: ('A' for Active; 'I' for Inactive)
REMARK    1  A    between atoms: C_1  and  C_2
REMARK    2  A    between atoms: N_4  and  C_5
REMARK    3  A    between atoms: C_5  and  C_6
REMARK    4  A    between atoms: C_9  and  C_11
REMARK    5  A    between atoms: C_14  and  C_16
REMARK    6  A    between atoms: C_20  and  O_24
REMARK    7  A    between atoms: C_21  and  O_22
REMARK    8  A    between atoms: O_22  and  C_23
REMARK    9  A    between atoms: O_24  and  C_25
REMARK                            x       y       z     vdW  Elec       q    Type
REMARK                         _______ _______ _______ _____ _____    ______ ____
ROOT
ATOM      1  C   UNL     1       3.387   2.575   3.670  0.00  0.00    +0.114 A 
ATOM      2  C   UNL     1       3.320   1.229   3.408  0.00  0.00    +0.078 A 
ATOM      3  S   UNL     1       1.770   1.140   2.521  0.00  0.00    -0.075 S 
ATOM      4  C   UNL     1       1.380   2.883   2.578  0.00  0.00    +0.113 A 
ATOM      5  N   UNL     1       2.415   3.365   3.248  0.00  0.00    -0.236 NA
ENDROOT
BRANCH   4   6
ATOM      6  C   UNL     1       0.208   3.597   2.030  0.00  0.00    +0.052 A 
ATOM      7  C   UNL     1       0.092   4.980   2.188  0.00  0.00    +0.014 A 
ATOM      8  C   UNL     1      -1.005   5.642   1.679  0.00  0.00    +0.004 A 
ATOM      9  C   UNL     1      -1.993   4.944   1.006  0.00  0.00    +0.049 A 
ATOM     10  C   UNL     1      -1.888   3.572   0.839  0.00  0.00    +0.162 A 
ATOM     11  C   UNL     1      -0.787   2.892   1.346  0.00  0.00    +0.171 A 
BRANCH  11  12
ATOM     12  O   UNL     1      -0.682   1.547   1.184  0.00  0.00    -0.491 OA
ATOM     13  C   UNL     1      -0.013   1.086   0.008  0.00  0.00    +0.277 C 
ENDBRANCH  11  12
BRANCH  10  14
ATOM     14  O   UNL     1      -2.862   2.892   0.177  0.00  0.00    -0.491 OA
ATOM     15  C   UNL     1      -3.965   3.654  -0.318  0.00  0.00    +0.277 C 
ENDBRANCH  10  14
ENDBRANCH   4   6
BRANCH   1  19
ATOM     16  C   UNL     1       6.429   3.274   5.516  0.00  0.00    +0.123 A 
ATOM     17  C   UNL     1       5.933   4.524   5.442  0.00  0.00    +0.047 A 
ATOM     18  C   UNL     1       4.718   4.444   4.731  0.00  0.00    +0.052 A 
ATOM     19  C   UNL     1       4.534   3.135   4.415  0.00  0.00    +0.154 A 
ATOM     20  O   UNL     1       5.582   2.437   4.894  0.00  0.00    -0.457 OA
BRANCH  16  21
ATOM     21  C   UNL     1       7.721   2.880   6.185  0.00  0.00    +0.178 C 
BRANCH  21  25
ATOM     22  C   UNL     1       8.214   1.837   9.835  0.00  0.00    +0.109 C 
ATOM     23  C   UNL     1       8.479   2.173   8.390  0.00  0.00    +0.210 C 
ATOM     24  O   UNL     1       9.605   2.099   7.947  0.00  0.00    -0.276 OA
ATOM     25  N   UNL     1       7.463   2.554   7.590  0.00  0.00    -0.308 N 
ATOM     26  H   UNL     1       6.442   2.621   7.992  0.00  0.00    +0.149 HD
ENDBRANCH  21  25
ENDBRANCH  16  21
ENDBRANCH   1  19
TORSDOF 6
