REMARK  Name = ZINC38971665
REMARK  8 active torsions:
REMARK  status: ('A' for Active; 'I' for Inactive)
REMARK    1  A    between atoms: C_1  and  C_2
REMARK    2  A    between atoms: C_5  and  S_9
REMARK    3  A    between atoms: C_6  and  C_8
REMARK    4  A    between atoms: S_9  and  N_12
REMARK    5  A    between atoms: C_14  and  N_24
REMARK    6  A    between atoms: N_24  and  C_25
REMARK    7  A    between atoms: C_28  and  C_31
REMARK    8  A    between atoms: C_31  and  O_33
REMARK                            x       y       z     vdW  Elec       q    Type
REMARK                         _______ _______ _______ _____ _____    ______ ____
ROOT
ATOM      1  N   UNL     1       1.375  -4.676   0.984  0.00  0.00    -0.110 NA
ATOM      2  C   UNL     1       1.669  -5.935   0.845  0.00  0.00    +0.192 C 
ATOM      3  C   UNL     1       3.019  -6.459   1.280  0.00  0.00    +0.237 C 
ATOM      4  N   UNL     1       3.291  -7.894   1.096  0.00  0.00    -0.359 N 
ATOM      5  C   UNL     1       2.360  -8.640   0.570  0.00  0.00    +0.063 A 
ATOM      6  C   UNL     1       2.581 -10.080   0.366  0.00  0.00    +0.027 A 
ATOM      7  C   UNL     1       1.593 -10.821  -0.181  0.00  0.00    +0.002 A 
ATOM      8  C   UNL     1       0.364 -10.252  -0.558  0.00  0.00    +0.002 A 
ATOM      9  C   UNL     1       0.089  -8.939  -0.401  0.00  0.00    +0.030 A 
ATOM     10  C   UNL     1       1.053  -8.067   0.164  0.00  0.00    +0.089 A 
ATOM     11  N   UNL     1       0.777  -6.789   0.319  0.00  0.00    -0.226 NA
ATOM     12  H   UNL     1       4.143  -8.275   1.360  0.00  0.00    +0.162 HD
ENDROOT
BRANCH   1  13
ATOM     13  S   UNL     1      -0.110  -4.115   0.511  0.00  0.00    +0.101 S 
ATOM     14  O   UNL     1      -1.065  -4.717   1.373  0.00  0.00    -0.146 OA
ATOM     15  O   UNL     1      -0.165  -4.255  -0.902  0.00  0.00    -0.146 OA
BRANCH  13  20
ATOM     16  C   UNL     1      -0.236   1.806   1.664  0.00  0.00    +0.044 C 
ATOM     17  C   UNL     1      -0.205   0.327   1.376  0.00  0.00    -0.050 A 
ATOM     18  C   UNL     1      -0.269  -0.125   0.071  0.00  0.00    +0.005 A 
ATOM     19  C   UNL     1      -0.239  -1.481  -0.193  0.00  0.00    +0.029 A 
ATOM     20  C   UNL     1      -0.146  -2.386   0.848  0.00  0.00    +0.115 A 
ATOM     21  C   UNL     1      -0.081  -1.935   2.152  0.00  0.00    -0.023 A 
ATOM     22  C   UNL     1      -0.106  -0.578   2.416  0.00  0.00    +0.008 A 
ATOM     23  C   UNL     1       0.020  -2.922   3.287  0.00  0.00    +0.046 C 
ENDBRANCH  13  20
ENDBRANCH   1  13
BRANCH   3  24
ATOM     24  N   UNL     1       3.181  -6.153   2.703  0.00  0.00    -0.318 N 
ATOM     25  H   UNL     1       2.444  -6.299   3.317  0.00  0.00    +0.148 HD
BRANCH  24  26
ATOM     26  C   UNL     1       4.390  -5.654   3.174  0.00  0.00    +0.029 A 
ATOM     27  C   UNL     1       4.496  -5.221   4.493  0.00  0.00    +0.024 A 
ATOM     28  C   UNL     1       5.687  -4.729   4.961  0.00  0.00    +0.017 A 
ATOM     29  C   UNL     1       6.796  -4.662   4.111  0.00  0.00    +0.059 A 
ATOM     30  C   UNL     1       6.686  -5.098   2.787  0.00  0.00    +0.017 A 
ATOM     31  C   UNL     1       5.493  -5.594   2.327  0.00  0.00    +0.024 A 
BRANCH  29  32
ATOM     32  C   UNL     1       8.078  -4.133   4.611  0.00  0.00    +0.337 C 
ATOM     33  O   UNL     1       8.172  -3.754   5.761  0.00  0.00    -0.245 OA
BRANCH  32  34
ATOM     34  O   UNL     1       9.146  -4.069   3.791  0.00  0.00    -0.477 OA
ATOM     35  H   UNL     1       9.940  -3.708   4.207  0.00  0.00    +0.295 HD
ENDBRANCH  32  34
ENDBRANCH  29  32
ENDBRANCH  24  26
ENDBRANCH   3  24
TORSDOF 6
