REMARK  Name = ZINC13498646
REMARK  11 active torsions:
REMARK  status: ('A' for Active; 'I' for Inactive)
REMARK    1  A    between atoms: C_1  and  C_2
REMARK    2  A    between atoms: C_2  and  C_3
REMARK    3  A    between atoms: C_2  and  C_4
REMARK    4  A    between atoms: C_4  and  C_6
REMARK    5  A    between atoms: C_4  and  N_73
REMARK    6  A    between atoms: N_10  and  C_11
REMARK    7  A    between atoms: C_17  and  C_18
REMARK    8  A    between atoms: C_17  and  N_73
REMARK    9  A    between atoms: C_22  and  O_30
REMARK   10  A    between atoms: O_30  and  C_31
REMARK   11  A    between atoms: C_32  and  N_73
REMARK                            x       y       z     vdW  Elec       q    Type
REMARK                         _______ _______ _______ _____ _____    ______ ____
ROOT
ATOM      1  N   UNL     1       0.070   1.414   0.366  0.00  0.00    +0.391 N 
ATOM      2  H   UNL     1      -0.334   1.451   1.309  0.00  0.00    -0.080 HD
ENDROOT
BRANCH   1   3
ATOM      3  C   UNL     1      -0.937   1.887  -0.607  0.00  0.00    -0.067 C 
ATOM      4  C   UNL     1      -0.272   2.297  -1.937  0.00  0.00    -0.015 C 
ATOM      5  C   UNL     1      -1.078   3.538  -2.397  0.00  0.00    -0.002 C 
ATOM      6  C   UNL     1      -1.358   4.278  -1.065  0.00  0.00    -0.002 C 
ATOM      7  C   UNL     1      -1.627   3.145  -0.053  0.00  0.00    -0.015 C 
ENDBRANCH   1   3
BRANCH   1   8
ATOM      8  C   UNL     1       1.264   2.285   0.321  0.00  0.00    +0.006 C 
BRANCH   8   9
ATOM      9  C   UNL     1       0.893   3.646   0.853  0.00  0.00    +0.139 A 
ATOM     10  N   UNL     1       0.204   3.900   1.938  0.00  0.00    -0.115 NA
ATOM     11  N   UNL     1       0.099   5.179   2.052  0.00  0.00    -0.023 NA
ATOM     12  N   UNL     1       0.703   5.747   1.068  0.00  0.00    -0.044 NA
ATOM     13  N   UNL     1       1.210   4.835   0.309  0.00  0.00    -0.228 N 
BRANCH  13  14
ATOM     14  C   UNL     1       1.983   5.053  -0.916  0.00  0.00    +0.111 C 
ATOM     15  C   UNL     1       3.343   5.659  -0.561  0.00  0.00    +0.027 C 
ATOM     16  C   UNL     1       4.150   5.887  -1.841  0.00  0.00    +0.002 C 
ATOM     17  C   UNL     1       3.389   6.845  -2.759  0.00  0.00    +0.000 C 
ATOM     18  C   UNL     1       2.030   6.239  -3.115  0.00  0.00    +0.002 C 
ATOM     19  C   UNL     1       1.223   6.012  -1.835  0.00  0.00    +0.027 C 
ENDBRANCH  13  14
ENDBRANCH   8   9
BRANCH   8  21
ATOM     20  C   UNL     1       3.592   2.585   1.176  0.00  0.00    +0.006 C 
ATOM     21  C   UNL     1       2.361   1.677   1.196  0.00  0.00    -0.024 C 
ATOM     22  C   UNL     1       1.851   1.541   2.632  0.00  0.00    +0.006 C 
ENDBRANCH   8  21
ENDBRANCH   1   8
BRANCH   1  23
ATOM     23  C   UNL     1       0.452   0.019   0.061  0.00  0.00    -0.036 C 
BRANCH  23  24
ATOM     24  C   UNL     1      -0.721  -0.880   0.358  0.00  0.00    +0.001 A 
ATOM     25  C   UNL     1      -1.551  -1.260  -0.645  0.00  0.00    +0.017 A 
ATOM     26  C   UNL     1      -2.681  -2.134  -0.324  0.00  0.00    +0.002 A 
ATOM     27  C   UNL     1      -3.570  -2.558  -1.318  0.00  0.00    +0.055 A 
ATOM     28  C   UNL     1      -4.625  -3.382  -0.981  0.00  0.00    +0.121 A 
ATOM     29  C   UNL     1      -4.805  -3.791   0.338  0.00  0.00    +0.047 A 
ATOM     30  C   UNL     1      -3.936  -3.381   1.325  0.00  0.00    +0.030 A 
ATOM     31  C   UNL     1      -2.867  -2.549   1.008  0.00  0.00    +0.049 A 
ATOM     32  N   UNL     1      -1.985  -2.127   1.982  0.00  0.00    -0.322 N 
ATOM     33  H   UNL     1      -2.114  -2.413   2.900  0.00  0.00    +0.169 HD
ATOM     34  C   UNL     1      -0.947  -1.329   1.676  0.00  0.00    +0.251 A 
ATOM     35  O   UNL     1      -0.185  -0.980   2.562  0.00  0.00    -0.268 OA
BRANCH  28  36
ATOM     36  O   UNL     1      -5.492  -3.797  -1.942  0.00  0.00    -0.495 OA
ATOM     37  C   UNL     1      -6.562  -4.649  -1.527  0.00  0.00    +0.277 C 
ENDBRANCH  28  36
ENDBRANCH  23  24
ENDBRANCH   1  23
TORSDOF 8
