REMARK  Name = ZINC33667712
REMARK  13 active torsions:
REMARK  status: ('A' for Active; 'I' for Inactive)
REMARK    1  A    between atoms: C_1  and  C_2
REMARK    2  A    between atoms: C_2  and  C_3
REMARK    3  A    between atoms: C_3  and  N_4
REMARK    4  A    between atoms: N_4  and  C_5
REMARK    5  A    between atoms: C_5  and  C_6
REMARK    6  A    between atoms: C_6  and  C_8
REMARK    7  A    between atoms: C_9  and  C_22
REMARK    8  A    between atoms: N_11  and  C_14
REMARK    9  A    between atoms: C_12  and  O_13
REMARK   10  A    between atoms: C_18  and  C_21
REMARK   11  A    between atoms: C_19  and  C_20
REMARK   12  A    between atoms: C_28  and  C_30
REMARK   13  A    between atoms: C_34  and  N_36
REMARK                            x       y       z     vdW  Elec       q    Type
REMARK                         _______ _______ _______ _____ _____    ______ ____
ROOT
ATOM      1  C   UNL     1      -2.067  -3.516   3.326  0.00  0.00    +0.108 A 
ATOM      2  C   UNL     1      -3.183  -4.026   4.136  0.00  0.00    +0.107 A 
ATOM      3  N   UNL     1      -2.659  -4.660   5.159  0.00  0.00    -0.162 NA
ATOM      4  N   UNL     1      -1.265  -4.602   5.079  0.00  0.00    -0.199 N 
ATOM      5  C   UNL     1      -0.901  -3.920   3.975  0.00  0.00    +0.227 A 
ENDROOT
BRANCH   4   6
ATOM      6  C   UNL     1      -0.380  -5.171   6.003  0.00  0.00    +0.072 A 
ATOM      7  C   UNL     1       0.674  -5.961   5.562  0.00  0.00    +0.028 A 
ATOM      8  C   UNL     1       1.545  -6.521   6.476  0.00  0.00    +0.002 A 
ATOM      9  C   UNL     1       1.368  -6.296   7.829  0.00  0.00    +0.004 A 
ATOM     10  C   UNL     1       0.320  -5.511   8.271  0.00  0.00    -0.046 A 
ATOM     11  C   UNL     1      -0.551  -4.943   7.362  0.00  0.00    -0.022 A 
ATOM     12  C   UNL     1      -1.690  -4.083   7.844  0.00  0.00    +0.046 C 
ATOM     13  C   UNL     1       0.130  -5.270   9.747  0.00  0.00    +0.044 C 
ENDBRANCH   4   6
BRANCH   2  14
ATOM     14  C   UNL     1      -4.627  -3.857   3.851  0.00  0.00    +0.003 A 
ATOM     15  C   UNL     1      -5.115  -4.068   2.562  0.00  0.00    +0.010 A 
ATOM     16  C   UNL     1      -6.462  -3.909   2.303  0.00  0.00    +0.001 A 
ATOM     17  C   UNL     1      -7.326  -3.541   3.318  0.00  0.00    +0.000 A 
ATOM     18  C   UNL     1      -6.847  -3.330   4.599  0.00  0.00    +0.001 A 
ATOM     19  C   UNL     1      -5.504  -3.492   4.872  0.00  0.00    +0.010 A 
ENDBRANCH   2  14
BRANCH   1  20
ATOM     20  C   UNL     1      -2.158  -2.769   2.127  0.00  0.00    +0.188 C 
ATOM     21  O   UNL     1      -3.247  -2.495   1.664  0.00  0.00    -0.290 OA
BRANCH  20  22
ATOM     22  C   UNL     1      -0.905  -2.315   1.425  0.00  0.00    +0.187 C 
BRANCH  22  23
ATOM     23  N   UNL     1      -1.265  -1.568   0.217  0.00  0.00    -0.290 N 
ATOM     24  C   UNL     1      -1.291  -2.190  -0.978  0.00  0.00    +0.247 C 
ATOM     25  O   UNL     1      -1.497  -1.551  -1.991  0.00  0.00    -0.270 OA
BRANCH  24  26
ATOM     26  C   UNL     1      -1.069  -3.650  -1.056  0.00  0.00    +0.039 A 
ATOM     27  C   UNL     1      -1.731  -4.508  -0.176  0.00  0.00    +0.013 A 
ATOM     28  C   UNL     1      -1.520  -5.868  -0.255  0.00  0.00    +0.003 A 
ATOM     29  C   UNL     1      -0.653  -6.383  -1.204  0.00  0.00    +0.033 A 
ATOM     30  C   UNL     1       0.006  -5.538  -2.078  0.00  0.00    +0.127 A 
ATOM     31  C   UNL     1      -0.201  -4.176  -2.014  0.00  0.00    +0.045 A 
BRANCH  30  32
ATOM     32  N   UNL     1       0.931  -6.098  -3.089  0.00  0.00    +0.056 N 
ATOM     33  O   UNL     1       1.110  -7.292  -3.150  0.00  0.00    -0.126 OA
ATOM     34  O   UNL     1       1.508  -5.361  -3.854  0.00  0.00    -0.126 OA
ENDBRANCH  30  32
ENDBRANCH  24  26
BRANCH  23  35
ATOM     35  C   UNL     1      -1.597  -0.144   0.309  0.00  0.00    +0.108 C 
BRANCH  35  37
ATOM     36  C   UNL     1      -0.658   2.172   0.343  0.00  0.00    +0.005 C 
ATOM     37  C   UNL     1      -0.312   0.684   0.247  0.00  0.00    +0.016 C 
ENDBRANCH  35  37
ENDBRANCH  23  35
ENDBRANCH  22  23
ENDBRANCH  20  22
ENDBRANCH   1  20
BRANCH   5  38
ATOM     38  O   UNL     1       0.366  -3.670   3.571  0.00  0.00    -0.492 OA
ATOM     39  H   UNL     1       0.735  -2.847   3.920  0.00  0.00    +0.294 HD
ENDBRANCH   5  38
TORSDOF 10
