REMARK  Name = ZINC05185163
REMARK  10 active torsions:
REMARK  status: ('A' for Active; 'I' for Inactive)
REMARK    1  A    between atoms: C_1  and  C_2
REMARK    2  A    between atoms: C_2  and  C_3
REMARK    3  A    between atoms: C_7  and  C_26
REMARK    4  A    between atoms: C_8  and  N_9
REMARK    5  A    between atoms: C_10  and  C_12
REMARK    6  A    between atoms: C_12  and  N_13
REMARK    7  A    between atoms: N_22  and  C_23
REMARK    8  A    between atoms: C_23  and  C_24
REMARK    9  A    between atoms: C_24  and  O_25
REMARK   10  A    between atoms: C_26  and  C_27
REMARK                            x       y       z     vdW  Elec       q    Type
REMARK                         _______ _______ _______ _____ _____    ______ ____
ROOT
ATOM      1  N   UNL     1      -0.175   4.389   5.383  0.00  0.00    -0.305 N 
ATOM      2  C   UNL     1      -1.346   5.011   4.982  0.00  0.00    +0.068 A 
ATOM      3  C   UNL     1      -1.848   5.418   3.755  0.00  0.00    +0.028 A 
ATOM      4  C   UNL     1      -3.083   6.029   3.687  0.00  0.00    +0.002 A 
ATOM      5  C   UNL     1      -3.828   6.239   4.838  0.00  0.00    +0.002 A 
ATOM      6  C   UNL     1      -3.345   5.842   6.064  0.00  0.00    +0.028 A 
ATOM      7  C   UNL     1      -2.096   5.222   6.151  0.00  0.00    +0.065 A 
ATOM      8  N   UNL     1      -1.367   4.731   7.188  0.00  0.00    -0.327 N 
ATOM      9  C   UNL     1      -0.241   4.236   6.738  0.00  0.00    +0.175 A 
ATOM     10  N   UNL     1       0.734   3.650   7.517  0.00  0.00    -0.314 N 
ATOM     11  H   UNL     1       1.544   3.308   7.106  0.00  0.00    +0.149 HD
ATOM     12  H   UNL     1      -1.641   4.741   8.118  0.00  0.00    +0.169 HD
ENDROOT
BRANCH   1  13
ATOM     13  C   UNL     1       0.926   3.968   4.513  0.00  0.00    +0.221 C 
BRANCH  13  15
ATOM     14  N   UNL     1       1.571   1.957   3.226  0.00  0.00    -0.284 N 
ATOM     15  C   UNL     1       0.683   2.557   4.042  0.00  0.00    +0.237 C 
ATOM     16  O   UNL     1      -0.312   1.962   4.397  0.00  0.00    -0.274 OA
ATOM     17  H   UNL     1       2.407   2.399   3.009  0.00  0.00    +0.155 HD
BRANCH  14  23
ATOM     18  C   UNL     1       0.919   0.571   1.358  0.00  0.00    -0.026 A 
ATOM     19  C   UNL     1       0.646  -0.676   0.831  0.00  0.00    +0.005 A 
ATOM     20  C   UNL     1       0.735  -1.800   1.631  0.00  0.00    +0.001 A 
ATOM     21  C   UNL     1       1.098  -1.680   2.960  0.00  0.00    +0.005 A 
ATOM     22  C   UNL     1       1.372  -0.436   3.493  0.00  0.00    -0.026 A 
ATOM     23  C   UNL     1       1.289   0.695   2.691  0.00  0.00    +0.040 A 
BRANCH  18  25
ATOM     24  C   UNL     1       2.202   2.130  -0.082  0.00  0.00    +0.009 C 
ATOM     25  C   UNL     1       0.821   1.796   0.485  0.00  0.00    +0.033 C 
ENDBRANCH  18  25
BRANCH  22  26
ATOM     26  C   UNL     1       1.767  -0.305   4.941  0.00  0.00    +0.033 C 
ATOM     27  C   UNL     1       1.681  -1.675   5.619  0.00  0.00    +0.009 C 
ENDBRANCH  22  26
ENDBRANCH  14  23
ENDBRANCH  13  15
ENDBRANCH   1  13
BRANCH  10  28
ATOM     28  C   UNL     1       0.547   3.543   8.966  0.00  0.00    +0.132 C 
BRANCH  28  29
ATOM     29  C   UNL     1       1.766   2.859   9.588  0.00  0.00    +0.174 C 
BRANCH  29  30
ATOM     30  O   UNL     1       2.918   3.688   9.415  0.00  0.00    -0.393 OA
ATOM     31  H   UNL     1       3.729   3.316   9.787  0.00  0.00    +0.209 HD
ENDBRANCH  29  30
ENDBRANCH  28  29
ENDBRANCH  10  28
TORSDOF 8
