REMARK  Name = ZINC40986397
REMARK  8 active torsions:
REMARK  status: ('A' for Active; 'I' for Inactive)
REMARK    1  A    between atoms: C_3  and  C_6
REMARK    2  A    between atoms: C_6  and  C_8
REMARK    3  A    between atoms: C_6  and  N_30
REMARK    4  A    between atoms: C_8  and  N_9
REMARK    5  A    between atoms: C_10  and  C_12
REMARK    6  A    between atoms: C_15  and  S_19
REMARK    7  A    between atoms: S_19  and  C_22
REMARK    8  A    between atoms: C_22  and  C_23
REMARK                            x       y       z     vdW  Elec       q    Type
REMARK                         _______ _______ _______ _____ _____    ______ ____
ROOT
ATOM      1  N   UNL     1       5.734   2.244   1.341  0.00  0.00    -0.312 N 
ATOM      2  C   UNL     1       6.442   2.297   2.487  0.00  0.00    +0.248 C 
ATOM      3  O   UNL     1       5.885   2.128   3.554  0.00  0.00    -0.270 OA
ATOM      4  H   UNL     1       6.179   2.378   0.490  0.00  0.00    +0.149 HD
ENDROOT
BRANCH   2   5
ATOM      5  C   UNL     1       7.895   2.561   2.446  0.00  0.00    +0.092 A 
ATOM      6  C   UNL     1       8.556   2.765   1.229  0.00  0.00    +0.130 A 
ATOM      7  N   UNL     1       9.856   2.999   1.239  0.00  0.00    -0.219 NA
ATOM      8  C   UNL     1      10.530   3.042   2.372  0.00  0.00    +0.272 A 
ATOM      9  N   UNL     1       9.950   2.856   3.541  0.00  0.00    -0.199 NA
ATOM     10  C   UNL     1       8.650   2.621   3.625  0.00  0.00    +0.146 A 
ATOM     11 CL   UNL     1       7.895   2.385   5.170  0.00  0.00    -0.061 Cl
BRANCH   8  12
ATOM     12  S   UNL     1      12.263   3.357   2.322  0.00  0.00    +0.036 S 
ATOM     13  O   UNL     1      12.776   2.754   3.502  0.00  0.00    -0.166 OA
ATOM     14  O   UNL     1      12.677   2.906   1.039  0.00  0.00    -0.166 OA
BRANCH  12  15
ATOM     15  C   UNL     1      12.412   5.162   2.427  0.00  0.00    +0.210 C 
BRANCH  15  16
ATOM     16  C   UNL     1      13.868   5.549   2.392  0.00  0.00    -0.026 A 
ATOM     17  C   UNL     1      14.585   5.647   3.570  0.00  0.00    +0.008 A 
ATOM     18  C   UNL     1      15.920   6.001   3.539  0.00  0.00    +0.038 A 
ATOM     19  C   UNL     1      16.540   6.258   2.328  0.00  0.00    +0.123 A 
ATOM     20  C   UNL     1      15.821   6.160   1.149  0.00  0.00    +0.038 A 
ATOM     21  C   UNL     1      14.487   5.800   1.182  0.00  0.00    +0.008 A 
ATOM     22  F   UNL     1      17.846   6.605   2.297  0.00  0.00    -0.205 F 
ENDBRANCH  15  16
ENDBRANCH  12  15
ENDBRANCH   8  12
ENDBRANCH   2   5
BRANCH   1  23
ATOM     23  C   UNL     1       4.294   1.981   1.381  0.00  0.00    +0.094 C 
BRANCH  23  24
ATOM     24  C   UNL     1       3.714   2.102  -0.029  0.00  0.00    -0.013 C 
BRANCH  24  25
ATOM     25  N   UNL     1       2.285   1.760  -0.002  0.00  0.00    +0.386 N 
ATOM     26  C   UNL     1       2.126   0.359   0.408  0.00  0.00    -0.078 C 
ATOM     27  C   UNL     1       0.638   0.021   0.516  0.00  0.00    -0.019 C 
ATOM     28  C   UNL     1      -0.029   0.235  -0.846  0.00  0.00    -0.004 C 
ATOM     29  C   UNL     1       0.207   1.679  -1.298  0.00  0.00    -0.019 C 
ATOM     30  C   UNL     1       1.711   1.956  -1.339  0.00  0.00    -0.078 C 
ATOM     31  H   UNL     1       1.810   2.357   0.658  0.00  0.00    -0.081 HD
ENDBRANCH  24  25
BRANCH  24  34
ATOM     32  C   UNL     1       4.781   5.364  -1.680  0.00  0.00    +0.008 A 
ATOM     33  C   UNL     1       4.821   4.020  -1.361  0.00  0.00    +0.009 A 
ATOM     34  C   UNL     1       3.883   3.515  -0.523  0.00  0.00    -0.022 A 
ATOM     35  S   UNL     1       2.899   4.959  -0.157  0.00  0.00    -0.103 S 
ATOM     36  C   UNL     1       3.805   6.138  -1.145  0.00  0.00    +0.045 A 
ENDBRANCH  24  34
ENDBRANCH  23  24
ENDBRANCH   1  23
TORSDOF 8
