REMARK  Name = ZINC01069043
REMARK  4 active torsions:
REMARK  status: ('A' for Active; 'I' for Inactive)
REMARK    1  A    between atoms: C_6  and  C_7
REMARK    2  A    between atoms: C_10  and  C_22
REMARK    3  A    between atoms: C_15  and  C_17
REMARK    4  A    between atoms: N_19  and  N_20
REMARK                            x       y       z     vdW  Elec       q    Type
REMARK                         _______ _______ _______ _____ _____    ______ ____
ROOT
ATOM      1  C   UNL     1      -2.513   0.978   0.020  0.00  0.00    +0.104 C 
ATOM      2  C   UNL     1      -3.089   0.943   1.440  0.00  0.00    +0.063 C 
ATOM      3  C   UNL     1      -3.276   2.372   1.963  0.00  0.00    +0.215 C 
ATOM      4  N   UNL     1      -4.001   3.154   0.958  0.00  0.00    -0.238 N 
ATOM      5  C   UNL     1      -4.092   2.798  -0.358  0.00  0.00    +0.119 A 
ATOM      6  C   UNL     1      -4.829   3.729  -0.994  0.00  0.00    +0.078 A 
ATOM      7  C   UNL     1      -5.207   4.700  -0.039  0.00  0.00    +0.150 A 
ATOM      8  N   UNL     1      -4.704   4.345   1.130  0.00  0.00    -0.164 NA
ATOM      9  N   UNL     1      -3.489   1.644  -0.866  0.00  0.00    -0.322 N 
ATOM     10  H   UNL     1      -3.699   1.300  -1.748  0.00  0.00    +0.148 HD
ENDROOT
BRANCH   1  16
ATOM     11  C   UNL     1      -0.013   1.076   0.008  0.00  0.00    +0.008 A 
ATOM     12  C   UNL     1       1.175   1.783   0.000  0.00  0.00    +0.038 A 
ATOM     13  C   UNL     1       1.156   3.167   0.008  0.00  0.00    +0.123 A 
ATOM     14  C   UNL     1      -0.053   3.842   0.022  0.00  0.00    +0.038 A 
ATOM     15  C   UNL     1      -1.240   3.133   0.030  0.00  0.00    +0.008 A 
ATOM     16  C   UNL     1      -1.219   1.750   0.017  0.00  0.00    -0.027 A 
ATOM     17  F   UNL     1       2.316   3.859  -0.000  0.00  0.00    -0.205 F 
ENDBRANCH   1  16
BRANCH   7  18
ATOM     18  C   UNL     1      -6.024   5.903  -0.302  0.00  0.00    +0.278 C 
ATOM     19  O   UNL     1      -6.434   6.125  -1.425  0.00  0.00    -0.267 OA
ATOM     20  N   UNL     1      -6.314   6.753   0.702  0.00  0.00    -0.248 N 
ATOM     21  H   UNL     1      -5.987   6.575   1.598  0.00  0.00    +0.169 HD
BRANCH  20  22
ATOM     22  N   UNL     1      -7.070   7.865   0.459  0.00  0.00    -0.254 NA
ATOM     23  H   UNL     1      -7.955   7.617   0.044  0.00  0.00    +0.140 HD
ATOM     24  H   UNL     1      -7.203   8.403   1.302  0.00  0.00    +0.140 HD
ENDBRANCH  20  22
ENDBRANCH   7  18
BRANCH   3  25
ATOM     25  C   UNL     1      -4.079   2.339   3.265  0.00  0.00    +0.412 C 
ATOM     26  F   UNL     1      -5.326   1.751   3.029  0.00  0.00    -0.168 F 
ATOM     27  F   UNL     1      -3.385   1.592   4.223  0.00  0.00    -0.168 F 
ATOM     28  F   UNL     1      -4.261   3.645   3.733  0.00  0.00    -0.168 F 
ENDBRANCH   3  25
TORSDOF 4
