REMARK  Name = ZINC06831841
REMARK  6 active torsions:
REMARK  status: ('A' for Active; 'I' for Inactive)
REMARK    1  A    between atoms: C_1  and  C_2
REMARK    2  A    between atoms: C_5  and  C_8
REMARK    3  A    between atoms: C_10  and  C_13
REMARK    4  A    between atoms: C_13  and  S_14
REMARK    5  A    between atoms: S_14  and  C_15
REMARK    6  A    between atoms: C_19  and  N_21
REMARK                            x       y       z     vdW  Elec       q    Type
REMARK                         _______ _______ _______ _____ _____    ______ ____
ROOT
ATOM      1  C   UNL     1       6.146   1.355  -0.051  0.00  0.00    +0.133 C 
ENDROOT
BRANCH   1   4
ATOM      2  C   UNL     1       2.478   1.074  -0.016  0.00  0.00    +0.109 A 
ATOM      3  N   UNL     1       3.711   1.562  -0.026  0.00  0.00    -0.243 NA
ATOM      4  C   UNL     1       4.757   0.770  -0.040  0.00  0.00    +0.059 A 
ATOM      5  C   UNL     1       4.586  -0.578  -0.046  0.00  0.00    +0.071 A 
ATOM      6  S   UNL     1       2.801  -0.684  -0.022  0.00  0.00    -0.075 S 
BRANCH   2  11
ATOM      7  C   UNL     1      -2.554   3.865   0.047  0.00  0.00    +0.044 C 
ATOM      8  C   UNL     1      -1.236   3.134   0.031  0.00  0.00    -0.050 A 
ATOM      9  C   UNL     1      -1.216   1.751   0.017  0.00  0.00    +0.004 A 
ATOM     10  C   UNL     1      -0.013   1.076   0.008  0.00  0.00    +0.011 A 
ATOM     11  C   UNL     1       1.185   1.791   0.000  0.00  0.00    +0.007 A 
ATOM     12  C   UNL     1       1.158   3.187   0.008  0.00  0.00    +0.011 A 
ATOM     13  C   UNL     1      -0.052   3.850   0.023  0.00  0.00    +0.004 A 
ENDBRANCH   2  11
ENDBRANCH   1   4
BRANCH   1  14
ATOM     14  S   UNL     1       6.719   1.580   1.651  0.00  0.00    -0.080 S 
BRANCH  14  15
ATOM     15  C   UNL     1       8.318   2.256   1.349  0.00  0.00    +0.192 A 
ATOM     16  N   UNL     1       8.719   2.430   0.098  0.00  0.00    -0.207 NA
ATOM     17  C   UNL     1       9.918   2.943  -0.168  0.00  0.00    +0.122 A 
ATOM     18  C   UNL     1      10.758   3.287   0.888  0.00  0.00    +0.086 A 
ATOM     19  C   UNL     1      10.304   3.083   2.188  0.00  0.00    +0.122 A 
ATOM     20  N   UNL     1       9.091   2.571   2.378  0.00  0.00    -0.207 NA
ATOM     21  N   UNL     1      10.327   3.129  -1.479  0.00  0.00    -0.343 N 
ATOM     22  H   UNL     1      11.204   3.500  -1.666  0.00  0.00    +0.144 HD
ATOM     23  H   UNL     1       9.737   2.888  -2.210  0.00  0.00    +0.144 HD
BRANCH  19  24
ATOM     24  N   UNL     1      11.106   3.411   3.271  0.00  0.00    -0.343 N 
ATOM     25  H   UNL     1      10.784   3.267   4.174  0.00  0.00    +0.144 HD
ATOM     26  H   UNL     1      11.989   3.784   3.124  0.00  0.00    +0.144 HD
ENDBRANCH  19  24
ENDBRANCH  14  15
ENDBRANCH   1  14
TORSDOF 5
