REMARK  Name = ZINC40018680
REMARK  2 active torsions:
REMARK  status: ('A' for Active; 'I' for Inactive)
REMARK    1  A    between atoms: C_1  and  C_2
REMARK    2  A    between atoms: C_7  and  C_12
REMARK                            x       y       z     vdW  Elec       q    Type
REMARK                         _______ _______ _______ _____ _____    ______ ____
ROOT
ATOM      1  C   UNL     1       0.123   2.030  -1.102  0.00  0.00    +0.052 C 
ATOM      2  C   UNL     1       0.046   0.557  -0.695  0.00  0.00    +0.175 C 
ATOM      3  C   UNL     1       0.834  -0.328  -1.690  0.00  0.00    +0.083 C 
ATOM      4  C   UNL     1       2.197  -0.406  -1.028  0.00  0.00    -0.002 A 
ATOM      5  C   UNL     1       3.426  -0.795  -1.498  0.00  0.00    +0.015 A 
ATOM      6  C   UNL     1       4.541  -0.758  -0.650  0.00  0.00    -0.023 A 
ATOM      7  C   UNL     1       4.384  -0.323   0.672  0.00  0.00    +0.011 A 
ATOM      8  C   UNL     1       3.147   0.060   1.131  0.00  0.00    +0.046 A 
ATOM      9  C   UNL     1       2.035   0.020   0.287  0.00  0.00    +0.124 A 
ATOM     10  O   UNL     1       0.733   0.336   0.548  0.00  0.00    -0.488 OA
ENDROOT
BRANCH   6  11
ATOM     11  C   UNL     1       5.861  -1.172  -1.143  0.00  0.00    +0.028 C 
ATOM     12  C   UNL     1       5.962  -1.895  -2.287  0.00  0.00    +0.078 C 
ATOM     13  C   UNL     1       7.168  -2.293  -3.039  0.00  0.00    +0.256 C 
ATOM     14  O   UNL     1       8.283  -1.978  -2.666  0.00  0.00    -0.269 OA
ATOM     15  N   UNL     1       6.982  -3.007  -4.136  0.00  0.00    -0.261 N 
ATOM     16  C   UNL     1       5.709  -3.353  -4.541  0.00  0.00    +0.158 C 
ATOM     17  N   UNL     1       5.351  -4.046  -5.587  0.00  0.00    -0.279 NA
ATOM     18  S   UNL     1       4.672  -2.628  -3.282  0.00  0.00    -0.049 S 
ATOM     19  H   UNL     1       7.747  -3.289  -4.661  0.00  0.00    +0.157 HD
ATOM     20  H   UNL     1       4.411  -4.219  -5.756  0.00  0.00    +0.189 HD
ENDBRANCH   6  11
TORSDOF 1
