REMARK  Name = ZINC64080920
REMARK  7 active torsions:
REMARK  status: ('A' for Active; 'I' for Inactive)
REMARK    1  A    between atoms: C_7  and  C_11
REMARK    2  A    between atoms: C_11  and  C_12
REMARK    3  A    between atoms: N_14  and  N_15
REMARK    4  A    between atoms: N_15  and  C_16
REMARK    5  A    between atoms: C_16  and  N_18
REMARK    6  A    between atoms: N_18  and  C_19
REMARK    7  A    between atoms: C_19  and  C_20
REMARK                            x       y       z     vdW  Elec       q    Type
REMARK                         _______ _______ _______ _____ _____    ______ ____
ROOT
ATOM      1  C   UNL     1       0.242  -3.584  -1.434  0.00  0.00    +0.233 C 
ATOM      2  O   UNL     1       0.660  -2.913  -2.353  0.00  0.00    -0.274 OA
ATOM      3  N   UNL     1      -0.601  -4.607  -1.676  0.00  0.00    -0.235 N 
ATOM      4  H   UNL     1      -0.935  -5.145  -0.941  0.00  0.00    +0.173 HD
ENDROOT
BRANCH   3   5
ATOM      5  N   UNL     1      -0.995  -4.895  -2.989  0.00  0.00    -0.246 N 
ATOM      6  H   UNL     1      -0.661  -4.357  -3.724  0.00  0.00    +0.172 HD
BRANCH   5   7
ATOM      7  C   UNL     1      -1.838  -5.918  -3.231  0.00  0.00    +0.147 C 
ATOM      8  S   UNL     1      -2.320  -6.269  -4.836  0.00  0.00    -0.017 S 
BRANCH   7   9
ATOM      9  N   UNL     1      -2.303  -6.665  -2.210  0.00  0.00    -0.317 N 
ATOM     10  H   UNL     1      -2.030  -6.466  -1.301  0.00  0.00    +0.148 HD
BRANCH   9  11
ATOM     11  C   UNL     1      -3.219  -7.777  -2.473  0.00  0.00    +0.216 C 
BRANCH  11  12
ATOM     12  C   UNL     1      -3.591  -8.454  -1.153  0.00  0.00    +0.405 C 
ATOM     13  F   UNL     1      -4.213  -7.526  -0.311  0.00  0.00    -0.169 F 
ATOM     14  F   UNL     1      -4.466  -9.516  -1.404  0.00  0.00    -0.169 F 
ATOM     15  F   UNL     1      -2.433  -8.940  -0.536  0.00  0.00    -0.169 F 
ENDBRANCH  11  12
ENDBRANCH   9  11
ENDBRANCH   7   9
ENDBRANCH   5   7
ENDBRANCH   3   5
BRANCH   1  16
ATOM     16  C   UNL     1       0.666  -3.275  -0.021  0.00  0.00    +0.134 C 
BRANCH  16  23
ATOM     17  C   UNL     1      -0.017   1.362   0.009  0.00  0.00    +0.001 A 
ATOM     18  C   UNL     1       1.170   2.083   0.002  0.00  0.00    +0.002 A 
ATOM     19  C   UNL     1       2.386   1.436  -0.013  0.00  0.00    +0.026 A 
ATOM     20  C   UNL     1       2.428   0.046  -0.021  0.00  0.00    +0.047 A 
ATOM     21  C   UNL     1       1.223  -0.681  -0.013  0.00  0.00    +0.003 A 
ATOM     22  C   UNL     1       0.002  -0.004   0.002  0.00  0.00    +0.010 A 
ATOM     23  C   UNL     1       1.604  -2.095  -0.025  0.00  0.00    -0.014 A 
ATOM     24  C   UNL     1       2.945  -2.141  -0.038  0.00  0.00    +0.087 A 
ATOM     25  N   UNL     1       3.455  -0.871  -0.036  0.00  0.00    -0.360 N 
ATOM     26  H   UNL     1       4.399  -0.650  -0.044  0.00  0.00    +0.165 HD
ENDBRANCH  16  23
ENDBRANCH   1  16
TORSDOF 7
