REMARK  Name = ZINC22137870
REMARK  15 active torsions:
REMARK  status: ('A' for Active; 'I' for Inactive)
REMARK    1  A    between atoms: C_1  and  C_2
REMARK    2  A    between atoms: C_2  and  C_4
REMARK    3  A    between atoms: C_2  and  S_15
REMARK    4  A    between atoms: N_6  and  C_7
REMARK    5  A    between atoms: C_7  and  C_13
REMARK    6  A    between atoms: S_15  and  C_16
REMARK    7  A    between atoms: N_26  and  C_27
REMARK    8  A    between atoms: C_27  and  C_28
REMARK    9  A    between atoms: C_28  and  N_29
REMARK   10  A    between atoms: N_29  and  C_30
REMARK   11  A    between atoms: N_29  and  C_33
REMARK   12  A    between atoms: C_30  and  C_31
REMARK   13  A    between atoms: C_30  and  C_32
REMARK   14  A    between atoms: C_33  and  C_34
REMARK   15  A    between atoms: C_33  and  C_35
REMARK                            x       y       z     vdW  Elec       q    Type
REMARK                         _______ _______ _______ _____ _____    ______ ____
ROOT
ATOM      1  C   UNL     1      -3.269   1.131   2.434  0.00  0.00    +0.173 A 
ATOM      2  N   UNL     1      -2.712   2.313   2.524  0.00  0.00    -0.223 NA
ATOM      3  C   UNL     1      -2.583   3.117   1.450  0.00  0.00    +0.079 A 
ATOM      4  C   UNL     1      -1.989   4.379   1.546  0.00  0.00    +0.028 A 
ATOM      5  C   UNL     1      -1.878   5.161   0.431  0.00  0.00    +0.002 A 
ATOM      6  C   UNL     1      -2.348   4.721  -0.800  0.00  0.00    +0.001 A 
ATOM      7  C   UNL     1      -2.934   3.492  -0.926  0.00  0.00    +0.015 A 
ATOM      8  C   UNL     1      -3.059   2.673   0.195  0.00  0.00    +0.065 A 
ATOM      9  C   UNL     1      -3.679   1.343   0.120  0.00  0.00    +0.262 A 
ATOM     10  O   UNL     1      -4.108   0.905  -0.932  0.00  0.00    -0.267 OA
ATOM     11  N   UNL     1      -3.751   0.621   1.262  0.00  0.00    -0.289 N 
ENDROOT
BRANCH   1  12
ATOM     12  S   UNL     1      -3.395   0.149   3.892  0.00  0.00    -0.075 S 
BRANCH  12  14
ATOM     13  C   UNL     1      -3.506   2.436   5.388  0.00  0.00    +0.029 C 
ATOM     14  C   UNL     1      -2.652   1.183   5.183  0.00  0.00    +0.137 C 
BRANCH  14  15
ATOM     15  C   UNL     1      -2.585   0.405   6.473  0.00  0.00    +0.227 C 
ATOM     16  O   UNL     1      -3.297  -0.563   6.635  0.00  0.00    -0.275 OA
ATOM     17  N   UNL     1      -1.733   0.786   7.445  0.00  0.00    -0.296 N 
ATOM     18  H   UNL     1      -1.164   1.561   7.316  0.00  0.00    +0.150 HD
BRANCH  17  19
ATOM     19  C   UNL     1      -1.668   0.030   8.699  0.00  0.00    +0.121 C 
ATOM     20  C   UNL     1      -3.038   0.050   9.378  0.00  0.00    +0.041 C 
ATOM     21  C   UNL     1      -2.970  -0.740  10.687  0.00  0.00    +0.003 C 
ATOM     22  C   UNL     1      -1.932  -0.103  11.613  0.00  0.00    +0.000 C 
ATOM     23  C   UNL     1      -0.561  -0.122  10.934  0.00  0.00    +0.003 C 
ATOM     24  C   UNL     1      -0.630   0.667   9.625  0.00  0.00    +0.041 C 
BRANCH  19  25
ATOM     25  C   UNL     1      -1.282  -1.361   8.413  0.00  0.00    +0.088 C 
ATOM     26  N   UNL     1      -0.984  -2.435   8.192  0.00  0.00    -0.194 NA
ENDBRANCH  19  25
ENDBRANCH  17  19
ENDBRANCH  14  15
ENDBRANCH  12  14
ENDBRANCH   1  12
BRANCH  11  27
ATOM     27  C   UNL     1      -4.354  -0.714   1.242  0.00  0.00    +0.109 C 
BRANCH  27  28
ATOM     28  C   UNL     1      -5.855  -0.599   1.515  0.00  0.00    -0.056 C 
BRANCH  28  29
ATOM     29  N   UNL     1      -6.441  -1.944   1.597  0.00  0.00    +0.384 N 
ATOM     30  H   UNL     1      -5.832  -2.544   2.132  0.00  0.00    -0.081 HD
BRANCH  29  31
ATOM     31  C   UNL     1      -7.753  -1.866   2.254  0.00  0.00    -0.074 C 
ATOM     32  C   UNL     1      -8.434  -3.235   2.196  0.00  0.00    -0.014 C 
ATOM     33  C   UNL     1      -7.568  -1.450   3.715  0.00  0.00    -0.014 C 
ENDBRANCH  29  31
BRANCH  29  34
ATOM     34  C   UNL     1      -6.603  -2.491   0.244  0.00  0.00    -0.074 C 
ATOM     35  C   UNL     1      -7.277  -1.449  -0.651  0.00  0.00    -0.014 C 
ATOM     36  C   UNL     1      -5.230  -2.845  -0.331  0.00  0.00    -0.014 C 
ENDBRANCH  29  34
ENDBRANCH  28  29
ENDBRANCH  27  28
ENDBRANCH  11  27
TORSDOF 10
