REMARK  Name = ZINC02200578
REMARK  14 active torsions:
REMARK  status: ('A' for Active; 'I' for Inactive)
REMARK    1  A    between atoms: C_1  and  C_2
REMARK    2  A    between atoms: C_2  and  C_3
REMARK    3  A    between atoms: C_6  and  N_9
REMARK    4  A    between atoms: C_10  and  C_12
REMARK    5  A    between atoms: C_12  and  S_13
REMARK    6  A    between atoms: S_13  and  C_14
REMARK    7  A    between atoms: C_17  and  C_28
REMARK    8  A    between atoms: N_18  and  C_19
REMARK    9  A    between atoms: C_22  and  O_25
REMARK   10  A    between atoms: O_25  and  C_26
REMARK   11  A    between atoms: C_26  and  C_27
REMARK   12  A    between atoms: C_28  and  O_29
REMARK   13  A    between atoms: O_29  and  C_30
REMARK   14  A    between atoms: C_33  and  C_36
REMARK                            x       y       z     vdW  Elec       q    Type
REMARK                         _______ _______ _______ _____ _____    ______ ____
ROOT
ATOM      1  C   UNL     1      -3.024   6.269   8.644  0.00  0.00    +0.197 A 
ATOM      2  N   UNL     1      -3.974   5.501   9.127  0.00  0.00    -0.122 NA
ATOM      3  N   UNL     1      -4.409   5.986  10.234  0.00  0.00    -0.130 NA
ATOM      4  C   UNL     1      -3.777   7.089  10.520  0.00  0.00    +0.176 A 
ATOM      5  N   UNL     1      -2.871   7.311   9.517  0.00  0.00    -0.271 N 
ENDROOT
BRANCH   5   6
ATOM      6  C   UNL     1      -1.971   8.383   9.409  0.00  0.00    +0.051 A 
ATOM      7  C   UNL     1      -0.957   8.536  10.344  0.00  0.00    +0.030 A 
ATOM      8  C   UNL     1      -0.070   9.588  10.234  0.00  0.00    +0.047 A 
ATOM      9  C   UNL     1      -0.197  10.498   9.194  0.00  0.00    +0.121 A 
ATOM     10  C   UNL     1      -1.214  10.348   8.262  0.00  0.00    +0.047 A 
ATOM     11  C   UNL     1      -2.099   9.293   8.368  0.00  0.00    +0.030 A 
BRANCH   9  12
ATOM     12  O   UNL     1       0.674  11.536   9.089  0.00  0.00    -0.492 OA
BRANCH  12  13
ATOM     13  C   UNL     1       1.696  11.629  10.083  0.00  0.00    +0.225 C 
ATOM     14  C   UNL     1       2.572  12.851   9.801  0.00  0.00    +0.048 C 
ENDBRANCH  12  13
ENDBRANCH   9  12
ENDBRANCH   5   6
BRANCH   1  15
ATOM     15  S   UNL     1      -2.124   6.011   7.152  0.00  0.00    -0.076 S 
BRANCH  15  16
ATOM     16  C   UNL     1      -2.887   4.469   6.588  0.00  0.00    +0.173 C 
BRANCH  16  18
ATOM     17  N   UNL     1      -2.668   2.915   4.676  0.00  0.00    -0.285 N 
ATOM     18  C   UNL     1      -2.256   4.043   5.287  0.00  0.00    +0.227 C 
ATOM     19  O   UNL     1      -1.377   4.716   4.790  0.00  0.00    -0.275 OA
ATOM     20  H   UNL     1      -3.421   2.419   5.031  0.00  0.00    +0.155 HD
BRANCH  17  24
ATOM     21  C   UNL     1      -0.706   1.561   1.259  0.00  0.00    -0.048 A 
ATOM     22  C   UNL     1      -2.068   1.362   1.397  0.00  0.00    +0.005 A 
ATOM     23  C   UNL     1      -2.720   1.806   2.531  0.00  0.00    +0.023 A 
ATOM     24  C   UNL     1      -2.009   2.461   3.528  0.00  0.00    +0.033 A 
ATOM     25  C   UNL     1      -0.643   2.663   3.384  0.00  0.00    +0.023 A 
ATOM     26  C   UNL     1       0.004   2.213   2.250  0.00  0.00    +0.005 A 
BRANCH  21  28
ATOM     27  C   UNL     1       0.500  -0.358   0.253  0.00  0.00    +0.009 C 
ATOM     28  C   UNL     1       0.004   1.071   0.023  0.00  0.00    +0.032 C 
ENDBRANCH  21  28
ENDBRANCH  17  24
ENDBRANCH  16  18
ENDBRANCH  15  16
ENDBRANCH   1  15
BRANCH   4  29
ATOM     29  C   UNL     1      -4.001   7.960  11.730  0.00  0.00    +0.305 C 
BRANCH  29  30
ATOM     30  O   UNL     1      -4.996   8.941  11.433  0.00  0.00    -0.484 OA
BRANCH  30  31
ATOM     31  C   UNL     1      -5.318   9.813  12.424  0.00  0.00    +0.121 A 
ATOM     32  C   UNL     1      -4.694   9.721  13.660  0.00  0.00    +0.046 A 
ATOM     33  C   UNL     1      -5.019  10.612  14.664  0.00  0.00    +0.007 A 
ATOM     34  C   UNL     1      -5.974  11.587  14.443  0.00  0.00    -0.050 A 
ATOM     35  C   UNL     1      -6.602  11.676  13.214  0.00  0.00    +0.007 A 
ATOM     36  C   UNL     1      -6.276  10.792  12.205  0.00  0.00    +0.046 A 
ATOM     37  C   UNL     1      -6.332  12.553  15.543  0.00  0.00    +0.044 C 
ENDBRANCH  30  31
ENDBRANCH  29  30
ENDBRANCH   4  29
TORSDOF 11
