REMARK  Name = ZINC01110991
REMARK  9 active torsions:
REMARK  status: ('A' for Active; 'I' for Inactive)
REMARK    1  A    between atoms: C_1  and  C_2
REMARK    2  A    between atoms: C_2  and  N_3
REMARK    3  A    between atoms: C_4  and  C_26
REMARK    4  A    between atoms: C_7  and  S_8
REMARK    5  A    between atoms: S_8  and  C_9
REMARK    6  A    between atoms: C_9  and  C_10
REMARK    7  A    between atoms: C_26  and  N_27
REMARK    8  A    between atoms: C_28  and  C_30
REMARK    9  A    between atoms: C_33  and  C_36
REMARK                            x       y       z     vdW  Elec       q    Type
REMARK                         _______ _______ _______ _____ _____    ______ ____
ROOT
ATOM      1  N   UNL     1       8.663   3.941   1.761  0.00  0.00    -0.305 N 
ATOM      2  C   UNL     1       9.428   4.978   1.304  0.00  0.00    +0.151 A 
ATOM      3  N   UNL     1       8.651   5.754   0.603  0.00  0.00    -0.132 NA
ATOM      4  N   UNL     1       7.457   5.280   0.582  0.00  0.00    -0.122 NA
ATOM      5  C   UNL     1       7.406   4.170   1.281  0.00  0.00    +0.192 A 
ENDROOT
BRANCH   1   7
ATOM      6  C   UNL     1       9.570   1.670   1.694  0.00  0.00    +0.027 C 
ATOM      7  C   UNL     1       9.102   2.817   2.592  0.00  0.00    +0.122 C 
ENDBRANCH   1   7
BRANCH   5   8
ATOM      8  S   UNL     1       5.985   3.161   1.543  0.00  0.00    -0.077 S 
BRANCH   8   9
ATOM      9  C   UNL     1       4.752   4.107   0.614  0.00  0.00    +0.174 C 
BRANCH   9  10
ATOM     10  C   UNL     1       3.417   3.413   0.700  0.00  0.00    +0.234 C 
ATOM     11  O   UNL     1       3.360   2.248   1.034  0.00  0.00    -0.274 OA
ATOM     12  N   UNL     1       2.288   4.087   0.406  0.00  0.00    -0.237 N 
ATOM     13  C   UNL     1       1.067   3.401   0.405  0.00  0.00    +0.055 A 
ATOM     14  C   UNL     1       0.997   2.098  -0.063  0.00  0.00    +0.025 A 
ATOM     15  C   UNL     1      -0.213   1.427  -0.062  0.00  0.00    +0.002 A 
ATOM     16  C   UNL     1      -1.359   2.050   0.397  0.00  0.00    +0.001 A 
ATOM     17  C   UNL     1      -1.300   3.349   0.872  0.00  0.00    +0.017 A 
ATOM     18  C   UNL     1      -0.093   4.023   0.874  0.00  0.00    +0.035 A 
ATOM     19  S   UNL     1       0.013   5.683   1.468  0.00  0.00    -0.086 S 
ATOM     20  C   UNL     1       1.369   6.330   0.541  0.00  0.00    +0.035 A 
ATOM     21  C   UNL     1       2.367   5.453   0.108  0.00  0.00    +0.055 A 
ATOM     22  C   UNL     1       3.438   5.949  -0.621  0.00  0.00    +0.025 A 
ATOM     23  C   UNL     1       3.509   7.299  -0.911  0.00  0.00    +0.002 A 
ATOM     24  C   UNL     1       2.519   8.162  -0.480  0.00  0.00    +0.001 A 
ATOM     25  C   UNL     1       1.446   7.679   0.248  0.00  0.00    +0.017 A 
ENDBRANCH   9  10
ENDBRANCH   8   9
ENDBRANCH   5   8
BRANCH   2  26
ATOM     26  C   UNL     1      10.899   5.185   1.563  0.00  0.00    +0.181 C 
BRANCH  26  27
ATOM     27  N   UNL     1      11.677   4.529   0.510  0.00  0.00    -0.304 N 
ATOM     28  C   UNL     1      13.024   4.582   0.535  0.00  0.00    +0.244 C 
ATOM     29  O   UNL     1      13.592   5.174   1.431  0.00  0.00    -0.270 OA
ATOM     30  H   UNL     1      11.224   4.056  -0.205  0.00  0.00    +0.149 HD
BRANCH  28  31
ATOM     31  C   UNL     1      13.809   3.920  -0.528  0.00  0.00    +0.037 A 
ATOM     32  C   UNL     1      13.160   3.233  -1.556  0.00  0.00    +0.013 A 
ATOM     33  C   UNL     1      13.899   2.621  -2.546  0.00  0.00    +0.004 A 
ATOM     34  C   UNL     1      15.281   2.678  -2.518  0.00  0.00    -0.050 A 
ATOM     35  C   UNL     1      15.931   3.352  -1.499  0.00  0.00    +0.004 A 
ATOM     36  C   UNL     1      15.204   3.973  -0.505  0.00  0.00    +0.013 A 
ATOM     37  C   UNL     1      16.082   2.002  -3.601  0.00  0.00    +0.044 C 
ENDBRANCH  28  31
ENDBRANCH  26  27
ENDBRANCH   2  26
TORSDOF 7
