REMARK  Name = ZINC08903738
REMARK  12 active torsions:
REMARK  status: ('A' for Active; 'I' for Inactive)
REMARK    1  A    between atoms: C_1  and  C_2
REMARK    2  A    between atoms: C_2  and  C_3
REMARK    3  A    between atoms: C_2  and  O_4
REMARK    4  A    between atoms: O_4  and  C_5
REMARK    5  A    between atoms: C_5  and  C_7
REMARK    6  A    between atoms: C_17  and  C_19
REMARK    7  A    between atoms: C_19  and  O_20
REMARK    8  A    between atoms: O_20  and  C_21
REMARK    9  A    between atoms: C_24  and  C_27
REMARK   10  A    between atoms: C_27  and  C_28
REMARK   11  A    between atoms: C_27  and  C_29
REMARK   12  A    between atoms: C_27  and  C_30
REMARK                            x       y       z     vdW  Elec       q    Type
REMARK                         _______ _______ _______ _____ _____    ______ ____
ROOT
ATOM      1  C   UNL     1       2.113  12.625   0.054  0.00  0.00    +0.060 A 
ATOM      2  C   UNL     1       0.860  11.996   0.064  0.00  0.00    +0.017 A 
ATOM      3  C   UNL     1       0.746  10.646   0.056  0.00  0.00    +0.030 A 
ATOM      4  C   UNL     1       1.895   9.815   0.039  0.00  0.00    +0.080 A 
ATOM      5  C   UNL     1       3.149  10.474   0.030  0.00  0.00    +0.042 A 
ATOM      6  C   UNL     1       3.269  11.836   0.037  0.00  0.00    +0.032 A 
ATOM      7  S   UNL     1       4.290   9.112   0.019  0.00  0.00    -0.052 S 
ATOM      8  C   UNL     1       3.073   7.803   0.016  0.00  0.00    +0.166 A 
ATOM      9  N   UNL     1       1.942   8.474   0.031  0.00  0.00    -0.225 NA
ATOM     10  N   UNL     1       3.270   6.433   0.006  0.00  0.00    -0.262 N 
ATOM     11  C   UNL     1       2.211   5.600   0.012  0.00  0.00    +0.256 C 
ATOM     12  O   UNL     1       1.085   6.050   0.025  0.00  0.00    -0.272 OA
ATOM     13  H   UNL     1       4.171   6.073  -0.004  0.00  0.00    +0.157 HD
ENDROOT
BRANCH   1  14
ATOM     14  C   UNL     1       2.212  14.096   0.063  0.00  0.00    +0.339 C 
ATOM     15  O   UNL     1       3.303  14.631   0.055  0.00  0.00    -0.245 OA
BRANCH  14  16
ATOM     16  O   UNL     1       1.093  14.846   0.079  0.00  0.00    -0.458 OA
BRANCH  16  18
ATOM     17  C   UNL     1       1.312  16.803  -1.353  0.00  0.00    +0.052 C 
ATOM     18  C   UNL     1       1.266  16.288   0.086  0.00  0.00    +0.171 C 
ATOM     19  C   UNL     1       0.094  16.938   0.824  0.00  0.00    +0.052 C 
ENDBRANCH  16  18
ENDBRANCH  14  16
ENDBRANCH   1  14
BRANCH  11  20
ATOM     20  C   UNL     1       2.426   4.108   0.001  0.00  0.00    +0.324 C 
BRANCH  20  21
ATOM     21  O   UNL     1       1.160   3.445   0.010  0.00  0.00    -0.483 OA
BRANCH  21  22
ATOM     22  C   UNL     1       1.176   2.086   0.002  0.00  0.00    +0.121 A 
ATOM     23  C   UNL     1      -0.017   1.377   0.010  0.00  0.00    +0.046 A 
ATOM     24  C   UNL     1       0.002  -0.004   0.002  0.00  0.00    +0.008 A 
ATOM     25  C   UNL     1       1.208  -0.680  -0.013  0.00  0.00    -0.042 A 
ATOM     26  C   UNL     1       2.398   0.024  -0.021  0.00  0.00    +0.008 A 
ATOM     27  C   UNL     1       2.385   1.405  -0.013  0.00  0.00    +0.046 A 
BRANCH  25  28
ATOM     28  C   UNL     1       1.226  -2.187  -0.021  0.00  0.00    -0.013 C 
ATOM     29  C   UNL     1       0.498  -2.699  -1.266  0.00  0.00    +0.015 C 
ATOM     30  C   UNL     1       2.674  -2.680  -0.037  0.00  0.00    +0.015 C 
ATOM     31  C   UNL     1       0.522  -2.712   1.233  0.00  0.00    +0.015 C 
ENDBRANCH  25  28
ENDBRANCH  21  22
ENDBRANCH  20  21
ENDBRANCH  11  20
TORSDOF 7
