REMARK  Name = ZINC05463577
REMARK  7 active torsions:
REMARK  status: ('A' for Active; 'I' for Inactive)
REMARK    1  A    between atoms: C_1  and  C_2
REMARK    2  A    between atoms: C_2  and  C_3
REMARK    3  A    between atoms: C_2  and  C_4
REMARK    4  A    between atoms: C_11  and  N_28
REMARK    5  A    between atoms: C_12  and  C_26
REMARK    6  A    between atoms: N_20  and  C_23
REMARK    7  A    between atoms: C_23  and  C_24
REMARK                            x       y       z     vdW  Elec       q    Type
REMARK                         _______ _______ _______ _____ _____    ______ ____
ROOT
ATOM      1  C   UNL     1      -0.116   5.818   2.594  0.00  0.00    +0.047 A 
ATOM      2  C   UNL     1       0.217   5.978   1.304  0.00  0.00    +0.061 A 
ATOM      3  C   UNL     1       1.254   6.938   1.235  0.00  0.00    +0.245 A 
ATOM      4  N   UNL     1       1.521   7.329   2.447  0.00  0.00    -0.135 NA
ATOM      5  N   UNL     1       0.672   6.639   3.327  0.00  0.00    -0.278 N 
ATOM      6  H   UNL     1       0.652   6.737   4.322  0.00  0.00    +0.189 HD
ATOM      7  O   UNL     1       1.806   7.316   0.052  0.00  0.00    -0.421 OA
ATOM      8  C   UNL     1       1.170   6.956  -1.081  0.00  0.00    +0.201 C 
ATOM      9  C   UNL     1       0.175   6.043  -1.141  0.00  0.00    +0.110 C 
ATOM     10  C   UNL     1      -0.336   5.319   0.073  0.00  0.00    +0.145 C 
ATOM     11  C   UNL     1       0.015   3.866   0.026  0.00  0.00    -0.001 A 
ATOM     12  C   UNL     1       1.231   3.219  -0.012  0.00  0.00    +0.007 A 
ATOM     13  C   UNL     1       1.206   1.829  -0.052  0.00  0.00    +0.000 A 
ATOM     14  C   UNL     1       0.015   1.132  -0.053  0.00  0.00    +0.002 A 
ATOM     15  C   UNL     1      -1.212   1.776  -0.020  0.00  0.00    +0.024 A 
ATOM     16  C   UNL     1      -1.200   3.171   0.026  0.00  0.00    +0.042 A 
ATOM     17  N   UNL     1      -2.262   4.057   0.069  0.00  0.00    -0.259 N 
ATOM     18  C   UNL     1      -1.848   5.341   0.099  0.00  0.00    +0.241 C 
ATOM     19  O   UNL     1      -2.554   6.327   0.140  0.00  0.00    -0.274 OA
ENDROOT
BRANCH   1  21
ATOM     20  C   UNL     1      -0.562   3.970   4.186  0.00  0.00    +0.014 C 
ATOM     21  C   UNL     1      -1.176   4.891   3.130  0.00  0.00    +0.031 C 
ATOM     22  C   UNL     1      -2.300   5.714   3.762  0.00  0.00    +0.014 C 
ENDBRANCH   1  21
BRANCH   8  23
ATOM     23  N   UNL     1       1.560   7.557  -2.252  0.00  0.00    -0.328 N 
ATOM     24  H   UNL     1       2.271   8.217  -2.245  0.00  0.00    +0.145 HD
ATOM     25  H   UNL     1       1.124   7.322  -3.086  0.00  0.00    +0.145 HD
ENDBRANCH   8  23
BRANCH   9  26
ATOM     26  C   UNL     1      -0.416   5.755  -2.413  0.00  0.00    +0.102 C 
ATOM     27  N   UNL     1      -0.885   5.527  -3.422  0.00  0.00    -0.191 NA
ENDBRANCH   9  26
BRANCH  17  28
ATOM     28  C   UNL     1      -3.669   3.650   0.082  0.00  0.00    +0.238 C 
BRANCH  28  29
ATOM     29  C   UNL     1      -4.203   3.645  -1.328  0.00  0.00    +0.373 C 
ATOM     30  O   UNL     1      -3.459   3.853  -2.256  0.00  0.00    -0.245 OA
ATOM     31  O   UNL     1      -5.506   3.411  -1.551  0.00  0.00    -0.245 OA
ENDBRANCH  28  29
ENDBRANCH  17  28
TORSDOF 5
