REMARK  Name = ZINC01883134
REMARK  5 active torsions:
REMARK  status: ('A' for Active; 'I' for Inactive)
REMARK    1  A    between atoms: C_4  and  C_7
REMARK    2  A    between atoms: C_10  and  N_29
REMARK    3  A    between atoms: C_16  and  C_17
REMARK    4  A    between atoms: N_19  and  N_20
REMARK    5  A    between atoms: C_21  and  C_22
REMARK                            x       y       z     vdW  Elec       q    Type
REMARK                         _______ _______ _______ _____ _____    ______ ____
ROOT
ATOM      1  C   UNL     1       1.172   3.566   0.009  0.00  0.00    +0.020 A 
ATOM      2  C   UNL     1       1.656   4.454  -1.054  0.00  0.00    +0.010 A 
ATOM      3  C   UNL     1       2.235   4.232  -2.305  0.00  0.00    +0.043 A 
ATOM      4  C   UNL     1       2.590   5.293  -3.088  0.00  0.00    +0.127 A 
ATOM      5  C   UNL     1       2.379   6.594  -2.648  0.00  0.00    +0.035 A 
ATOM      6  C   UNL     1       1.803   6.837  -1.422  0.00  0.00    +0.028 A 
ATOM      7  C   UNL     1       1.437   5.769  -0.605  0.00  0.00    +0.048 A 
ATOM      8  N   UNL     1       0.869   5.702   0.646  0.00  0.00    -0.350 N 
ATOM      9  H   UNL     1       0.617   6.626   1.187  0.00  0.00    +0.166 HD
ATOM     10  C   UNL     1       0.706   4.385   1.022  0.00  0.00    +0.112 A 
ENDROOT
BRANCH   1  14
ATOM     11  C   UNL     1       1.208  -0.682  -0.014  0.00  0.00    +0.000 A 
ATOM     12  C   UNL     1       0.002  -0.004   0.002  0.00  0.00    +0.001 A 
ATOM     13  C   UNL     1      -0.017   1.375   0.010  0.00  0.00    +0.008 A 
ATOM     14  C   UNL     1       1.184   2.087   0.002  0.00  0.00    -0.015 A 
ATOM     15  C   UNL     1       2.397   1.396  -0.013  0.00  0.00    +0.008 A 
ATOM     16  C   UNL     1       2.402   0.017  -0.021  0.00  0.00    +0.001 A 
ENDBRANCH   1  14
BRANCH  10  17
ATOM     17  C   UNL     1       0.132   3.927   2.292  0.00  0.00    +0.280 C 
ATOM     18  O   UNL     1       0.035   2.735   2.521  0.00  0.00    -0.267 OA
ATOM     19  N   UNL     1      -0.288   4.825   3.204  0.00  0.00    -0.202 N 
ATOM     20  H   UNL     1      -0.201   5.902   2.997  0.00  0.00    +0.178 HD
BRANCH  19  21
ATOM     21  N   UNL     1      -0.837   4.388   4.417  0.00  0.00    -0.187 NA
ATOM     22  C   UNL     1      -1.242   5.253   5.296  0.00  0.00    +0.138 C 
BRANCH  22  23
ATOM     23  C   UNL     1      -1.819   4.793   6.572  0.00  0.00    -0.005 A 
ATOM     24  C   UNL     1      -1.937   3.426   6.836  0.00  0.00    +0.010 A 
ATOM     25  C   UNL     1      -2.472   3.002   8.034  0.00  0.00    +0.016 A 
ATOM     26  C   UNL     1      -2.903   3.928   8.970  0.00  0.00    +0.018 A 
ATOM     27  C   UNL     1      -2.794   5.284   8.712  0.00  0.00    +0.016 A 
ATOM     28  C   UNL     1      -2.256   5.721   7.520  0.00  0.00    +0.010 A 
ATOM     29 BR   UNL     1      -3.644   3.337  10.606  0.00  0.00    -0.050 Br
ENDBRANCH  22  23
ENDBRANCH  19  21
ENDBRANCH  10  17
BRANCH   4  30
ATOM     30  N   UNL     1       3.204   5.056  -4.414  0.00  0.00    +0.056 N 
ATOM     31  O   UNL     1       3.391   3.918  -4.803  0.00  0.00    -0.126 OA
ATOM     32  O   UNL     1       3.522   6.000  -5.115  0.00  0.00    -0.126 OA
ENDBRANCH   4  30
TORSDOF 5
