REMARK  Name = ZINC65582726
REMARK  11 active torsions:
REMARK  status: ('A' for Active; 'I' for Inactive)
REMARK    1  A    between atoms: C_1  and  C_2
REMARK    2  A    between atoms: C_2  and  C_3
REMARK    3  A    between atoms: C_3  and  C_4
REMARK    4  A    between atoms: C_4  and  C_5
REMARK    5  A    between atoms: C_5  and  C_6
REMARK    6  A    between atoms: C_5  and  N_26
REMARK    7  A    between atoms: N_8  and  C_9
REMARK    8  A    between atoms: C_14  and  C_15
REMARK    9  A    between atoms: N_17  and  C_18
REMARK   10  A    between atoms: C_18  and  C_19
REMARK   11  A    between atoms: C_22  and  C_25
REMARK                            x       y       z     vdW  Elec       q    Type
REMARK                         _______ _______ _______ _____ _____    ______ ____
ROOT
ATOM      1  C   UNL     1       0.143  -5.993  -3.206  0.00  0.00    +0.046 A 
ATOM      2  C   UNL     1       1.186  -6.820  -2.812  0.00  0.00    +0.024 A 
ATOM      3  C   UNL     1       1.090  -8.186  -2.987  0.00  0.00    +0.002 A 
ATOM      4  C   UNL     1      -0.044  -8.742  -3.556  0.00  0.00    +0.001 A 
ATOM      5  C   UNL     1      -1.089  -7.937  -3.953  0.00  0.00    +0.015 A 
ATOM      6  C   UNL     1      -1.010  -6.553  -3.778  0.00  0.00    +0.058 A 
ENDROOT
BRANCH   1   9
ATOM      7  C   UNL     1       1.427  -3.997  -3.173  0.00  0.00    +0.238 C 
ATOM      8  O   UNL     1       2.429  -4.651  -3.373  0.00  0.00    -0.273 OA
ATOM      9  N   UNL     1       0.237  -4.615  -3.031  0.00  0.00    -0.283 N 
ATOM     10  H   UNL     1      -0.553  -4.099  -2.807  0.00  0.00    +0.155 HD
BRANCH   7  11
ATOM     11  C   UNL     1       1.512  -2.495  -3.084  0.00  0.00    +0.161 C 
BRANCH  11  12
ATOM     12  N   UNL     1       2.748  -2.037  -3.723  0.00  0.00    -0.288 N 
ATOM     13  C   UNL     1       3.942  -2.459  -3.262  0.00  0.00    +0.298 C 
ATOM     14  O   UNL     1       3.993  -3.220  -2.314  0.00  0.00    -0.253 OA
ATOM     15  N   UNL     1       5.079  -2.038  -3.850  0.00  0.00    -0.313 N 
ATOM     16  H   UNL     1       2.707  -1.431  -4.479  0.00  0.00    +0.151 HD
ATOM     17  H   UNL     1       5.038  -1.431  -4.606  0.00  0.00    +0.146 HD
ATOM     18  H   UNL     1       5.938  -2.341  -3.518  0.00  0.00    +0.146 HD
ENDBRANCH  11  12
BRANCH  11  19
ATOM     19  C   UNL     1       1.510  -2.071  -1.614  0.00  0.00    +0.032 C 
BRANCH  19  20
ATOM     20  C   UNL     1       1.471  -0.544  -1.524  0.00  0.00    +0.002 C 
BRANCH  20  22
ATOM     21  C   UNL     1       1.430   1.407   0.036  0.00  0.00    +0.004 C 
ATOM     22  C   UNL     1       1.470  -0.120  -0.054  0.00  0.00    -0.003 C 
ENDBRANCH  20  22
ENDBRANCH  19  20
ENDBRANCH  11  19
ENDBRANCH   7  11
ENDBRANCH   1   9
BRANCH   6  23
ATOM     23  C   UNL     1      -2.128  -5.687  -4.195  0.00  0.00    +0.246 C 
ATOM     24  O   UNL     1      -2.014  -4.477  -4.136  0.00  0.00    -0.270 OA
ATOM     25  N   UNL     1      -3.274  -6.235  -4.643  0.00  0.00    -0.307 N 
ATOM     26  H   UNL     1      -3.365  -7.199  -4.691  0.00  0.00    +0.149 HD
BRANCH  25  27
ATOM     27  C   UNL     1      -4.385  -5.374  -5.058  0.00  0.00    +0.139 C 
BRANCH  27  28
ATOM     28  C   UNL     1      -5.540  -6.228  -5.513  0.00  0.00    -0.030 A 
ATOM     29  C   UNL     1      -5.637  -6.609  -6.838  0.00  0.00    +0.005 A 
ATOM     30  C   UNL     1      -6.697  -7.393  -7.256  0.00  0.00    +0.003 A 
ATOM     31  C   UNL     1      -7.659  -7.795  -6.348  0.00  0.00    -0.050 A 
ATOM     32  C   UNL     1      -7.561  -7.415  -5.023  0.00  0.00    +0.003 A 
ATOM     33  C   UNL     1      -6.499  -6.635  -4.605  0.00  0.00    +0.005 A 
ATOM     34  C   UNL     1      -8.814  -8.649  -6.804  0.00  0.00    +0.044 C 
ENDBRANCH  27  28
ENDBRANCH  25  27
ENDBRANCH   6  23
TORSDOF 9
