REMARK  Name = ZINC38870161
REMARK  10 active torsions:
REMARK  status: ('A' for Active; 'I' for Inactive)
REMARK    1  A    between atoms: C_1  and  C_2
REMARK    2  A    between atoms: C_4  and  N_9
REMARK    3  A    between atoms: C_5  and  C_8
REMARK    4  A    between atoms: C_10  and  C_12
REMARK    5  A    between atoms: C_12  and  S_13
REMARK    6  A    between atoms: S_13  and  C_14
REMARK    7  A    between atoms: C_18  and  C_27
REMARK    8  A    between atoms: N_20  and  C_21
REMARK    9  A    between atoms: C_27  and  O_28
REMARK   10  A    between atoms: O_28  and  C_29
REMARK                            x       y       z     vdW  Elec       q    Type
REMARK                         _______ _______ _______ _____ _____    ______ ____
ROOT
ATOM      1  C   UNL     1      -6.982  -1.748  -3.572  0.00  0.00    +0.217 C 
ATOM      2  N   UNL     1      -6.268  -2.157  -4.803  0.00  0.00    -0.226 NA
ATOM      3  N   UNL     1      -6.676  -1.163  -5.809  0.00  0.00    -0.231 NA
ATOM      4  C   UNL     1      -6.737   0.099  -5.026  0.00  0.00    +0.195 C 
ATOM      5  N   UNL     1      -7.280  -0.313  -3.714  0.00  0.00    -0.285 N 
ATOM      6  H   UNL     1      -6.537  -3.088  -5.085  0.00  0.00    +0.143 HD
ATOM      7  H   UNL     1      -7.579  -1.391  -6.197  0.00  0.00    +0.143 HD
ENDROOT
BRANCH   5   8
ATOM      8  C   UNL     1      -7.944   0.499  -2.791  0.00  0.00    +0.033 A 
ATOM      9  C   UNL     1      -8.158   1.842  -3.072  0.00  0.00    +0.023 A 
ATOM     10  C   UNL     1      -8.815   2.642  -2.158  0.00  0.00    +0.002 A 
ATOM     11  C   UNL     1      -9.261   2.106  -0.963  0.00  0.00    +0.000 A 
ATOM     12  C   UNL     1      -9.050   0.769  -0.680  0.00  0.00    +0.002 A 
ATOM     13  C   UNL     1      -8.398  -0.037  -1.593  0.00  0.00    +0.023 A 
ENDBRANCH   5   8
BRANCH   1  14
ATOM     14  S   UNL     1      -5.926  -2.023  -2.122  0.00  0.00    -0.112 S 
BRANCH  14  15
ATOM     15  C   UNL     1      -4.459  -1.007  -2.448  0.00  0.00    +0.168 C 
BRANCH  15  17
ATOM     16  N   UNL     1      -2.250  -0.610  -1.410  0.00  0.00    -0.285 N 
ATOM     17  C   UNL     1      -3.464  -1.189  -1.331  0.00  0.00    +0.227 C 
ATOM     18  O   UNL     1      -3.756  -1.856  -0.362  0.00  0.00    -0.275 OA
ATOM     19  H   UNL     1      -2.038  -0.025  -2.155  0.00  0.00    +0.155 HD
BRANCH  16  22
ATOM     20  C   UNL     1       0.802   0.310  -1.141  0.00  0.00    +0.041 C 
ATOM     21  C   UNL     1       0.197  -0.983  -0.592  0.00  0.00    +0.171 C 
ATOM     22  C   UNL     1      -1.308  -0.847  -0.433  0.00  0.00    +0.059 C 
ATOM     23  C   UNL     1      -1.505  -1.014   0.892  0.00  0.00    +0.079 C 
ATOM     24  N   UNL     1      -0.343  -1.226   1.520  0.00  0.00    -0.157 NA
ATOM     25  N   UNL     1       0.654  -1.229   0.787  0.00  0.00    -0.178 NA
ATOM     26  C   UNL     1      -2.849  -0.969   1.572  0.00  0.00    +0.069 C 
ENDBRANCH  16  22
ENDBRANCH  15  17
ENDBRANCH  14  15
ENDBRANCH   1  14
BRANCH   4  27
ATOM     27  C   UNL     1      -5.338   0.697  -4.866  0.00  0.00    +0.268 C 
BRANCH  27  28
ATOM     28  O   UNL     1      -4.850   1.116  -6.142  0.00  0.00    -0.488 OA
BRANCH  28  29
ATOM     29  C   UNL     1      -3.580   1.593  -6.190  0.00  0.00    +0.128 A 
ATOM     30  C   UNL     1      -2.791   1.563  -5.074  0.00  0.00    +0.046 A 
ATOM     31  C   UNL     1      -1.486   2.048  -5.107  0.00  0.00    +0.004 A 
ATOM     32  C   UNL     1      -0.958   2.566  -6.251  0.00  0.00    +0.009 A 
ATOM     33  C   UNL     1      -1.737   2.614  -7.420  0.00  0.00    -0.014 A 
ATOM     34  C   UNL     1      -3.063   2.117  -7.393  0.00  0.00    +0.024 A 
ATOM     35  C   UNL     1      -3.840   2.161  -8.562  0.00  0.00    +0.012 A 
ATOM     36  C   UNL     1      -3.308   2.674  -9.705  0.00  0.00    +0.001 A 
ATOM     37  C   UNL     1      -2.001   3.158  -9.734  0.00  0.00    +0.001 A 
ATOM     38  C   UNL     1      -1.223   3.141  -8.617  0.00  0.00    +0.008 A 
ENDBRANCH  28  29
ENDBRANCH  27  28
ENDBRANCH   4  27
TORSDOF 8
