REMARK  Name = ZINC40801245
REMARK  7 active torsions:
REMARK  status: ('A' for Active; 'I' for Inactive)
REMARK    1  A    between atoms: C_1  and  C_2
REMARK    2  A    between atoms: C_2  and  C_3
REMARK    3  A    between atoms: C_2  and  N_4
REMARK    4  A    between atoms: C_5  and  C_7
REMARK    5  A    between atoms: C_11  and  N_12
REMARK    6  A    between atoms: C_13  and  C_15
REMARK    7  A    between atoms: C_15  and  C_16
REMARK                            x       y       z     vdW  Elec       q    Type
REMARK                         _______ _______ _______ _____ _____    ______ ____
ROOT
ATOM      1  N   UNL     1      -2.852  -3.319   1.766  0.00  0.00    -0.279 N 
ATOM      2  C   UNL     1      -3.492  -4.033   2.713  0.00  0.00    +0.222 C 
ATOM      3  O   UNL     1      -4.645  -4.368   2.544  0.00  0.00    -0.275 OA
ATOM      4  H   UNL     1      -1.930  -3.050   1.901  0.00  0.00    +0.155 HD
ENDROOT
BRANCH   1   9
ATOM      5  C   UNL     1      -3.019  -2.242  -0.474  0.00  0.00    +0.069 A 
ATOM      6  C   UNL     1      -3.919  -2.011  -1.591  0.00  0.00    -0.023 A 
ATOM      7  C   UNL     1      -5.150  -2.542  -1.427  0.00  0.00    -0.004 A 
ATOM      8  S   UNL     1      -5.095  -3.320   0.161  0.00  0.00    -0.077 S 
ATOM      9  C   UNL     1      -3.513  -2.967   0.598  0.00  0.00    +0.084 A 
ATOM     10  C   UNL     1      -6.294  -2.475  -2.391  0.00  0.00    +0.043 C 
ATOM     11  C   UNL     1      -5.984  -1.390  -3.433  0.00  0.00    +0.005 C 
ATOM     12  C   UNL     1      -4.557  -1.593  -3.950  0.00  0.00    +0.005 C 
ATOM     13  C   UNL     1      -3.550  -1.244  -2.852  0.00  0.00    +0.037 C 
BRANCH   5  15
ATOM     14  N   UNL     1      -1.372  -0.511   0.012  0.00  0.00    -0.309 N 
ATOM     15  C   UNL     1      -1.643  -1.734  -0.485  0.00  0.00    +0.247 C 
ATOM     16  O   UNL     1      -0.746  -2.417  -0.943  0.00  0.00    -0.270 OA
ATOM     17  H   UNL     1      -2.087   0.033   0.377  0.00  0.00    +0.149 HD
BRANCH  14  19
ATOM     18  C   UNL     1      -0.019   1.526   0.010  0.00  0.00    +0.027 C 
ATOM     19  C   UNL     1       0.002  -0.004   0.002  0.00  0.00    +0.067 C 
ATOM     20  C   UNL     1       0.742  -0.511   1.242  0.00  0.00    +0.027 C 
ENDBRANCH  14  19
ENDBRANCH   5  15
ENDBRANCH   1   9
BRANCH   2  21
ATOM     21  C   UNL     1      -2.775  -4.415   3.982  0.00  0.00    +0.150 C 
BRANCH  21  22
ATOM     22  C   UNL     1      -3.719  -5.216   4.880  0.00  0.00    +0.268 C 
ATOM     23  C   UNL     1      -2.965  -5.705   6.091  0.00  0.00    +0.259 C 
ATOM     24  O   UNL     1      -2.449  -6.802   6.085  0.00  0.00    -0.271 OA
ATOM     25  N   UNL     1      -2.868  -4.916   7.182  0.00  0.00    -0.280 N 
ATOM     26  C   UNL     1      -3.576  -3.707   7.217  0.00  0.00    +0.076 A 
ATOM     27  C   UNL     1      -3.326  -2.772   8.209  0.00  0.00    +0.027 A 
ATOM     28  C   UNL     1      -4.024  -1.579   8.222  0.00  0.00    +0.002 A 
ATOM     29  C   UNL     1      -4.970  -1.316   7.248  0.00  0.00    +0.004 A 
ATOM     30  C   UNL     1      -5.228  -2.247   6.258  0.00  0.00    +0.047 A 
ATOM     31  C   UNL     1      -4.537  -3.447   6.242  0.00  0.00    +0.143 A 
ATOM     32  O   UNL     1      -4.804  -4.383   5.293  0.00  0.00    -0.477 OA
ATOM     33  H   UNL     1      -2.314  -5.182   7.933  0.00  0.00    +0.155 HD
ENDBRANCH  21  22
ENDBRANCH   2  21
TORSDOF 5
