REMARK  Name = ZINC10440093
REMARK  10 active torsions:
REMARK  status: ('A' for Active; 'I' for Inactive)
REMARK    1  A    between atoms: C_1  and  C_2
REMARK    2  A    between atoms: C_2  and  C_3
REMARK    3  A    between atoms: C_10  and  C_12
REMARK    4  A    between atoms: C_15  and  S_18
REMARK    5  A    between atoms: N_16  and  C_17
REMARK    6  A    between atoms: S_18  and  C_19
REMARK    7  A    between atoms: C_19  and  C_20
REMARK    8  A    between atoms: N_22  and  C_23
REMARK    9  A    between atoms: C_26  and  N_30
REMARK   10  A    between atoms: C_28  and  C_29
REMARK                            x       y       z     vdW  Elec       q    Type
REMARK                         _______ _______ _______ _____ _____    ______ ____
ROOT
ATOM      1  C   UNL     1       6.014   2.851  -0.088  0.00  0.00    +0.171 A 
ATOM      2  N   UNL     1       5.100   3.796  -0.075  0.00  0.00    -0.128 NA
ATOM      3  N   UNL     1       3.927   3.273  -0.061  0.00  0.00    -0.122 NA
ATOM      4  C   UNL     1       4.016   1.962  -0.057  0.00  0.00    +0.192 A 
ATOM      5  N   UNL     1       5.346   1.646  -0.077  0.00  0.00    -0.305 N 
ATOM      6  C   UNL     1       5.938   0.306  -0.085  0.00  0.00    +0.153 C 
ENDROOT
BRANCH   1  13
ATOM      7  C   UNL     1      11.867   4.869  -0.995  0.00  0.00    -0.007 C 
ATOM      8  C   UNL     1      12.382   3.961   0.125  0.00  0.00    +0.009 C 
ATOM      9  C   UNL     1      11.609   2.634   0.079  0.00  0.00    +0.043 C 
ATOM     10  C   UNL     1      10.151   2.943  -0.033  0.00  0.00    -0.006 A 
ATOM     11  C   UNL     1       9.579   4.136  -0.362  0.00  0.00    -0.036 A 
ATOM     12  C   UNL     1       8.190   4.172  -0.404  0.00  0.00    +0.023 A 
ATOM     13  C   UNL     1       7.473   3.043  -0.111  0.00  0.00    +0.057 A 
ATOM     14  S   UNL     1       8.770   1.863   0.228  0.00  0.00    -0.090 S 
ATOM     15  C   UNL     1      10.452   5.349  -0.670  0.00  0.00    +0.039 C 
BRANCH   7  17
ATOM     16  C   UNL     1      12.362   6.914  -2.342  0.00  0.00    +0.004 C 
ATOM     17  C   UNL     1      12.794   6.078  -1.135  0.00  0.00    +0.000 C 
ENDBRANCH   7  17
ENDBRANCH   1  13
BRANCH   4  18
ATOM     18  S   UNL     1       2.672   0.823  -0.036  0.00  0.00    -0.077 S 
BRANCH  18  19
ATOM     19  C   UNL     1       1.280   1.980  -0.015  0.00  0.00    +0.173 C 
BRANCH  19  20
ATOM     20  C   UNL     1      -0.014   1.209   0.005  0.00  0.00    +0.227 C 
ATOM     21  O   UNL     1       0.003  -0.004   0.005  0.00  0.00    -0.275 OA
ATOM     22  N   UNL     1      -1.191   1.867   0.018  0.00  0.00    -0.285 N 
ATOM     23  H   UNL     1      -1.205   2.833   0.099  0.00  0.00    +0.155 HD
BRANCH  22  24
ATOM     24  C   UNL     1      -2.391   1.155  -0.086  0.00  0.00    +0.036 A 
ATOM     25  C   UNL     1      -2.411  -0.091  -0.699  0.00  0.00    +0.026 A 
ATOM     26  C   UNL     1      -3.597  -0.791  -0.800  0.00  0.00    +0.034 A 
ATOM     27  C   UNL     1      -4.765  -0.252  -0.291  0.00  0.00    +0.127 A 
ATOM     28  C   UNL     1      -4.748   0.989   0.320  0.00  0.00    +0.038 A 
ATOM     29  C   UNL     1      -3.564   1.691   0.428  0.00  0.00    -0.027 A 
ATOM     30  C   UNL     1      -3.546   3.040   1.100  0.00  0.00    +0.046 C 
BRANCH  27  31
ATOM     31  N   UNL     1      -6.035  -1.004  -0.401  0.00  0.00    +0.056 N 
ATOM     32  O   UNL     1      -6.050  -2.097  -0.939  0.00  0.00    -0.126 OA
ATOM     33  O   UNL     1      -7.064  -0.530   0.046  0.00  0.00    -0.126 OA
ENDBRANCH  27  31
ENDBRANCH  22  24
ENDBRANCH  19  20
ENDBRANCH  18  19
ENDBRANCH   4  18
TORSDOF 7
