REMARK  Name = ZINC12712409
REMARK  13 active torsions:
REMARK  status: ('A' for Active; 'I' for Inactive)
REMARK    1  A    between atoms: C_1  and  C_2
REMARK    2  A    between atoms: C_5  and  C_8
REMARK    3  A    between atoms: C_8  and  C_10
REMARK    4  A    between atoms: C_8  and  N_18
REMARK    5  A    between atoms: N_12  and  C_13
REMARK    6  A    between atoms: C_13  and  C_14
REMARK    7  A    between atoms: C_14  and  C_15
REMARK    8  A    between atoms: C_15  and  C_16
REMARK    9  A    between atoms: C_15  and  C_17
REMARK   10  A    between atoms: N_18  and  C_19
REMARK   11  A    between atoms: C_19  and  C_20
REMARK   12  A    between atoms: C_29  and  C_31
REMARK   13  A    between atoms: C_31  and  N_32
REMARK                            x       y       z     vdW  Elec       q    Type
REMARK                         _______ _______ _______ _____ _____    ______ ____
ROOT
ATOM      1  N   UNL     1      -0.117   8.807  -6.066  0.00  0.00    -0.280 N 
ATOM      2  C   UNL     1      -1.241   9.214  -5.444  0.00  0.00    +0.238 C 
ATOM      3  O   UNL     1      -2.321   9.037  -5.966  0.00  0.00    -0.274 OA
ENDROOT
BRANCH   1   4
ATOM      4  C   UNL     1      -0.189   8.256  -7.422  0.00  0.00    +0.193 C 
BRANCH   4   9
ATOM      5  C   UNL     1       0.451   2.517  -7.205  0.00  0.00    +0.044 C 
ATOM      6  C   UNL     1       0.284   4.014  -7.262  0.00  0.00    -0.050 A 
ATOM      7  C   UNL     1      -0.663   4.573  -8.100  0.00  0.00    +0.004 A 
ATOM      8  C   UNL     1      -0.816   5.946  -8.152  0.00  0.00    +0.006 A 
ATOM      9  C   UNL     1      -0.022   6.760  -7.365  0.00  0.00    -0.018 A 
ATOM     10  C   UNL     1       0.928   6.201  -6.531  0.00  0.00    +0.006 A 
ATOM     11  C   UNL     1       1.078   4.828  -6.476  0.00  0.00    +0.004 A 
ENDBRANCH   4   9
BRANCH   4  12
ATOM     12  C   UNL     1       0.908   8.853  -8.265  0.00  0.00    +0.238 C 
ATOM     13  O   UNL     1       2.059   8.807  -7.884  0.00  0.00    -0.273 OA
ATOM     14  N   UNL     1       0.612   9.437  -9.443  0.00  0.00    -0.313 N 
ATOM     15  H   UNL     1      -0.309   9.473  -9.748  0.00  0.00    +0.149 HD
BRANCH  14  16
ATOM     16  C   UNL     1       1.678  10.016 -10.263  0.00  0.00    +0.104 C 
BRANCH  16  17
ATOM     17  C   UNL     1       1.076  10.610 -11.538  0.00  0.00    +0.022 C 
BRANCH  17  18
ATOM     18  C   UNL     1       2.190  11.216 -12.394  0.00  0.00    -0.016 C 
ATOM     19  C   UNL     1       3.129  10.105 -12.869  0.00  0.00    +0.007 C 
ATOM     20  C   UNL     1       1.577  11.918 -13.607  0.00  0.00    +0.007 C 
ENDBRANCH  17  18
ENDBRANCH  16  17
ENDBRANCH  14  16
ENDBRANCH   4  12
ENDBRANCH   1   4
BRANCH   1  21
ATOM     21  C   UNL     1       1.177   8.916  -5.388  0.00  0.00    +0.144 C 
BRANCH  21  22
ATOM     22  C   UNL     1       1.555  10.369  -5.259  0.00  0.00    -0.026 A 
ATOM     23  C   UNL     1       0.952  11.314  -6.068  0.00  0.00    +0.009 A 
ATOM     24  C   UNL     1       1.292  12.649  -5.950  0.00  0.00    +0.050 A 
ATOM     25  C   UNL     1       2.248  13.041  -5.027  0.00  0.00    +0.166 A 
ATOM     26  C   UNL     1       2.860  12.089  -4.216  0.00  0.00    +0.167 A 
ATOM     27  C   UNL     1       2.510  10.754  -4.336  0.00  0.00    +0.054 A 
ATOM     28  O   UNL     1       3.754  12.721  -3.401  0.00  0.00    -0.453 OA
ATOM     29  C   UNL     1       3.979  14.009  -4.003  0.00  0.00    +0.466 C 
ATOM     30  O   UNL     1       2.759  14.269  -4.721  0.00  0.00    -0.453 OA
ENDBRANCH  21  22
ENDBRANCH   1  21
BRANCH   2  31
ATOM     31  C   UNL     1      -1.156   9.888  -4.098  0.00  0.00    +0.241 C 
BRANCH  31  32
ATOM     32  N   UNL     1      -2.502  10.033  -3.539  0.00  0.00    -0.235 N 
ATOM     33  C   UNL     1      -3.353  11.098  -3.711  0.00  0.00    +0.090 A 
ATOM     34  C   UNL     1      -3.270  12.300  -4.407  0.00  0.00    +0.029 A 
ATOM     35  C   UNL     1      -4.318  13.176  -4.377  0.00  0.00    +0.002 A 
ATOM     36  C   UNL     1      -5.473  12.874  -3.666  0.00  0.00    +0.002 A 
ATOM     37  C   UNL     1      -5.581  11.700  -2.979  0.00  0.00    +0.032 A 
ATOM     38  C   UNL     1      -4.519  10.786  -2.990  0.00  0.00    +0.113 A 
ATOM     39  N   UNL     1      -4.337   9.577  -2.422  0.00  0.00    -0.129 NA
ATOM     40  N   UNL     1      -3.175   9.113  -2.722  0.00  0.00    -0.064 NA
ENDBRANCH  31  32
ENDBRANCH   2  31
TORSDOF 10
