REMARK  Name = ZINC59286579
REMARK  11 active torsions:
REMARK  status: ('A' for Active; 'I' for Inactive)
REMARK    1  A    between atoms: C_1  and  C_2
REMARK    2  A    between atoms: C_3  and  C_12
REMARK    3  A    between atoms: C_4  and  C_11
REMARK    4  A    between atoms: C_12  and  C_13
REMARK    5  A    between atoms: C_13  and  C_14
REMARK    6  A    between atoms: N_16  and  C_17
REMARK    7  A    between atoms: C_17  and  C_18
REMARK    8  A    between atoms: C_23  and  C_24
REMARK    9  A    between atoms: C_24  and  N_25
REMARK   10  A    between atoms: C_27  and  C_34
REMARK   11  A    between atoms: C_30  and  C_33
REMARK                            x       y       z     vdW  Elec       q    Type
REMARK                         _______ _______ _______ _____ _____    ______ ____
ROOT
ATOM      1  C   UNL     1      -4.881   1.427   1.155  0.00  0.00    +0.214 C 
ATOM      2  O   UNL     1      -5.558   1.839   0.237  0.00  0.00    -0.276 OA
ATOM      3  N   UNL     1      -5.256   1.664   2.428  0.00  0.00    -0.311 N 
ATOM      4  H   UNL     1      -4.715   1.334   3.163  0.00  0.00    +0.149 HD
ENDROOT
BRANCH   1   5
ATOM      5  C   UNL     1      -3.621   0.650   0.873  0.00  0.00    +0.100 C 
BRANCH   5   6
ATOM      6  C   UNL     1      -3.428   0.523  -0.639  0.00  0.00    +0.048 C 
BRANCH   6   9
ATOM      7  C   UNL     1      -0.852   1.881  -0.710  0.00  0.00    +0.066 C 
ATOM      8  C   UNL     1      -0.928   0.396  -0.955  0.00  0.00    +0.047 A 
ATOM      9  C   UNL     1      -2.168  -0.254  -0.921  0.00  0.00    -0.005 A 
ATOM     10  C   UNL     1      -2.222  -1.592  -1.145  0.00  0.00    +0.048 A 
ATOM     11  N   UNL     1      -1.068  -2.266  -1.396  0.00  0.00    -0.201 N 
ATOM     12  C   UNL     1       0.126  -1.602  -1.422  0.00  0.00    +0.253 A 
ATOM     13  N   UNL     1       0.169  -0.282  -1.206  0.00  0.00    -0.216 NA
ATOM     14  N   UNL     1       1.069  -2.499  -1.687  0.00  0.00    -0.197 NA
ATOM     15  C   UNL     1       0.520  -3.698  -1.829  0.00  0.00    +0.247 A 
ATOM     16  N   UNL     1      -0.778  -3.611  -1.661  0.00  0.00    -0.152 NA
ATOM     17  C   UNL     1      -3.541  -2.320  -1.114  0.00  0.00    +0.066 C 
ENDBRANCH   6   9
ENDBRANCH   5   6
ENDBRANCH   1   5
BRANCH   3  18
ATOM     18  C   UNL     1      -6.481   2.419   2.702  0.00  0.00    +0.139 C 
BRANCH  18  19
ATOM     19  C   UNL     1      -6.647   2.585   4.191  0.00  0.00    -0.029 A 
ATOM     20  C   UNL     1      -7.475   1.729   4.894  0.00  0.00    +0.005 A 
ATOM     21  C   UNL     1      -7.627   1.881   6.259  0.00  0.00    +0.000 A 
ATOM     22  C   UNL     1      -6.950   2.888   6.922  0.00  0.00    +0.000 A 
ATOM     23  C   UNL     1      -6.121   3.742   6.220  0.00  0.00    +0.002 A 
ATOM     24  C   UNL     1      -5.966   3.588   4.855  0.00  0.00    -0.059 A 
BRANCH  24  25
ATOM     25  C   UNL     1      -5.058   4.516   4.090  0.00  0.00    -0.043 C 
BRANCH  25  26
ATOM     26  N   UNL     1      -3.748   3.877   3.904  0.00  0.00    +0.383 N 
ATOM     27  C   UNL     1      -3.102   3.700   5.210  0.00  0.00    -0.075 C 
ATOM     28  C   UNL     1      -1.774   2.962   5.030  0.00  0.00    -0.031 C 
ATOM     29  C   UNL     1      -0.861   3.781   4.113  0.00  0.00    +0.003 C 
ATOM     30  C   UNL     1      -1.576   4.022   2.780  0.00  0.00    -0.031 C 
ATOM     31  C   UNL     1      -2.911   4.721   3.044  0.00  0.00    -0.075 C 
ATOM     32  C   UNL     1      -0.704   4.905   1.885  0.00  0.00    +0.005 C 
ATOM     33  C   UNL     1      -2.032   1.590   4.402  0.00  0.00    +0.005 C 
ATOM     34  H   UNL     1      -3.874   2.975   3.469  0.00  0.00    -0.081 HD
ENDBRANCH  25  26
ENDBRANCH  24  25
ENDBRANCH  18  19
ENDBRANCH   3  18
TORSDOF 7
