REMARK  Name = ZINC07260504
REMARK  6 active torsions:
REMARK  status: ('A' for Active; 'I' for Inactive)
REMARK    1  A    between atoms: C_1  and  C_2
REMARK    2  A    between atoms: C_3  and  C_21
REMARK    3  A    between atoms: C_4  and  C_15
REMARK    4  A    between atoms: C_21  and  O_23
REMARK    5  A    between atoms: O_23  and  C_24
REMARK    6  A    between atoms: C_24  and  C_25
REMARK                            x       y       z     vdW  Elec       q    Type
REMARK                         _______ _______ _______ _____ _____    ______ ____
ROOT
ATOM      1  C   UNL     1      -0.018   1.503   0.010  0.00  0.00    +0.061 C 
ATOM      2  C   UNL     1       0.002  -0.004   0.002  0.00  0.00    +0.017 C 
ATOM      3  C   UNL     1      -1.158  -0.682   0.004  0.00  0.00    +0.065 C 
ATOM      4  C   UNL     1      -1.197  -2.183   0.005  0.00  0.00    +0.094 C 
ATOM      5  C   UNL     1       0.136  -2.754  -0.390  0.00  0.00    +0.042 A 
ATOM      6  C   UNL     1       0.236  -4.097  -0.781  0.00  0.00    +0.126 A 
ATOM      7  N   UNL     1       1.419  -4.594  -1.128  0.00  0.00    -0.208 NA
ATOM      8  C   UNL     1       2.512  -3.837  -1.110  0.00  0.00    +0.180 A 
ATOM      9  S   UNL     1       4.015  -4.519  -1.565  0.00  0.00    -0.011 S 
ATOM     10  N   UNL     1       2.458  -2.544  -0.741  0.00  0.00    -0.322 N 
ATOM     11  C   UNL     1       1.263  -1.985  -0.377  0.00  0.00    +0.110 A 
ATOM     12  N   UNL     1       1.201  -0.661  -0.013  0.00  0.00    -0.304 N 
ATOM     13  N   UNL     1      -0.885  -4.898  -0.805  0.00  0.00    -0.343 N 
ATOM     14  H   UNL     1       2.013  -0.193   0.238  0.00  0.00    +0.153 HD
ATOM     15  H   UNL     1      -0.813  -5.826  -1.076  0.00  0.00    +0.144 HD
ATOM     16  H   UNL     1      -1.747  -4.533  -0.551  0.00  0.00    +0.144 HD
ATOM     17  H   UNL     1       3.266  -2.008  -0.732  0.00  0.00    +0.169 HD
ENDROOT
BRANCH   4  18
ATOM     18  C   UNL     1      -1.552  -2.668   1.387  0.00  0.00    -0.035 A 
ATOM     19  C   UNL     1      -0.745  -2.345   2.462  0.00  0.00    +0.004 A 
ATOM     20  C   UNL     1      -1.071  -2.790   3.729  0.00  0.00    +0.000 A 
ATOM     21  C   UNL     1      -2.205  -3.558   3.922  0.00  0.00    +0.000 A 
ATOM     22  C   UNL     1      -3.012  -3.880   2.847  0.00  0.00    +0.000 A 
ATOM     23  C   UNL     1      -2.688  -3.431   1.580  0.00  0.00    +0.004 A 
ENDBRANCH   4  18
BRANCH   3  24
ATOM     24  C   UNL     1      -2.375   0.038   0.005  0.00  0.00    +0.338 C 
ATOM     25  O   UNL     1      -2.362   1.255   0.004  0.00  0.00    -0.245 OA
BRANCH  24  26
ATOM     26  O   UNL     1      -3.551  -0.625   0.007  0.00  0.00    -0.457 OA
BRANCH  26  27
ATOM     27  C   UNL     1      -4.741   0.166   0.008  0.00  0.00    +0.259 C 
BRANCH  27  28
ATOM     28  C   UNL     1      -5.946  -0.740   0.010  0.00  0.00    +0.006 C 
ATOM     29  C   UNL     1      -6.950  -0.491   0.814  0.00  0.00    +0.007 C 
ENDBRANCH  27  28
ENDBRANCH  26  27
ENDBRANCH  24  26
ENDBRANCH   3  24
TORSDOF 5
