REMARK  Name = ZINC37129848
REMARK  5 active torsions:
REMARK  status: ('A' for Active; 'I' for Inactive)
REMARK    1  A    between atoms: C_1  and  C_2
REMARK    2  A    between atoms: C_2  and  C_4
REMARK    3  A    between atoms: C_2  and  N_11
REMARK    4  A    between atoms: C_9  and  O_10
REMARK    5  A    between atoms: N_11  and  C_12
REMARK                            x       y       z     vdW  Elec       q    Type
REMARK                         _______ _______ _______ _____ _____    ______ ____
ROOT
ATOM      1  C   UNL     1      -0.020  -0.613  -2.403  0.00  0.00    +0.044 A 
ATOM      2  C   UNL     1      -1.369  -0.295  -2.451  0.00  0.00    +0.051 A 
ATOM      3  C   UNL     1      -2.068  -0.431  -3.640  0.00  0.00    +0.069 A 
ATOM      4  C   UNL     1      -1.411  -0.887  -4.785  0.00  0.00    +0.068 A 
ATOM      5  C   UNL     1      -0.062  -1.203  -4.732  0.00  0.00    +0.045 A 
ATOM      6  C   UNL     1       0.632  -1.062  -3.546  0.00  0.00    +0.041 A 
ATOM      7 BR   UNL     1       2.474  -1.486  -3.476  0.00  0.00    -0.048 Br
ATOM      8  N   UNL     1      -2.361  -0.919  -5.808  0.00  0.00    -0.306 N 
ATOM      9  H   UNL     1      -2.200  -1.194  -6.724  0.00  0.00    +0.170 HD
ATOM     10  C   UNL     1      -3.538  -0.501  -5.305  0.00  0.00    +0.325 A 
ATOM     11  O   UNL     1      -4.575  -0.409  -5.934  0.00  0.00    -0.247 OA
ATOM     12  N   UNL     1      -3.393  -0.200  -4.001  0.00  0.00    -0.306 N 
ATOM     13  H   UNL     1      -4.093   0.122  -3.412  0.00  0.00    +0.170 HD
ENDROOT
BRANCH   1  14
ATOM     14  N   UNL     1       0.688  -0.476  -1.203  0.00  0.00    -0.336 N 
ATOM     15  H   UNL     1       1.632  -0.695  -1.170  0.00  0.00    +0.147 HD
BRANCH  14  17
ATOM     16  C   UNL     1      -0.019   1.526   0.010  0.00  0.00    +0.033 C 
ATOM     17  C   UNL     1       0.002  -0.004   0.002  0.00  0.00    +0.101 C 
BRANCH  17  18
ATOM     18  C   UNL     1       0.731  -0.503   1.223  0.00  0.00    +0.014 A 
ATOM     19  C   UNL     1       2.076  -0.808   1.148  0.00  0.00    +0.009 A 
ATOM     20  C   UNL     1       2.746  -1.266   2.268  0.00  0.00    +0.001 A 
ATOM     21  C   UNL     1       2.071  -1.421   3.465  0.00  0.00    +0.004 A 
ATOM     22  C   UNL     1       0.725  -1.117   3.545  0.00  0.00    +0.046 A 
ATOM     23  C   UNL     1       0.053  -0.652   2.424  0.00  0.00    +0.122 A 
BRANCH  23  24
ATOM     24  O   UNL     1      -1.269  -0.347   2.501  0.00  0.00    -0.506 OA
ATOM     25  H   UNL     1      -1.856  -1.090   2.305  0.00  0.00    +0.292 HD
ENDBRANCH  23  24
ENDBRANCH  17  18
ENDBRANCH  14  17
ENDBRANCH   1  14
TORSDOF 4
