REMARK  Name = ZINC33624106
REMARK  13 active torsions:
REMARK  status: ('A' for Active; 'I' for Inactive)
REMARK    1  A    between atoms: C_1  and  C_2
REMARK    2  A    between atoms: C_2  and  O_3
REMARK    3  A    between atoms: O_3  and  C_4
REMARK    4  A    between atoms: C_9  and  N_10
REMARK    5  A    between atoms: N_13  and  C_14
REMARK    6  A    between atoms: N_13  and  C_21
REMARK    7  A    between atoms: C_14  and  C_15
REMARK    8  A    between atoms: C_21  and  C_22
REMARK    9  A    between atoms: N_24  and  C_25
REMARK   10  A    between atoms: N_24  and  C_32
REMARK   11  A    between atoms: C_25  and  C_26
REMARK   12  A    between atoms: C_32  and  C_33
REMARK   13  A    between atoms: C_34  and  C_38
REMARK                            x       y       z     vdW  Elec       q    Type
REMARK                         _______ _______ _______ _____ _____    ______ ____
ROOT
ATOM      1  N   UNL     1       1.202   9.602  -3.229  0.00  0.00    -0.266 N 
ATOM      2  C   UNL     1       1.527   8.426  -2.657  0.00  0.00    +0.307 C 
ATOM      3  O   UNL     1       2.646   8.254  -2.212  0.00  0.00    -0.252 OA
ATOM      4  N   UNL     1       0.611   7.440  -2.577  0.00  0.00    -0.274 N 
ATOM      5  H   UNL     1       0.161   9.803  -3.521  0.00  0.00    +0.156 HD
ENDROOT
BRANCH   1  11
ATOM      6  C   UNL     1       1.834  11.896  -3.676  0.00  0.00    +0.142 A 
ATOM      7  C   UNL     1       2.816  12.848  -3.893  0.00  0.00    +0.047 A 
ATOM      8  C   UNL     1       4.148  12.479  -3.898  0.00  0.00    +0.004 A 
ATOM      9  C   UNL     1       4.505  11.160  -3.683  0.00  0.00    +0.002 A 
ATOM     10  C   UNL     1       3.531  10.205  -3.461  0.00  0.00    +0.027 A 
ATOM     11  C   UNL     1       2.192  10.569  -3.454  0.00  0.00    +0.077 A 
BRANCH   6  12
ATOM     12  O   UNL     1       0.523  12.258  -3.676  0.00  0.00    -0.490 OA
BRANCH  12  14
ATOM     13  C   UNL     1      -1.285  13.849  -3.873  0.00  0.00    +0.048 C 
ATOM     14  C   UNL     1       0.230  13.636  -3.911  0.00  0.00    +0.226 C 
ENDBRANCH  12  14
ENDBRANCH   6  12
ENDBRANCH   1  11
BRANCH   4  15
ATOM     15  C   UNL     1      -0.737   7.647  -3.112  0.00  0.00    +0.141 C 
BRANCH  15  16
ATOM     16  C   UNL     1      -1.637   8.223  -2.018  0.00  0.00    +0.136 C 
ATOM     17  C   UNL     1      -3.058   8.444  -2.572  0.00  0.00    +0.035 C 
ATOM     18  C   UNL     1      -3.961   7.586  -1.653  0.00  0.00    +0.031 C 
ATOM     19  C   UNL     1      -3.076   7.420  -0.391  0.00  0.00    +0.160 C 
ATOM     20  O   UNL     1      -1.743   7.290  -0.930  0.00  0.00    -0.375 OA
ENDBRANCH  15  16
ENDBRANCH   4  15
BRANCH   4  21
ATOM     21  C   UNL     1       0.964   6.161  -1.955  0.00  0.00    +0.205 C 
BRANCH  21  22
ATOM     22  C   UNL     1       1.510   5.226  -3.003  0.00  0.00    +0.234 C 
ATOM     23  O   UNL     1       1.596   5.592  -4.156  0.00  0.00    -0.274 OA
ATOM     24  N   UNL     1       1.903   3.984  -2.658  0.00  0.00    -0.291 N 
BRANCH  24  25
ATOM     25  C   UNL     1       2.433   3.075  -3.677  0.00  0.00    +0.143 C 
BRANCH  25  26
ATOM     26  C   UNL     1       1.320   2.208  -4.207  0.00  0.00    -0.030 A 
ATOM     27  C   UNL     1       0.986   1.036  -3.554  0.00  0.00    +0.005 A 
ATOM     28  C   UNL     1      -0.040   0.245  -4.037  0.00  0.00    +0.000 A 
ATOM     29  C   UNL     1      -0.723   0.619  -5.178  0.00  0.00    +0.000 A 
ATOM     30  C   UNL     1      -0.386   1.788  -5.834  0.00  0.00    +0.000 A 
ATOM     31  C   UNL     1       0.636   2.583  -5.348  0.00  0.00    +0.005 A 
ENDBRANCH  25  26
ENDBRANCH  24  25
BRANCH  24  32
ATOM     32  C   UNL     1       1.799   3.542  -1.265  0.00  0.00    +0.150 C 
BRANCH  32  33
ATOM     33  C   UNL     1       3.130   3.722  -0.581  0.00  0.00    +0.010 A 
ATOM     34  C   UNL     1       3.545   4.727   0.228  0.00  0.00    -0.039 A 
ATOM     35  C   UNL     1       4.824   4.683   0.749  0.00  0.00    +0.011 A 
ATOM     36  C   UNL     1       5.628   3.638   0.432  0.00  0.00    +0.046 A 
ATOM     37  S   UNL     1       4.568   2.666  -0.626  0.00  0.00    -0.100 S 
ATOM     38  C   UNL     1       2.625   5.875   0.554  0.00  0.00    +0.044 C 
ENDBRANCH  32  33
ENDBRANCH  24  32
ENDBRANCH  21  22
ENDBRANCH   4  21
TORSDOF 11
