REMARK  Name = ZINC13498848
REMARK  14 active torsions:
REMARK  status: ('A' for Active; 'I' for Inactive)
REMARK    1  A    between atoms: C_1  and  C_2
REMARK    2  A    between atoms: C_6  and  C_15
REMARK    3  A    between atoms: C_13  and  C_14
REMARK    4  A    between atoms: C_15  and  N_71
REMARK    5  A    between atoms: C_16  and  N_71
REMARK    6  A    between atoms: C_21  and  C_23
REMARK    7  A    between atoms: C_21  and  C_32
REMARK    8  A    between atoms: C_21  and  N_71
REMARK    9  A    between atoms: N_27  and  C_28
REMARK   10  A    between atoms: C_28  and  C_29
REMARK   11  A    between atoms: C_28  and  C_30
REMARK   12  A    between atoms: C_28  and  C_31
REMARK   13  A    between atoms: C_32  and  C_33
REMARK   14  A    between atoms: C_32  and  C_34
REMARK                            x       y       z     vdW  Elec       q    Type
REMARK                         _______ _______ _______ _____ _____    ______ ____
ROOT
ATOM      1  N   UNL     1      -5.635   3.839  -1.319  0.00  0.00    +0.391 N 
ATOM      2  H   UNL     1      -4.676   3.986  -1.656  0.00  0.00    -0.080 HD
ENDROOT
BRANCH   1   3
ATOM      3  C   UNL     1      -6.236   2.709  -2.058  0.00  0.00    -0.067 C 
ATOM      4  C   UNL     1      -5.790   2.772  -3.533  0.00  0.00    -0.015 C 
ATOM      5  C   UNL     1      -7.034   2.296  -4.325  0.00  0.00    -0.002 C 
ATOM      6  C   UNL     1      -8.207   2.923  -3.532  0.00  0.00    -0.002 C 
ATOM      7  C   UNL     1      -7.772   2.804  -2.057  0.00  0.00    -0.015 C 
ENDBRANCH   1   3
BRANCH   1   8
ATOM      8  C   UNL     1      -5.594   3.534   0.127  0.00  0.00    -0.036 C 
BRANCH   8  14
ATOM      9  C   UNL     1       1.521   2.157   1.888  0.00  0.00    +0.044 C 
ATOM     10  C   UNL     1       0.140   1.675   1.524  0.00  0.00    -0.047 A 
ATOM     11  C   UNL     1      -0.856   2.582   1.298  0.00  0.00    +0.013 A 
ATOM     12  C   UNL     1      -2.138   2.135   0.960  0.00  0.00    -0.001 A 
ATOM     13  C   UNL     1      -3.228   3.080   0.712  0.00  0.00    +0.017 A 
ATOM     14  C   UNL     1      -4.450   2.588   0.388  0.00  0.00    +0.001 A 
ATOM     15  C   UNL     1      -4.654   1.195   0.295  0.00  0.00    +0.251 A 
ATOM     16  O   UNL     1      -5.760   0.774   0.002  0.00  0.00    -0.268 OA
ATOM     17  N   UNL     1      -3.658   0.320   0.522  0.00  0.00    -0.322 N 
ATOM     18  H   UNL     1      -3.833  -0.632   0.449  0.00  0.00    +0.169 HD
ATOM     19  C   UNL     1      -2.392   0.755   0.849  0.00  0.00    +0.049 A 
ATOM     20  C   UNL     1      -1.364  -0.150   1.089  0.00  0.00    +0.030 A 
ATOM     21  C   UNL     1      -0.108   0.313   1.421  0.00  0.00    -0.046 A 
ATOM     22  C   UNL     1       1.006  -0.669   1.673  0.00  0.00    +0.044 C 
ENDBRANCH   8  14
ENDBRANCH   1   8
BRANCH   1  23
ATOM     23  C   UNL     1      -6.420   5.070  -1.553  0.00  0.00    +0.006 C 
BRANCH  23  24
ATOM     24  C   UNL     1      -5.885   6.169  -0.671  0.00  0.00    +0.139 A 
ATOM     25  N   UNL     1      -4.648   6.600  -0.620  0.00  0.00    -0.115 NA
ATOM     26  N   UNL     1      -4.592   7.546   0.253  0.00  0.00    -0.023 NA
ATOM     27  N   UNL     1      -5.761   7.729   0.760  0.00  0.00    -0.043 NA
ATOM     28  N   UNL     1      -6.587   6.903   0.212  0.00  0.00    -0.226 N 
BRANCH  28  29
ATOM     29  C   UNL     1      -8.018   6.784   0.500  0.00  0.00    +0.059 C 
ATOM     30  C   UNL     1      -8.299   5.422   1.137  0.00  0.00    +0.036 C 
ATOM     31  C   UNL     1      -8.438   7.894   1.466  0.00  0.00    +0.036 C 
ATOM     32  C   UNL     1      -8.812   6.912  -0.801  0.00  0.00    +0.036 C 
ENDBRANCH  28  29
ENDBRANCH  23  24
BRANCH  23  33
ATOM     33  C   UNL     1      -6.274   5.477  -3.021  0.00  0.00    -0.024 C 
ATOM     34  C   UNL     1      -7.082   6.750  -3.280  0.00  0.00    +0.006 C 
ATOM     35  C   UNL     1      -4.799   5.736  -3.334  0.00  0.00    +0.006 C 
ENDBRANCH  23  33
ENDBRANCH   1  23
TORSDOF 7
