REMARK  Name = ZINC35992070
REMARK  11 active torsions:
REMARK  status: ('A' for Active; 'I' for Inactive)
REMARK    1  A    between atoms: C_1  and  C_2
REMARK    2  A    between atoms: C_2  and  N_3
REMARK    3  A    between atoms: C_4  and  C_26
REMARK    4  A    between atoms: C_5  and  C_21
REMARK    5  A    between atoms: C_6  and  C_11
REMARK    6  A    between atoms: C_14  and  C_17
REMARK    7  A    between atoms: C_21  and  O_23
REMARK    8  A    between atoms: O_23  and  C_24
REMARK    9  A    between atoms: C_24  and  C_25
REMARK   10  A    between atoms: C_26  and  N_27
REMARK   11  A    between atoms: C_33  and  C_35
REMARK                            x       y       z     vdW  Elec       q    Type
REMARK                         _______ _______ _______ _____ _____    ______ ____
ROOT
ATOM      1  N   UNL     1       0.661  -0.428   1.254  0.00  0.00    -0.258 N 
ATOM      2  C   UNL     1       2.016  -0.537   1.119  0.00  0.00    +0.041 C 
ATOM      3  C   UNL     1       2.777  -1.045   2.112  0.00  0.00    +0.080 C 
ATOM      4  C   UNL     1       2.076  -1.489   3.381  0.00  0.00    +0.144 C 
ATOM      5  N   UNL     1       0.613  -1.328   3.426  0.00  0.00    -0.288 N 
ATOM      6  C   UNL     1      -0.008  -0.799   2.353  0.00  0.00    +0.307 C 
ATOM      7  O   UNL     1      -1.215  -0.658   2.381  0.00  0.00    -0.252 OA
ATOM      8  H   UNL     1       0.108  -1.593   4.210  0.00  0.00    +0.151 HD
ENDROOT
BRANCH   4   9
ATOM      9  C   UNL     1       2.664  -0.713   4.531  0.00  0.00    -0.022 A 
ATOM     10  C   UNL     1       2.245   0.581   4.777  0.00  0.00    +0.006 A 
ATOM     11  C   UNL     1       2.784   1.293   5.833  0.00  0.00    +0.013 A 
ATOM     12  C   UNL     1       3.741   0.710   6.643  0.00  0.00    +0.055 A 
ATOM     13  C   UNL     1       4.159  -0.585   6.397  0.00  0.00    +0.013 A 
ATOM     14  C   UNL     1       3.617  -1.298   5.344  0.00  0.00    +0.006 A 
BRANCH  12  15
ATOM     15  C   UNL     1       4.330   1.486   7.793  0.00  0.00    +0.417 C 
ATOM     16  F   UNL     1       3.562   1.269   8.942  0.00  0.00    -0.166 F 
ATOM     17  F   UNL     1       5.642   1.058   8.021  0.00  0.00    -0.166 F 
ATOM     18  F   UNL     1       4.331   2.850   7.483  0.00  0.00    -0.166 F 
ENDBRANCH  12  15
ENDBRANCH   4   9
BRANCH   1  20
ATOM     19  C   UNL     1      -0.200   1.651   0.296  0.00  0.00    +0.025 C 
ATOM     20  C   UNL     1      -0.102   0.133   0.136  0.00  0.00    +0.111 C 
ENDBRANCH   1  20
BRANCH   3  21
ATOM     21  C   UNL     1       4.180  -1.160   1.973  0.00  0.00    +0.339 C 
ATOM     22  O   UNL     1       4.679  -2.238   1.709  0.00  0.00    -0.245 OA
BRANCH  21  23
ATOM     23  O   UNL     1       4.965  -0.074   2.134  0.00  0.00    -0.462 OA
BRANCH  23  24
ATOM     24  C   UNL     1       6.373  -0.263   1.979  0.00  0.00    +0.229 C 
ATOM     25  C   UNL     1       7.093   1.069   2.196  0.00  0.00    +0.048 C 
ENDBRANCH  23  24
ENDBRANCH  21  23
ENDBRANCH   3  21
BRANCH   2  26
ATOM     26  C   UNL     1       2.672  -0.084  -0.160  0.00  0.00    +0.136 C 
BRANCH  26  27
ATOM     27  N   UNL     1       2.257  -0.963  -1.262  0.00  0.00    -0.294 NA
ATOM     28  C   UNL     1       2.762  -2.328  -1.066  0.00  0.00    +0.104 C 
ATOM     29  C   UNL     1       2.161  -3.250  -2.132  0.00  0.00    +0.123 C 
ATOM     30  N   UNL     1       2.432  -2.671  -3.457  0.00  0.00    -0.299 N 
ATOM     31  C   UNL     1       2.078  -1.262  -3.686  0.00  0.00    +0.123 C 
ATOM     32  C   UNL     1       2.682  -0.418  -2.558  0.00  0.00    +0.104 C 
ATOM     33  C   UNL     1       2.989  -3.411  -4.435  0.00  0.00    +0.219 C 
ATOM     34  O   UNL     1       3.275  -4.572  -4.228  0.00  0.00    -0.275 OA
BRANCH  33  35
ATOM     35  C   UNL     1       3.258  -2.798  -5.785  0.00  0.00    +0.075 C 
ATOM     36  C   UNL     1       2.420  -3.292  -6.965  0.00  0.00    +0.013 C 
ATOM     37  C   UNL     1       3.893  -3.691  -6.853  0.00  0.00    +0.013 C 
ENDBRANCH  33  35
ENDBRANCH  26  27
ENDBRANCH   2  26
TORSDOF 9
