REMARK  Name = ZINC19367741
REMARK  9 active torsions:
REMARK  status: ('A' for Active; 'I' for Inactive)
REMARK    1  A    between atoms: C_1  and  C_2
REMARK    2  A    between atoms: C_2  and  C_3
REMARK    3  A    between atoms: C_3  and  O_4
REMARK    4  A    between atoms: O_4  and  C_5
REMARK    5  A    between atoms: C_8  and  N_11
REMARK    6  A    between atoms: C_15  and  N_19
REMARK    7  A    between atoms: N_22  and  C_25
REMARK    8  A    between atoms: C_25  and  C_26
REMARK    9  A    between atoms: C_25  and  C_33
REMARK                            x       y       z     vdW  Elec       q    Type
REMARK                         _______ _______ _______ _____ _____    ______ ____
ROOT
ATOM      1  N   UNL     1      -8.291  -6.918  -1.260  0.00  0.00    -0.289 NA
ATOM      2  C   UNL     1      -9.751  -7.079  -1.326  0.00  0.00    +0.100 C 
ATOM      3  C   UNL     1     -10.131  -7.711  -2.667  0.00  0.00    +0.100 C 
ATOM      4  N   UNL     1      -9.454  -9.008  -2.804  0.00  0.00    -0.289 NA
ATOM      5  C   UNL     1      -7.995  -8.847  -2.737  0.00  0.00    +0.100 C 
ATOM      6  C   UNL     1      -7.615  -8.215  -1.396  0.00  0.00    +0.100 C 
ENDROOT
BRANCH   1  11
ATOM      7  N   UNL     1      -6.308  -4.540   0.037  0.00  0.00    -0.209 N 
ATOM      8  C   UNL     1      -7.471  -3.886   0.139  0.00  0.00    +0.228 C 
ATOM      9  O   UNL     1      -7.594  -2.683   0.234  0.00  0.00    -0.275 OA
ATOM     10  C   UNL     1      -8.608  -4.884   0.117  0.00  0.00    +0.125 C 
ATOM     11  C   UNL     1      -7.893  -6.244  -0.017  0.00  0.00    +0.153 C 
ATOM     12  C   UNL     1      -6.427  -5.870  -0.062  0.00  0.00    +0.244 C 
ATOM     13  O   UNL     1      -5.506  -6.652  -0.169  0.00  0.00    -0.273 OA
BRANCH   7  17
ATOM     14  C   UNL     1      -2.617  -2.595   0.012  0.00  0.00    +0.121 A 
ATOM     15  C   UNL     1      -3.068  -3.241  -1.130  0.00  0.00    +0.047 A 
ATOM     16  C   UNL     1      -4.290  -3.885  -1.122  0.00  0.00    +0.027 A 
ATOM     17  C   UNL     1      -5.066  -3.886   0.029  0.00  0.00    +0.044 A 
ATOM     18  C   UNL     1      -4.614  -3.240   1.171  0.00  0.00    +0.027 A 
ATOM     19  C   UNL     1      -3.390  -2.601   1.164  0.00  0.00    +0.047 A 
BRANCH  14  20
ATOM     20  O   UNL     1      -1.414  -1.962   0.004  0.00  0.00    -0.492 OA
BRANCH  20  21
ATOM     21  C   UNL     1      -0.671  -1.996  -1.216  0.00  0.00    +0.229 C 
BRANCH  21  23
ATOM     22  C   UNL     1       1.440  -1.273  -2.340  0.00  0.00    +0.007 C 
ATOM     23  C   UNL     1       0.644  -1.236  -1.034  0.00  0.00    +0.038 C 
ENDBRANCH  21  23
ENDBRANCH  20  21
ENDBRANCH  14  20
ENDBRANCH   7  17
ENDBRANCH   1  11
BRANCH   4  24
ATOM     24  C   UNL     1      -9.853  -9.682  -4.047  0.00  0.00    +0.117 C 
BRANCH  24  25
ATOM     25  C   UNL     1      -9.140 -11.006  -4.151  0.00  0.00    -0.026 A 
ATOM     26  C   UNL     1      -8.981 -11.796  -3.028  0.00  0.00    +0.008 A 
ATOM     27  C   UNL     1      -8.328 -13.010  -3.123  0.00  0.00    +0.038 A 
ATOM     28  C   UNL     1      -7.833 -13.435  -4.344  0.00  0.00    +0.123 A 
ATOM     29  C   UNL     1      -7.992 -12.643  -5.468  0.00  0.00    +0.038 A 
ATOM     30  C   UNL     1      -8.650 -11.432  -5.372  0.00  0.00    +0.008 A 
ATOM     31  F   UNL     1      -7.194 -14.622  -4.438  0.00  0.00    -0.205 F 
ENDBRANCH  24  25
BRANCH  24  32
ATOM     32  C   UNL     1     -11.342  -9.913  -4.037  0.00  0.00    -0.026 A 
ATOM     33  C   UNL     1     -11.973 -10.300  -2.870  0.00  0.00    +0.008 A 
ATOM     34  C   UNL     1     -13.339 -10.512  -2.860  0.00  0.00    +0.038 A 
ATOM     35  C   UNL     1     -14.075 -10.335  -4.019  0.00  0.00    +0.123 A 
ATOM     36  C   UNL     1     -13.441  -9.947  -5.188  0.00  0.00    +0.038 A 
ATOM     37  C   UNL     1     -12.076  -9.731  -5.194  0.00  0.00    +0.008 A 
ATOM     38  F   UNL     1     -15.410 -10.542  -4.011  0.00  0.00    -0.205 F 
ENDBRANCH  24  32
ENDBRANCH   4  24
TORSDOF 8
