REMARK  Name = ZINC20909269
REMARK  12 active torsions:
REMARK  status: ('A' for Active; 'I' for Inactive)
REMARK    1  A    between atoms: C_1  and  O_2
REMARK    2  A    between atoms: O_2  and  C_3
REMARK    3  A    between atoms: C_5  and  C_13
REMARK    4  A    between atoms: C_7  and  O_11
REMARK    5  A    between atoms: C_8  and  O_9
REMARK    6  A    between atoms: O_9  and  C_10
REMARK    7  A    between atoms: O_11  and  C_12
REMARK    8  A    between atoms: N_14  and  N_15
REMARK    9  A    between atoms: C_18  and  S_21
REMARK   10  A    between atoms: S_21  and  C_22
REMARK   11  A    between atoms: C_22  and  C_23
REMARK   12  A    between atoms: C_23  and  C_25
REMARK                            x       y       z     vdW  Elec       q    Type
REMARK                         _______ _______ _______ _____ _____    ______ ____
ROOT
ATOM      1  N   UNL     1       6.017   9.567  -0.004  0.00  0.00    -0.205 N 
ATOM      2  C   UNL     1       5.345   8.353  -0.004  0.00  0.00    +0.232 A 
ATOM      3  N   UNL     1       3.987   8.187   0.006  0.00  0.00    -0.186 NA
ATOM      4  C   UNL     1       3.726   6.846   0.002  0.00  0.00    +0.210 A 
ATOM      5  N   UNL     1       4.873   6.210  -0.006  0.00  0.00    -0.144 NA
ATOM      6  N   UNL     1       5.898   7.165  -0.015  0.00  0.00    -0.245 N 
ATOM      7  H   UNL     1       5.451  10.510   0.005  0.00  0.00    +0.177 HD
ATOM      8  H   UNL     1       6.994   7.069  -0.029  0.00  0.00    +0.192 HD
ENDROOT
BRANCH   1  10
ATOM      9  C   UNL     1       8.048  10.726  -0.017  0.00  0.00    +0.138 C 
ATOM     10  N   UNL     1       7.418   9.591  -0.017  0.00  0.00    -0.188 NA
BRANCH   9  13
ATOM     11  C   UNL     1      11.584  11.993  -0.041  0.00  0.00    +0.166 A 
ATOM     12  C   UNL     1      10.201  11.973  -0.029  0.00  0.00    +0.059 A 
ATOM     13  C   UNL     1       9.522  10.752  -0.029  0.00  0.00    +0.002 A 
ATOM     14  C   UNL     1      10.243   9.555  -0.036  0.00  0.00    +0.059 A 
ATOM     15  C   UNL     1      11.626   9.582  -0.053  0.00  0.00    +0.166 A 
ATOM     16  C   UNL     1      12.299  10.800  -0.053  0.00  0.00    +0.204 A 
BRANCH  11  18
ATOM     17  C   UNL     1      11.449  14.368  -0.028  0.00  0.00    +0.277 C 
ATOM     18  O   UNL     1      12.246  13.181  -0.041  0.00  0.00    -0.491 OA
ENDBRANCH  11  18
BRANCH  16  19
ATOM     19  O   UNL     1      13.659  10.823  -0.064  0.00  0.00    -0.488 OA
ATOM     20  C   UNL     1      14.318  10.828   1.204  0.00  0.00    +0.277 C 
ENDBRANCH  16  19
BRANCH  15  21
ATOM     21  O   UNL     1      12.328   8.418  -0.064  0.00  0.00    -0.491 OA
ATOM     22  C   UNL     1      11.573   7.205  -0.064  0.00  0.00    +0.277 C 
ENDBRANCH  15  21
ENDBRANCH   9  13
ENDBRANCH   1  10
BRANCH   4  23
ATOM     23  S   UNL     1       2.129   6.102   0.013  0.00  0.00    -0.076 S 
BRANCH  23  24
ATOM     24  C   UNL     1       2.475   4.321   0.001  0.00  0.00    +0.157 C 
BRANCH  24  25
ATOM     25  C   UNL     1       1.176   3.558   0.009  0.00  0.00    +0.173 C 
ATOM     26  O   UNL     1       0.121   4.155   0.022  0.00  0.00    -0.291 OA
BRANCH  25  27
ATOM     27  C   UNL     1       1.187   2.087   0.002  0.00  0.00    +0.018 A 
ATOM     28  C   UNL     1      -0.017   1.374   0.010  0.00  0.00    +0.012 A 
ATOM     29  C   UNL     1       0.002  -0.004   0.002  0.00  0.00    +0.016 A 
ATOM     30  C   UNL     1       1.209  -0.684  -0.013  0.00  0.00    +0.018 A 
ATOM     31  C   UNL     1       2.405   0.015  -0.020  0.00  0.00    +0.016 A 
ATOM     32  C   UNL     1       2.402   1.393  -0.013  0.00  0.00    +0.012 A 
ATOM     33 BR   UNL     1       1.224  -2.575  -0.022  0.00  0.00    -0.050 Br
ENDBRANCH  25  27
ENDBRANCH  24  25
ENDBRANCH  23  24
ENDBRANCH   4  23
TORSDOF 9
