REMARK  Name = ZINC08601334
REMARK  10 active torsions:
REMARK  status: ('A' for Active; 'I' for Inactive)
REMARK    1  A    between atoms: C_1  and  C_2
REMARK    2  A    between atoms: C_4  and  S_10
REMARK    3  A    between atoms: C_7  and  O_8
REMARK    4  A    between atoms: O_8  and  C_9
REMARK    5  A    between atoms: S_10  and  N_13
REMARK    6  A    between atoms: N_13  and  C_14
REMARK    7  A    between atoms: C_14  and  C_15
REMARK    8  A    between atoms: C_15  and  C_17
REMARK    9  A    between atoms: C_15  and  N_22
REMARK   10  A    between atoms: N_25  and  C_28
REMARK                            x       y       z     vdW  Elec       q    Type
REMARK                         _______ _______ _______ _____ _____    ______ ____
ROOT
ATOM      1  C   UNL     1       3.723  -4.250  -3.216  0.00  0.00    +0.015 C 
ENDROOT
BRANCH   1   2
ATOM      2  N   UNL     1       4.327  -2.963  -3.582  0.00  0.00    +0.389 N 
ATOM      3  C   UNL     1       3.315  -2.113  -4.222  0.00  0.00    -0.059 C 
ATOM      4  C   UNL     1       3.913  -0.730  -4.500  0.00  0.00    +0.086 C 
ATOM      5  N   UNL     1       5.144  -0.904  -5.286  0.00  0.00    -0.331 N 
ATOM      6  C   UNL     1       6.147  -1.864  -4.800  0.00  0.00    +0.086 C 
ATOM      7  C   UNL     1       5.444  -3.194  -4.508  0.00  0.00    -0.059 C 
ATOM      8  H   UNL     1       4.670  -2.505  -2.751  0.00  0.00    -0.081 HD
BRANCH   5   9
ATOM      9  C   UNL     1       5.355  -0.177  -6.462  0.00  0.00    +0.065 A 
ATOM     10  C   UNL     1       5.994   1.055  -6.413  0.00  0.00    +0.026 A 
ATOM     11  C   UNL     1       6.202   1.771  -7.577  0.00  0.00    +0.002 A 
ATOM     12  C   UNL     1       5.774   1.262  -8.790  0.00  0.00    +0.003 A 
ATOM     13  C   UNL     1       5.138   0.036  -8.843  0.00  0.00    +0.040 A 
ATOM     14  C   UNL     1       4.932  -0.689  -7.684  0.00  0.00    +0.144 A 
ATOM     15  F   UNL     1       4.315  -1.890  -7.737  0.00  0.00    -0.204 F 
ENDBRANCH   5   9
ENDBRANCH   1   2
BRANCH   1  16
ATOM     16  C   UNL     1       4.766  -5.132  -2.578  0.00  0.00    +0.093 A 
ATOM     17  C   UNL     1       4.911  -6.453  -2.783  0.00  0.00    +0.043 A 
ATOM     18  C   UNL     1       6.004  -6.873  -1.990  0.00  0.00    +0.041 A 
ATOM     19  C   UNL     1       6.461  -5.783  -1.348  0.00  0.00    +0.195 A 
ATOM     20  O   UNL     1       5.711  -4.730  -1.712  0.00  0.00    -0.469 OA
ENDBRANCH   1  16
BRANCH   1  21
ATOM     21  C   UNL     1       2.580  -4.014  -2.226  0.00  0.00    +0.098 C 
BRANCH  21  22
ATOM     22  N   UNL     1       3.074  -3.238  -1.086  0.00  0.00    -0.191 NA
ATOM     23  H   UNL     1       4.028  -3.150  -0.936  0.00  0.00    +0.148 HD
BRANCH  22  24
ATOM     24  S   UNL     1       2.003  -2.510  -0.053  0.00  0.00    +0.058 S 
ATOM     25  O   UNL     1       1.071  -1.808  -0.863  0.00  0.00    -0.153 OA
ATOM     26  O   UNL     1       2.779  -1.866   0.948  0.00  0.00    -0.153 OA
BRANCH  24  30
ATOM     27  C   UNL     1       1.382  -5.907   3.870  0.00  0.00    +0.047 C 
ATOM     28  C   UNL     1       0.870  -5.329   2.575  0.00  0.00    -0.007 A 
ATOM     29  C   UNL     1       1.574  -4.324   1.941  0.00  0.00    +0.035 A 
ATOM     30  C   UNL     1       1.104  -3.793   0.753  0.00  0.00    +0.106 A 
ATOM     31  C   UNL     1      -0.070  -4.268   0.198  0.00  0.00    +0.032 A 
ATOM     32  C   UNL     1      -0.777  -5.273   0.828  0.00  0.00    +0.048 A 
ATOM     33  C   UNL     1      -0.305  -5.811   2.017  0.00  0.00    +0.123 A 
BRANCH  33  34
ATOM     34  O   UNL     1      -0.996  -6.804   2.637  0.00  0.00    -0.495 OA
ATOM     35  C   UNL     1      -2.197  -7.250   2.005  0.00  0.00    +0.277 C 
ENDBRANCH  33  34
ENDBRANCH  24  30
ENDBRANCH  22  24
ENDBRANCH  21  22
ENDBRANCH   1  21
TORSDOF 8
