REMARK  Name = ZINC41584538
REMARK  15 active torsions:
REMARK  status: ('A' for Active; 'I' for Inactive)
REMARK    1  A    between atoms: C_1  and  C_2
REMARK    2  A    between atoms: C_2  and  C_3
REMARK    3  A    between atoms: C_3  and  N_4
REMARK    4  A    between atoms: N_4  and  C_5
REMARK    5  A    between atoms: N_4  and  C_8
REMARK    6  A    between atoms: C_5  and  C_6
REMARK    7  A    between atoms: C_6  and  C_7
REMARK    8  A    between atoms: C_8  and  C_9
REMARK    9  A    between atoms: C_10  and  O_34
REMARK   10  A    between atoms: C_16  and  C_30
REMARK   11  A    between atoms: C_17  and  O_20
REMARK   12  A    between atoms: O_20  and  C_21
REMARK   13  A    between atoms: C_26  and  O_27
REMARK   14  A    between atoms: O_27  and  C_28
REMARK   15  A    between atoms: C_28  and  C_29
REMARK                            x       y       z     vdW  Elec       q    Type
REMARK                         _______ _______ _______ _____ _____    ______ ____
ROOT
ATOM      1  C   UNL     1       3.308  -1.821  -1.994  0.00  0.00    +0.020 A 
ATOM      2  C   UNL     1       3.738  -0.610  -2.511  0.00  0.00    +0.122 A 
ATOM      3  C   UNL     1       5.000  -0.111  -2.193  0.00  0.00    +0.046 A 
ATOM      4  C   UNL     1       5.830  -0.811  -1.365  0.00  0.00    +0.019 A 
ATOM      5  C   UNL     1       5.412  -2.033  -0.836  0.00  0.00    +0.068 A 
ATOM      6  C   UNL     1       4.138  -2.542  -1.148  0.00  0.00    +0.144 A 
ATOM      7  O   UNL     1       3.742  -3.721  -0.628  0.00  0.00    -0.447 OA
ATOM      8  C   UNL     1       4.520  -4.441   0.192  0.00  0.00    +0.254 A 
ATOM      9  C   UNL     1       5.754  -4.045   0.560  0.00  0.00    +0.222 A 
ATOM     10  C   UNL     1       6.277  -2.819   0.060  0.00  0.00    +0.235 A 
ATOM     11  O   UNL     1       7.391  -2.429   0.370  0.00  0.00    -0.283 OA
ENDROOT
BRANCH   8  12
ATOM     12  C   UNL     1       3.991  -5.748   0.724  0.00  0.00    +0.454 C 
ATOM     13  F   UNL     1       4.897  -6.273   1.652  0.00  0.00    -0.163 F 
ATOM     14  F   UNL     1       2.757  -5.533   1.347  0.00  0.00    -0.163 F 
ATOM     15  F   UNL     1       3.830  -6.651  -0.332  0.00  0.00    -0.163 F 
ENDBRANCH   8  12
BRANCH   2  16
ATOM     16  O   UNL     1       2.923   0.098  -3.335  0.00  0.00    -0.506 OA
ATOM     17  H   UNL     1       2.345   0.722  -2.875  0.00  0.00    +0.292 HD
ENDBRANCH   2  16
BRANCH   1  18
ATOM     18  C   UNL     1       1.941  -2.350  -2.345  0.00  0.00    -0.036 C 
BRANCH  18  19
ATOM     19  N   UNL     1       0.960  -1.859  -1.368  0.00  0.00    +0.383 N 
ATOM     20  H   UNL     1       1.261  -2.106  -0.437  0.00  0.00    -0.081 HD
BRANCH  19  21
ATOM     21  C   UNL     1       0.851  -0.398  -1.476  0.00  0.00    -0.079 C 
BRANCH  21  23
ATOM     22  C   UNL     1      -0.110   1.652  -0.421  0.00  0.00    +0.002 C 
ATOM     23  C   UNL     1      -0.099   0.123  -0.395  0.00  0.00    -0.022 C 
ENDBRANCH  21  23
ENDBRANCH  19  21
BRANCH  19  24
ATOM     24  C   UNL     1      -0.348  -2.470  -1.639  0.00  0.00    -0.079 C 
BRANCH  24  25
ATOM     25  C   UNL     1      -0.267  -3.978  -1.395  0.00  0.00    -0.022 C 
ATOM     26  C   UNL     1      -1.659  -4.595  -1.547  0.00  0.00    +0.002 C 
ENDBRANCH  24  25
ENDBRANCH  19  24
ENDBRANCH  18  19
ENDBRANCH   1  18
BRANCH   9  27
ATOM     27  O   UNL     1       6.500  -4.818   1.397  0.00  0.00    -0.445 OA
BRANCH  27  28
ATOM     28  C   UNL     1       6.776  -4.333   2.636  0.00  0.00    +0.170 A 
ATOM     29  C   UNL     1       6.207  -3.142   3.059  0.00  0.00    +0.050 A 
ATOM     30  C   UNL     1       6.489  -2.651   4.320  0.00  0.00    +0.004 A 
ATOM     31  C   UNL     1       7.338  -3.345   5.162  0.00  0.00    +0.004 A 
ATOM     32  C   UNL     1       7.910  -4.533   4.746  0.00  0.00    +0.049 A 
ATOM     33  C   UNL     1       7.627  -5.035   3.486  0.00  0.00    +0.163 A 
BRANCH  33  34
ATOM     34  O   UNL     1       8.183  -6.206   3.078  0.00  0.00    -0.489 OA
BRANCH  34  35
ATOM     35  C   UNL     1       9.046  -6.872   4.003  0.00  0.00    +0.226 C 
ATOM     36  C   UNL     1       9.572  -8.162   3.372  0.00  0.00    +0.048 C 
ENDBRANCH  34  35
ENDBRANCH  33  34
ENDBRANCH  27  28
ENDBRANCH   9  27
TORSDOF 12
