REMARK  Name = ZINC39676219
REMARK  4 active torsions:
REMARK  status: ('A' for Active; 'I' for Inactive)
REMARK    1  A    between atoms: C_11  and  C_13
REMARK    2  A    between atoms: C_13  and  N_14
REMARK    3  A    between atoms: C_15  and  C_17
REMARK    4  A    between atoms: C_28  and  C_30
REMARK                            x       y       z     vdW  Elec       q    Type
REMARK                         _______ _______ _______ _____ _____    ______ ____
ROOT
ATOM      1  C   UNL     1       8.301  -1.488   0.021  0.00  0.00    +0.100 C 
ATOM      2  C   UNL     1       8.154  -0.395   1.104  0.00  0.00    +0.121 C 
ATOM      3  N   UNL     1       9.151  -0.756   2.139  0.00  0.00    -0.296 N 
ATOM      4  C   UNL     1      10.329  -1.223   1.369  0.00  0.00    +0.115 C 
ATOM      5  C   UNL     1       9.731  -2.026   0.196  0.00  0.00    -0.004 C 
ATOM      6  C   UNL     1       9.698  -3.513   0.538  0.00  0.00    -0.010 C 
ATOM      7  C   UNL     1      11.132  -4.038   0.651  0.00  0.00    -0.082 C 
ATOM      8  N   UNL     1      11.835  -3.823  -0.619  0.00  0.00    +0.379 N 
ATOM      9  C   UNL     1      11.944  -2.386  -0.895  0.00  0.00    -0.082 C 
ATOM     10  C   UNL     1      10.544  -1.791  -1.073  0.00  0.00    -0.010 C 
ATOM     11  C   UNL     1       9.017  -0.678   3.478  0.00  0.00    +0.250 C 
ATOM     12  O   UNL     1       9.965  -0.923   4.198  0.00  0.00    -0.270 OA
ATOM     13  H   UNL     1      12.759  -4.224  -0.563  0.00  0.00    -0.086 HD
ATOM     14  H   UNL     1      11.322  -4.270  -1.365  0.00  0.00    -0.086 HD
ENDROOT
BRANCH  11  15
ATOM     15  C   UNL     1       7.719  -0.295   4.069  0.00  0.00    +0.074 A 
ATOM     16  C   UNL     1       6.895   0.641   3.433  0.00  0.00    +0.017 A 
ATOM     17  C   UNL     1       5.689   0.965   4.028  0.00  0.00    +0.021 A 
ATOM     18  C   UNL     1       5.338   0.361   5.222  0.00  0.00    +0.112 A 
ATOM     19  N   UNL     1       6.133  -0.518   5.800  0.00  0.00    -0.243 NA
ATOM     20  C   UNL     1       7.290  -0.865   5.271  0.00  0.00    +0.141 A 
ATOM     21 CL   UNL     1       8.290  -2.033   6.076  0.00  0.00    -0.061 Cl
ENDBRANCH  11  15
BRANCH   1  23
ATOM     22  N   UNL     1       6.857  -3.321  -0.798  0.00  0.00    -0.308 N 
ATOM     23  C   UNL     1       7.295  -2.587   0.244  0.00  0.00    +0.219 C 
ATOM     24  O   UNL     1       6.881  -2.812   1.362  0.00  0.00    -0.275 OA
ATOM     25  H   UNL     1       7.189  -3.141  -1.691  0.00  0.00    +0.149 HD
BRANCH  22  26
ATOM     26  C   UNL     1       5.879  -4.390  -0.581  0.00  0.00    +0.178 C 
BRANCH  26  37
ATOM     27  C   UNL     1       5.372  -6.327  -6.649  0.00  0.00    +0.001 A 
ATOM     28  C   UNL     1       6.272  -5.275  -6.552  0.00  0.00    +0.002 A 
ATOM     29  C   UNL     1       6.545  -4.690  -5.336  0.00  0.00    +0.028 A 
ATOM     30  C   UNL     1       5.909  -5.160  -4.185  0.00  0.00    +0.078 A 
ATOM     31  C   UNL     1       4.993  -6.230  -4.288  0.00  0.00    +0.065 A 
ATOM     32  C   UNL     1       4.732  -6.808  -5.528  0.00  0.00    +0.015 A 
ATOM     33  C   UNL     1       4.341  -6.701  -3.057  0.00  0.00    +0.259 A 
ATOM     34  O   UNL     1       3.542  -7.620  -3.076  0.00  0.00    -0.267 OA
ATOM     35  N   UNL     1       4.663  -6.074  -1.902  0.00  0.00    -0.309 N 
ATOM     36  H   UNL     1       4.253  -6.358  -1.070  0.00  0.00    +0.170 HD
ATOM     37  C   UNL     1       5.557  -5.051  -1.896  0.00  0.00    +0.128 A 
ATOM     38  N   UNL     1       6.149  -4.614  -2.966  0.00  0.00    -0.232 NA
ENDBRANCH  26  37
ENDBRANCH  22  26
ENDBRANCH   1  23
TORSDOF 4
