REMARK  Name = ZINC01813561
REMARK  11 active torsions:
REMARK  status: ('A' for Active; 'I' for Inactive)
REMARK    1  A    between atoms: C_1  and  C_2
REMARK    2  A    between atoms: C_5  and  N_8
REMARK    3  A    between atoms: C_9  and  C_11
REMARK    4  A    between atoms: C_11  and  S_12
REMARK    5  A    between atoms: S_12  and  C_13
REMARK    6  A    between atoms: C_22  and  C_25
REMARK    7  A    between atoms: C_25  and  C_26
REMARK    8  A    between atoms: C_25  and  C_27
REMARK    9  A    between atoms: N_30  and  C_31
REMARK   10  A    between atoms: C_31  and  C_32
REMARK   11  A    between atoms: C_32  and  C_33
REMARK                            x       y       z     vdW  Elec       q    Type
REMARK                         _______ _______ _______ _____ _____    ______ ____
ROOT
ATOM      1  C   UNL     1       0.593  -8.709   2.636  0.00  0.00    +0.173 A 
ATOM      2  N   UNL     1       0.587  -9.236   1.429  0.00  0.00    -0.216 NA
ATOM      3  C   UNL     1       0.696 -10.548   1.258  0.00  0.00    +0.117 A 
ATOM      4  C   UNL     1       0.823 -11.435   2.342  0.00  0.00    +0.076 A 
ATOM      5  C   UNL     1       0.933 -12.850   1.996  0.00  0.00    -0.018 A 
ATOM      6  C   UNL     1       0.904 -13.166   0.683  0.00  0.00    +0.021 A 
ATOM      7  S   UNL     1       0.730 -11.619  -0.158  0.00  0.00    -0.071 S 
ATOM      8  C   UNL     1       1.001 -14.542   0.101  0.00  0.00    +0.203 C 
ATOM      9  O   UNL     1       1.446 -15.431   1.139  0.00  0.00    -0.371 OA
ATOM     10  C   UNL     1       0.718 -15.288   2.362  0.00  0.00    +0.126 C 
ATOM     11  C   UNL     1       1.075 -13.960   3.035  0.00  0.00    +0.068 C 
ATOM     12  C   UNL     1       0.826 -10.834   3.641  0.00  0.00    +0.263 A 
ATOM     13  O   UNL     1       0.932 -11.523   4.641  0.00  0.00    -0.267 OA
ATOM     14  N   UNL     1       0.717  -9.496   3.744  0.00  0.00    -0.287 N 
ENDROOT
BRANCH  10  15
ATOM     15  C   UNL     1       1.075 -16.442   3.302  0.00  0.00    +0.012 C 
ATOM     16  C   UNL     1       0.707 -17.771   2.640  0.00  0.00    +0.010 C 
ATOM     17  C   UNL     1       2.577 -16.416   3.594  0.00  0.00    +0.010 C 
ENDBRANCH  10  15
BRANCH   1  18
ATOM     18  S   UNL     1       0.446  -6.963   2.823  0.00  0.00    -0.078 S 
BRANCH  18  19
ATOM     19  C   UNL     1       0.309  -6.349   1.121  0.00  0.00    +0.173 C 
BRANCH  19  21
ATOM     20  N   UNL     1       0.059  -4.170  -0.021  0.00  0.00    -0.285 N 
ATOM     21  C   UNL     1       0.175  -4.848   1.138  0.00  0.00    +0.227 C 
ATOM     22  O   UNL     1       0.173  -4.251   2.193  0.00  0.00    -0.275 OA
ATOM     23  H   UNL     1      -0.017  -4.651  -0.860  0.00  0.00    +0.155 HD
BRANCH  20  28
ATOM     24  C   UNL     1       0.008   1.503   0.007  0.00  0.00    +0.044 C 
ATOM     25  C   UNL     1       0.022  -0.004  -0.001  0.00  0.00    -0.050 A 
ATOM     26  C   UNL     1       0.777  -0.692   0.931  0.00  0.00    +0.005 A 
ATOM     27  C   UNL     1       0.791  -2.073   0.927  0.00  0.00    +0.023 A 
ATOM     28  C   UNL     1       0.046  -2.771  -0.014  0.00  0.00    +0.033 A 
ATOM     29  C   UNL     1      -0.712  -2.077  -0.948  0.00  0.00    +0.023 A 
ATOM     30  C   UNL     1      -0.726  -0.696  -0.936  0.00  0.00    +0.005 A 
ENDBRANCH  20  28
ENDBRANCH  19  21
ENDBRANCH  18  19
ENDBRANCH   1  18
BRANCH  14  31
ATOM     31  C   UNL     1       0.726  -8.875   5.070  0.00  0.00    +0.132 C 
BRANCH  31  32
ATOM     32  C   UNL     1      -0.706  -8.786   5.602  0.00  0.00    +0.057 C 
BRANCH  32  33
ATOM     33  C   UNL     1      -0.697  -8.147   6.966  0.00  0.00    -0.046 A 
ATOM     34  C   UNL     1      -0.567  -8.931   8.097  0.00  0.00    +0.004 A 
ATOM     35  C   UNL     1      -0.558  -8.345   9.348  0.00  0.00    +0.000 A 
ATOM     36  C   UNL     1      -0.680  -6.973   9.469  0.00  0.00    +0.000 A 
ATOM     37  C   UNL     1      -0.810  -6.188   8.339  0.00  0.00    +0.000 A 
ATOM     38  C   UNL     1      -0.814  -6.774   7.087  0.00  0.00    +0.004 A 
ENDBRANCH  32  33
ENDBRANCH  31  32
ENDBRANCH  14  31
TORSDOF 8
