REMARK  Name = ZINC22108081
REMARK  10 active torsions:
REMARK  status: ('A' for Active; 'I' for Inactive)
REMARK    1  A    between atoms: C_1  and  C_2
REMARK    2  A    between atoms: C_2  and  O_3
REMARK    3  A    between atoms: O_3  and  C_4
REMARK    4  A    between atoms: C_5  and  C_12
REMARK    5  A    between atoms: C_12  and  N_13
REMARK    6  A    between atoms: N_13  and  C_14
REMARK    7  A    between atoms: C_14  and  C_15
REMARK    8  A    between atoms: C_15  and  S_16
REMARK    9  A    between atoms: S_16  and  C_17
REMARK   10  A    between atoms: N_21  and  C_22
REMARK                            x       y       z     vdW  Elec       q    Type
REMARK                         _______ _______ _______ _____ _____    ______ ____
ROOT
ATOM      1  N   UNL     1       0.255   4.316   2.575  0.00  0.00    +0.382 N 
ATOM      2  H   UNL     1      -0.717   4.008   2.162  0.00  0.00    -0.085 HD
ATOM      3  H   UNL     1       0.157   4.480   3.658  0.00  0.00    -0.085 HD
ENDROOT
BRANCH   1   4
ATOM      4  C   UNL     1       1.249   3.263   2.326  0.00  0.00    -0.043 C 
BRANCH   4   6
ATOM      5  C   UNL     1      -0.149   1.182   2.380  0.00  0.00    +0.136 A 
ATOM      6  C   UNL     1       0.803   1.985   2.990  0.00  0.00    -0.021 A 
ATOM      7  C   UNL     1       1.343   1.613   4.206  0.00  0.00    +0.020 A 
ATOM      8  C   UNL     1       0.936   0.440   4.816  0.00  0.00    +0.019 A 
ATOM      9  C   UNL     1      -0.014  -0.363   4.210  0.00  0.00    +0.034 A 
ATOM     10  C   UNL     1      -0.561   0.008   2.995  0.00  0.00    +0.061 A 
ATOM     11 BR   UNL     1      -1.864  -1.086   2.171  0.00  0.00    -0.046 Br
ATOM     12 BR   UNL     1       1.677  -0.066   6.480  0.00  0.00    -0.050 Br
BRANCH   5  13
ATOM     13  O   UNL     1      -0.682   1.547   1.184  0.00  0.00    -0.491 OA
BRANCH  13  15
ATOM     14  C   UNL     1      -0.753   1.593  -1.232  0.00  0.00    +0.048 C 
ATOM     15  C   UNL     1      -0.013   1.086   0.008  0.00  0.00    +0.226 C 
ENDBRANCH  13  15
ENDBRANCH   5  13
ENDBRANCH   4   6
ENDBRANCH   1   4
BRANCH   1  16
ATOM     16  C   UNL     1       0.657   5.579   1.941  0.00  0.00    -0.071 C 
BRANCH  16  17
ATOM     17  C   UNL     1      -0.401   6.649   2.221  0.00  0.00    +0.058 C 
BRANCH  17  18
ATOM     18  S   UNL     1       0.094   8.205   1.441  0.00  0.00    -0.086 S 
BRANCH  18  19
ATOM     19  C   UNL     1      -1.262   9.228   1.910  0.00  0.00    +0.214 A 
ATOM     20  N   UNL     1      -2.301   8.866   2.631  0.00  0.00    -0.101 NA
ATOM     21  N   UNL     1      -3.105   9.855   2.789  0.00  0.00    -0.022 NA
ATOM     22  N   UNL     1      -2.650  10.904   2.193  0.00  0.00    -0.038 NA
ATOM     23  N   UNL     1      -1.429  10.538   1.601  0.00  0.00    -0.187 N 
BRANCH  23  24
ATOM     24  C   UNL     1      -0.569  11.352   0.849  0.00  0.00    +0.070 A 
ATOM     25  C   UNL     1       0.806  11.179   0.936  0.00  0.00    +0.028 A 
ATOM     26  C   UNL     1       1.650  11.979   0.191  0.00  0.00    +0.002 A 
ATOM     27  C   UNL     1       1.127  12.959  -0.632  0.00  0.00    +0.000 A 
ATOM     28  C   UNL     1      -0.241  13.138  -0.717  0.00  0.00    +0.002 A 
ATOM     29  C   UNL     1      -1.091  12.337   0.022  0.00  0.00    +0.028 A 
ENDBRANCH  23  24
ENDBRANCH  18  19
ENDBRANCH  17  18
ENDBRANCH  16  17
ENDBRANCH   1  16
TORSDOF 9
