REMARK  Name = ZINC35908214
REMARK  13 active torsions:
REMARK  status: ('A' for Active; 'I' for Inactive)
REMARK    1  A    between atoms: C_1  and  C_2
REMARK    2  A    between atoms: C_2  and  C_3
REMARK    3  A    between atoms: C_12  and  C_13
REMARK    4  A    between atoms: C_13  and  C_15
REMARK    5  A    between atoms: C_13  and  C_31
REMARK    6  A    between atoms: C_15  and  C_16
REMARK    7  A    between atoms: N_18  and  C_19
REMARK    8  A    between atoms: N_18  and  C_24
REMARK    9  A    between atoms: C_19  and  C_20
REMARK   10  A    between atoms: C_20  and  N_21
REMARK   11  A    between atoms: N_21  and  C_22
REMARK   12  A    between atoms: N_21  and  C_23
REMARK   13  A    between atoms: C_24  and  C_25
REMARK                            x       y       z     vdW  Elec       q    Type
REMARK                         _______ _______ _______ _____ _____    ______ ____
ROOT
ATOM      1  C   UNL     1       0.025  -1.613   6.063  0.00  0.00    +0.063 C 
ENDROOT
BRANCH   1  11
ATOM      2  C   UNL     1       0.731  -0.503   1.223  0.00  0.00    -0.024 A 
ATOM      3  C   UNL     1       2.073  -0.808   1.151  0.00  0.00    +0.005 A 
ATOM      4  C   UNL     1       2.756  -1.268   2.268  0.00  0.00    +0.001 A 
ATOM      5  C   UNL     1       2.107  -1.427   3.460  0.00  0.00    +0.010 A 
ATOM      6  C   UNL     1       0.748  -1.125   3.556  0.00  0.00    +0.004 A 
ATOM      7  C   UNL     1       0.053  -0.653   2.428  0.00  0.00    +0.050 A 
ATOM      8  N   UNL     1      -1.250  -0.435   2.816  0.00  0.00    -0.360 N 
ATOM      9  H   UNL     1      -1.957  -0.111   2.236  0.00  0.00    +0.165 HD
ATOM     10  C   UNL     1      -1.400  -0.746   4.140  0.00  0.00    +0.088 A 
ATOM     11  C   UNL     1      -0.232  -1.176   4.644  0.00  0.00    -0.014 A 
BRANCH   2  13
ATOM     12  C   UNL     1      -0.019   1.526   0.010  0.00  0.00    +0.009 C 
ATOM     13  C   UNL     1       0.002  -0.004   0.002  0.00  0.00    +0.034 C 
ENDBRANCH   2  13
ENDBRANCH   1  11
BRANCH   1  14
ATOM     14  C   UNL     1      -0.290  -0.479   7.003  0.00  0.00    +0.006 A 
ATOM     15  C   UNL     1      -1.569   0.047   7.047  0.00  0.00    +0.008 A 
ATOM     16  C   UNL     1      -1.862   1.087   7.909  0.00  0.00    +0.004 A 
ATOM     17  C   UNL     1      -0.878   1.606   8.731  0.00  0.00    +0.049 A 
ATOM     18  C   UNL     1       0.404   1.084   8.692  0.00  0.00    +0.167 A 
ATOM     19  C   UNL     1       0.698   0.032   7.827  0.00  0.00    +0.170 A 
ATOM     20  O   UNL     1       2.012  -0.304   7.980  0.00  0.00    -0.452 OA
ATOM     21  C   UNL     1       2.619   0.816   8.653  0.00  0.00    +0.466 C 
ATOM     22  O   UNL     1       1.535   1.409   9.384  0.00  0.00    -0.453 OA
ENDBRANCH   1  14
BRANCH   1  23
ATOM     23  C   UNL     1      -0.863  -2.814   6.395  0.00  0.00    +0.109 C 
BRANCH  23  24
ATOM     24  C   UNL     1      -0.519  -3.328   7.769  0.00  0.00    +0.217 C 
ATOM     25  O   UNL     1       0.351  -2.788   8.419  0.00  0.00    -0.276 OA
ATOM     26  N   UNL     1      -1.179  -4.389   8.276  0.00  0.00    -0.299 N 
BRANCH  26  27
ATOM     27  C   UNL     1      -2.230  -5.042   7.492  0.00  0.00    +0.089 C 
BRANCH  27  28
ATOM     28  C   UNL     1      -1.614  -6.155   6.642  0.00  0.00    -0.060 C 
BRANCH  28  29
ATOM     29  N   UNL     1      -2.668  -6.809   5.855  0.00  0.00    +0.377 N 
ATOM     30  C   UNL     1      -3.228  -5.851   4.893  0.00  0.00    -0.097 C 
ATOM     31  C   UNL     1      -2.099  -7.954   5.130  0.00  0.00    -0.097 C 
ATOM     32  H   UNL     1      -3.398  -7.132   6.473  0.00  0.00    -0.083 HD
ENDBRANCH  28  29
ENDBRANCH  27  28
ENDBRANCH  26  27
BRANCH  26  33
ATOM     33  C   UNL     1      -0.844  -4.888   9.612  0.00  0.00    +0.142 C 
BRANCH  33  34
ATOM     34  C   UNL     1      -1.696  -4.187  10.639  0.00  0.00    -0.030 A 
ATOM     35  C   UNL     1      -1.256  -3.011  11.216  0.00  0.00    +0.005 A 
ATOM     36  C   UNL     1      -2.037  -2.368  12.157  0.00  0.00    +0.000 A 
ATOM     37  C   UNL     1      -3.259  -2.901  12.521  0.00  0.00    +0.000 A 
ATOM     38  C   UNL     1      -3.700  -4.077  11.944  0.00  0.00    +0.000 A 
ATOM     39  C   UNL     1      -2.921  -4.718  10.999  0.00  0.00    +0.005 A 
ENDBRANCH  33  34
ENDBRANCH  26  33
ENDBRANCH  23  24
ENDBRANCH   1  23
TORSDOF 10
