REMARK  Name = ZINC13329387
REMARK  6 active torsions:
REMARK  status: ('A' for Active; 'I' for Inactive)
REMARK    1  A    between atoms: C_4  and  N_11
REMARK    2  A    between atoms: C_5  and  C_7
REMARK    3  A    between atoms: N_11  and  C_12
REMARK    4  A    between atoms: C_12  and  N_14
REMARK    5  A    between atoms: N_18  and  C_20
REMARK    6  A    between atoms: C_20  and  C_21
REMARK                            x       y       z     vdW  Elec       q    Type
REMARK                         _______ _______ _______ _____ _____    ______ ____
ROOT
ATOM      1  N   UNL     1       0.021   0.933   0.334  0.00  0.00    -0.280 N 
ATOM      2  C   UNL     1      -1.131   1.673   0.633  0.00  0.00    +0.146 A 
ATOM      3  C   UNL     1      -1.242   3.073   0.610  0.00  0.00    +0.065 A 
ATOM      4  C   UNL     1      -2.508   3.395   0.957  0.00  0.00    +0.110 A 
ATOM      5  N   UNL     1      -3.178   2.247   1.192  0.00  0.00    -0.265 N 
ATOM      6  N   UNL     1      -2.297   1.179   0.977  0.00  0.00    -0.156 NA
ATOM      7  H   UNL     1       0.860   1.390   0.165  0.00  0.00    +0.155 HD
ENDROOT
BRANCH   1   8
ATOM      8  C   UNL     1      -0.036  -0.412   0.288  0.00  0.00    +0.140 C 
ATOM      9  S   UNL     1      -1.483  -1.223   0.710  0.00  0.00    -0.018 S 
BRANCH   8  10
ATOM     10  N   UNL     1       1.046  -1.120  -0.092  0.00  0.00    -0.296 N 
ATOM     11  H   UNL     1       1.879  -0.663  -0.291  0.00  0.00    +0.154 HD
BRANCH  10  15
ATOM     12  C   UNL     1       0.819  -5.267  -0.408  0.00  0.00    +0.001 A 
ATOM     13  C   UNL     1      -0.244  -4.484  -0.821  0.00  0.00    +0.002 A 
ATOM     14  C   UNL     1      -0.174  -3.110  -0.712  0.00  0.00    +0.024 A 
ATOM     15  C   UNL     1       0.970  -2.512  -0.198  0.00  0.00    +0.044 A 
ATOM     16  C   UNL     1       2.035  -3.301   0.216  0.00  0.00    +0.076 A 
ATOM     17  C   UNL     1       1.957  -4.676   0.110  0.00  0.00    +0.014 A 
BRANCH  16  18
ATOM     18  C   UNL     1       3.276  -2.658   0.781  0.00  0.00    +0.419 C 
ATOM     19  F   UNL     1       4.200  -3.650   1.124  0.00  0.00    -0.166 F 
ATOM     20  F   UNL     1       3.838  -1.808  -0.177  0.00  0.00    -0.166 F 
ATOM     21  F   UNL     1       2.940  -1.919   1.921  0.00  0.00    -0.166 F 
ENDBRANCH  16  18
ENDBRANCH  10  15
ENDBRANCH   8  10
ENDBRANCH   1   8
BRANCH   5  22
ATOM     22  C   UNL     1      -4.582   2.136   1.594  0.00  0.00    +0.180 C 
BRANCH  22  23
ATOM     23  C   UNL     1      -5.314   1.244   0.625  0.00  0.00    -0.008 A 
ATOM     24  C   UNL     1      -6.010   1.796  -0.434  0.00  0.00    +0.008 A 
ATOM     25  C   UNL     1      -6.676   0.978  -1.326  0.00  0.00    +0.020 A 
ATOM     26  C   UNL     1      -6.657  -0.395  -1.153  0.00  0.00    +0.042 A 
ATOM     27  C   UNL     1      -5.966  -0.948  -0.090  0.00  0.00    +0.040 A 
ATOM     28  C   UNL     1      -5.294  -0.129   0.799  0.00  0.00    +0.047 A 
ATOM     29 CL   UNL     1      -4.426  -0.822   2.133  0.00  0.00    -0.083 Cl
ATOM     30 CL   UNL     1      -7.500  -1.423  -2.269  0.00  0.00    -0.083 Cl
ENDBRANCH  22  23
ENDBRANCH   5  22
TORSDOF 6
