REMARK  Name = ZINC20458796
REMARK  6 active torsions:
REMARK  status: ('A' for Active; 'I' for Inactive)
REMARK    1  A    between atoms: C_1  and  C_2
REMARK    2  A    between atoms: C_2  and  C_3
REMARK    3  A    between atoms: C_2  and  N_4
REMARK    4  A    between atoms: C_10  and  C_19
REMARK    5  A    between atoms: C_11  and  N_18
REMARK    6  A    between atoms: C_14  and  C_15
REMARK                            x       y       z     vdW  Elec       q    Type
REMARK                         _______ _______ _______ _____ _____    ______ ____
ROOT
ATOM      1  N   UNL     1      -1.376  -0.512   0.012  0.00  0.00    +0.381 N 
ATOM      2  C   UNL     1      -1.355  -1.980   0.013  0.00  0.00    -0.077 C 
ATOM      3  C   UNL     1      -2.785  -2.515   0.103  0.00  0.00    -0.001 C 
ATOM      4  C   UNL     1      -3.586  -2.019  -1.107  0.00  0.00    +0.042 C 
ATOM      5  C   UNL     1      -3.543  -0.487  -1.132  0.00  0.00    -0.001 C 
ATOM      6  C   UNL     1      -2.085  -0.026  -1.177  0.00  0.00    -0.077 C 
ATOM      7  C   UNL     1      -2.966  -2.555  -2.367  0.00  0.00    +0.076 C 
ATOM      8  C   UNL     1      -3.526  -3.583  -3.055  0.00  0.00    +0.100 C 
ATOM      9  N   UNL     1      -4.695  -4.165  -2.622  0.00  0.00    -0.296 N 
ATOM     10  C   UNL     1      -5.499  -3.506  -1.720  0.00  0.00    +0.092 C 
ATOM     11  C   UNL     1      -5.013  -2.475  -0.980  0.00  0.00    +0.069 C 
ATOM     12  S   UNL     1      -7.178  -4.004  -1.522  0.00  0.00    -0.034 SA
ATOM     13  H   UNL     1      -4.953  -5.039  -2.953  0.00  0.00    +0.154 HD
ATOM     14  H   UNL     1      -1.848  -0.185   0.842  0.00  0.00    -0.081 HD
ENDROOT
BRANCH   1  16
ATOM     15  C   UNL     1      -0.019   1.526   0.010  0.00  0.00    -0.014 C 
ATOM     16  C   UNL     1       0.002  -0.004   0.002  0.00  0.00    -0.075 C 
ATOM     17  C   UNL     1       0.742  -0.511   1.242  0.00  0.00    -0.014 C 
ENDBRANCH   1  16
BRANCH   8  18
ATOM     18  N   UNL     1      -2.920  -4.046  -4.197  0.00  0.00    -0.346 N 
ATOM     19  H   UNL     1      -2.095  -3.639  -4.508  0.00  0.00    +0.143 HD
ATOM     20  H   UNL     1      -3.315  -4.779  -4.693  0.00  0.00    +0.143 HD
ENDBRANCH   8  18
BRANCH  11  21
ATOM     21  C   UNL     1      -5.880  -1.806  -0.058  0.00  0.00    +0.098 C 
ATOM     22  N   UNL     1      -6.569  -1.276   0.674  0.00  0.00    -0.191 NA
ENDBRANCH  11  21
BRANCH   7  23
ATOM     23  C   UNL     1      -1.755  -1.967  -2.854  0.00  0.00    +0.099 C 
ATOM     24  N   UNL     1      -0.794  -1.501  -3.240  0.00  0.00    -0.191 NA
ENDBRANCH   7  23
TORSDOF 4
