REMARK  Name = ZINC35130588
REMARK  14 active torsions:
REMARK  status: ('A' for Active; 'I' for Inactive)
REMARK    1  A    between atoms: C_1  and  C_2
REMARK    2  A    between atoms: C_7  and  N_8
REMARK    3  A    between atoms: C_9  and  N_17
REMARK    4  A    between atoms: C_11  and  C_13
REMARK    5  A    between atoms: C_13  and  C_14
REMARK    6  A    between atoms: C_13  and  C_15
REMARK    7  A    between atoms: C_13  and  C_16
REMARK    8  A    between atoms: C_18  and  C_20
REMARK    9  A    between atoms: C_20  and  N_21
REMARK   10  A    between atoms: N_21  and  C_22
REMARK   11  A    between atoms: C_22  and  C_23
REMARK   12  A    between atoms: C_23  and  C_24
REMARK   13  A    between atoms: C_23  and  C_25
REMARK   14  A    between atoms: C_26  and  C_28
REMARK                            x       y       z     vdW  Elec       q    Type
REMARK                         _______ _______ _______ _____ _____    ______ ____
ROOT
ATOM      1  N   UNL     1       0.146   0.115   2.338  0.00  0.00    -0.218 N 
ATOM      2  C   UNL     1       0.380  -0.368   3.589  0.00  0.00    +0.129 A 
ATOM      3  C   UNL     1       0.404   0.695   4.439  0.00  0.00    +0.069 A 
ATOM      4  C   UNL     1       0.181   1.852   3.686  0.00  0.00    +0.071 A 
ATOM      5  N   UNL     1       0.032   1.508   2.432  0.00  0.00    -0.169 NA
ENDROOT
BRANCH   1  12
ATOM      6  C   UNL     1      -2.054   0.609   0.602  0.00  0.00    +0.046 C 
ATOM      7  C   UNL     1      -1.014  -0.436   0.291  0.00  0.00    -0.025 A 
ATOM      8  C   UNL     1      -1.108  -1.183  -0.868  0.00  0.00    +0.005 A 
ATOM      9  C   UNL     1      -0.154  -2.142  -1.153  0.00  0.00    +0.000 A 
ATOM     10  C   UNL     1       0.897  -2.357  -0.281  0.00  0.00    +0.002 A 
ATOM     11  C   UNL     1       0.997  -1.614   0.879  0.00  0.00    +0.028 A 
ATOM     12  C   UNL     1       0.044  -0.645   1.165  0.00  0.00    +0.070 A 
ENDBRANCH   1  12
BRANCH   4  13
ATOM     13  C   UNL     1       0.126   3.257   4.226  0.00  0.00    +0.006 C 
ATOM     14  C   UNL     1       1.543   3.736   4.549  0.00  0.00    +0.017 C 
ATOM     15  C   UNL     1      -0.499   4.182   3.179  0.00  0.00    +0.017 C 
ATOM     16  C   UNL     1      -0.723   3.282   5.499  0.00  0.00    +0.017 C 
ENDBRANCH   4  13
BRANCH   2  17
ATOM     17  N   UNL     1       0.560  -1.706   3.937  0.00  0.00    -0.269 N 
ATOM     18  C   UNL     1       0.659  -2.058   5.234  0.00  0.00    +0.236 C 
ATOM     19  O   UNL     1       0.592  -1.210   6.099  0.00  0.00    -0.274 OA
ATOM     20  H   UNL     1       0.613  -2.384   3.245  0.00  0.00    +0.156 HD
BRANCH  18  21
ATOM     21  C   UNL     1       0.854  -3.504   5.610  0.00  0.00    +0.203 C 
BRANCH  21  22
ATOM     22  N   UNL     1       0.932  -3.624   7.068  0.00  0.00    -0.292 N 
ATOM     23  C   UNL     1       2.125  -3.536   7.689  0.00  0.00    +0.219 C 
ATOM     24  O   UNL     1       2.190  -3.635   8.896  0.00  0.00    -0.275 OA
BRANCH  23  25
ATOM     25  C   UNL     1       3.379  -3.315   6.883  0.00  0.00    +0.075 C 
ATOM     26  C   UNL     1       4.385  -4.466   6.810  0.00  0.00    +0.013 C 
ATOM     27  C   UNL     1       4.702  -3.224   7.645  0.00  0.00    +0.013 C 
ENDBRANCH  23  25
BRANCH  22  28
ATOM     28  C   UNL     1      -0.287  -3.839   7.852  0.00  0.00    +0.111 C 
BRANCH  28  29
ATOM     29  C   UNL     1      -0.541  -5.340   7.998  0.00  0.00    +0.000 C 
ATOM     30  C   UNL     1      -1.741  -5.567   8.919  0.00  0.00    +0.009 C 
ATOM     31  C   UNL     1      -0.832  -5.945   6.623  0.00  0.00    +0.009 C 
ENDBRANCH  28  29
ENDBRANCH  22  28
ENDBRANCH  21  22
ENDBRANCH  18  21
ENDBRANCH   2  17
TORSDOF 8
