REMARK  Name = ZINC52860726
REMARK  7 active torsions:
REMARK  status: ('A' for Active; 'I' for Inactive)
REMARK    1  A    between atoms: C_1  and  C_2
REMARK    2  A    between atoms: C_2  and  C_3
REMARK    3  A    between atoms: C_2  and  C_4
REMARK    4  A    between atoms: C_2  and  C_5
REMARK    5  A    between atoms: N_8  and  C_11
REMARK    6  A    between atoms: C_16  and  C_17
REMARK    7  A    between atoms: N_18  and  O_19
REMARK                            x       y       z     vdW  Elec       q    Type
REMARK                         _______ _______ _______ _____ _____    ______ ____
ROOT
ATOM      1  C   UNL     1       2.684   0.554  -4.759  0.00  0.00    +0.040 A 
ATOM      2  C   UNL     1       2.683   1.943  -4.774  0.00  0.00    +0.025 A 
ATOM      3  C   UNL     1       3.268   2.623  -5.823  0.00  0.00    +0.022 A 
ATOM      4  C   UNL     1       3.859   1.929  -6.866  0.00  0.00    +0.042 A 
ATOM      5  C   UNL     1       3.868   0.549  -6.866  0.00  0.00    +0.033 A 
ATOM      6  C   UNL     1       3.285  -0.151  -5.810  0.00  0.00    +0.040 A 
ATOM      7 CL   UNL     1       4.590   2.798  -8.179  0.00  0.00    -0.084 Cl
ENDROOT
BRANCH   1  11
ATOM      8  C   UNL     1       0.718  -0.497  -1.257  0.00  0.00    -0.003 C 
ATOM      9  C   UNL     1      -0.023   0.008  -2.497  0.00  0.00    +0.023 C 
ATOM     10  C   UNL     1       0.676  -0.516  -3.754  0.00  0.00    +0.105 C 
ATOM     11  N   UNL     1       2.094  -0.134  -3.701  0.00  0.00    -0.329 N 
ATOM     12  C   UNL     1       2.878  -0.492  -2.511  0.00  0.00    +0.105 C 
ATOM     13  C   UNL     1       2.154   0.032  -1.267  0.00  0.00    +0.023 C 
BRANCH   8  15
ATOM     14  C   UNL     1      -0.019   1.526   0.010  0.00  0.00    +0.011 C 
ATOM     15  C   UNL     1       0.002  -0.004   0.002  0.00  0.00    -0.035 C 
ATOM     16  C   UNL     1       0.742  -0.511   1.242  0.00  0.00    +0.011 C 
ATOM     17  C   UNL     1      -1.433  -0.534   0.013  0.00  0.00    +0.011 C 
ENDBRANCH   8  15
ENDBRANCH   1  11
BRANCH   6  18
ATOM     18  C   UNL     1       3.297  -1.629  -5.801  0.00  0.00    +0.164 C 
ATOM     19  N   UNL     1       2.748  -2.279  -4.816  0.00  0.00    -0.071 NA
ATOM     20  N   UNL     1       3.892  -2.323  -6.841  0.00  0.00    -0.340 N 
ATOM     21  H   UNL     1       4.301  -1.839  -7.576  0.00  0.00    +0.144 HD
ATOM     22  H   UNL     1       3.900  -3.293  -6.836  0.00  0.00    +0.144 HD
BRANCH  19  23
ATOM     23  O   UNL     1       2.759  -3.695  -4.808  0.00  0.00    -0.408 OA
ATOM     24  H   UNL     1       2.328  -4.087  -4.036  0.00  0.00    +0.328 HD
ENDBRANCH  19  23
ENDBRANCH   6  18
TORSDOF 4
