REMARK  Name = ZINC36040701
REMARK  15 active torsions:
REMARK  status: ('A' for Active; 'I' for Inactive)
REMARK    1  A    between atoms: C_1  and  N_2
REMARK    2  A    between atoms: N_2  and  C_3
REMARK    3  A    between atoms: N_2  and  C_4
REMARK    4  A    between atoms: C_4  and  C_5
REMARK    5  A    between atoms: C_5  and  N_6
REMARK    6  A    between atoms: N_6  and  C_7
REMARK    7  A    between atoms: N_6  and  C_31
REMARK    8  A    between atoms: C_7  and  C_8
REMARK    9  A    between atoms: C_11  and  S_20
REMARK   10  A    between atoms: N_12  and  C_13
REMARK   11  A    between atoms: C_13  and  C_14
REMARK   12  A    between atoms: S_20  and  C_23
REMARK   13  A    between atoms: C_23  and  C_24
REMARK   14  A    between atoms: C_31  and  N_33
REMARK   15  A    between atoms: N_33  and  C_34
REMARK                            x       y       z     vdW  Elec       q    Type
REMARK                         _______ _______ _______ _____ _____    ______ ____
ROOT
ATOM      1  C   UNL     1      -2.977  -3.853  -1.673  0.00  0.00    +0.057 A 
ATOM      2  C   UNL     1      -4.160  -4.485  -1.794  0.00  0.00    +0.137 A 
ATOM      3  N   UNL     1      -3.988  -5.535  -2.610  0.00  0.00    -0.220 NA
ATOM      4  C   UNL     1      -2.743  -5.579  -3.000  0.00  0.00    +0.252 A 
ATOM      5  N   UNL     1      -2.079  -4.543  -2.442  0.00  0.00    -0.307 N 
ENDROOT
BRANCH   4   6
ATOM      6  S   UNL     1      -2.046  -6.785  -4.079  0.00  0.00    +0.034 S 
ATOM      7  O   UNL     1      -0.655  -6.773  -3.785  0.00  0.00    -0.166 OA
ATOM      8  O   UNL     1      -2.822  -7.955  -3.864  0.00  0.00    -0.166 OA
BRANCH   6   9
ATOM      9  C   UNL     1      -2.337  -6.140  -5.749  0.00  0.00    +0.210 C 
BRANCH   9  10
ATOM     10  C   UNL     1      -1.864  -7.147  -6.766  0.00  0.00    -0.026 A 
ATOM     11  C   UNL     1      -0.560  -7.107  -7.222  0.00  0.00    +0.008 A 
ATOM     12  C   UNL     1      -0.125  -8.030  -8.154  0.00  0.00    +0.038 A 
ATOM     13  C   UNL     1      -0.996  -8.995  -8.630  0.00  0.00    +0.123 A 
ATOM     14  C   UNL     1      -2.302  -9.034  -8.173  0.00  0.00    +0.038 A 
ATOM     15  C   UNL     1      -2.733  -8.113  -7.237  0.00  0.00    +0.008 A 
ATOM     16  F   UNL     1      -0.572  -9.898  -9.542  0.00  0.00    -0.205 F 
ENDBRANCH   9  10
ENDBRANCH   6   9
ENDBRANCH   4   6
BRANCH   1  17
ATOM     17  C   UNL     1      -2.697  -2.620  -0.854  0.00  0.00    +0.161 C 
BRANCH  17  18
ATOM     18  N   UNL     1      -3.689  -2.510   0.218  0.00  0.00    -0.309 N 
BRANCH  18  19
ATOM     19  C   UNL     1      -4.832  -1.826   0.012  0.00  0.00    +0.133 C 
ATOM     20  S   UNL     1      -5.124  -1.085  -1.503  0.00  0.00    -0.019 S 
BRANCH  19  21
ATOM     21  N   UNL     1      -5.744  -1.725   0.999  0.00  0.00    -0.324 N 
ATOM     22  H   UNL     1      -5.579  -2.145   1.857  0.00  0.00    +0.148 HD
BRANCH  21  23
ATOM     23  C   UNL     1      -6.986  -0.982   0.774  0.00  0.00    +0.072 C 
ATOM     24  C   UNL     1      -7.458  -0.043   1.887  0.00  0.00    +0.024 C 
ATOM     25  C   UNL     1      -8.199  -1.357   1.629  0.00  0.00    +0.024 C 
ENDBRANCH  21  23
ENDBRANCH  19  21
ENDBRANCH  18  19
BRANCH  18  26
ATOM     26  C   UNL     1      -3.439  -3.144   1.515  0.00  0.00    +0.088 C 
BRANCH  26  27
ATOM     27  C   UNL     1      -2.723  -2.155   2.437  0.00  0.00    -0.060 C 
BRANCH  27  29
ATOM     28  C   UNL     1      -1.581  -1.915   4.533  0.00  0.00    -0.097 C 
ATOM     29  N   UNL     1      -2.383  -2.822   3.701  0.00  0.00    +0.377 N 
ATOM     30  C   UNL     1      -3.616  -3.179   4.414  0.00  0.00    -0.097 C 
ATOM     31  H   UNL     1      -1.852  -3.659   3.508  0.00  0.00    -0.083 HD
ENDBRANCH  27  29
ENDBRANCH  26  27
ENDBRANCH  18  26
ENDBRANCH  17  18
ENDBRANCH   1  17
BRANCH   5  32
ATOM     32  C   UNL     1      -0.662  -4.220  -2.625  0.00  0.00    +0.160 C 
BRANCH  32  33
ATOM     33  C   UNL     1      -0.508  -3.271  -3.785  0.00  0.00    -0.028 A 
ATOM     34  C   UNL     1      -0.188  -3.759  -5.039  0.00  0.00    +0.005 A 
ATOM     35  C   UNL     1      -0.047  -2.888  -6.103  0.00  0.00    +0.000 A 
ATOM     36  C   UNL     1      -0.226  -1.530  -5.914  0.00  0.00    +0.000 A 
ATOM     37  C   UNL     1      -0.546  -1.043  -4.661  0.00  0.00    +0.000 A 
ATOM     38  C   UNL     1      -0.692  -1.914  -3.597  0.00  0.00    +0.005 A 
ENDBRANCH  32  33
ENDBRANCH   5  32
TORSDOF 13
