REMARK  Name = ZINC00917372
REMARK  12 active torsions:
REMARK  status: ('A' for Active; 'I' for Inactive)
REMARK    1  A    between atoms: C_1  and  C_2
REMARK    2  A    between atoms: C_5  and  N_35
REMARK    3  A    between atoms: C_7  and  N_8
REMARK    4  A    between atoms: C_9  and  C_11
REMARK    5  A    between atoms: C_11  and  S_12
REMARK    6  A    between atoms: S_12  and  C_13
REMARK    7  A    between atoms: C_16  and  C_26
REMARK    8  A    between atoms: N_17  and  C_18
REMARK    9  A    between atoms: C_21  and  O_24
REMARK   10  A    between atoms: O_24  and  C_25
REMARK   11  A    between atoms: C_26  and  N_27
REMARK   12  A    between atoms: N_27  and  C_28
REMARK                            x       y       z     vdW  Elec       q    Type
REMARK                         _______ _______ _______ _____ _____    ______ ____
ROOT
ATOM      1  C   UNL     1      -0.385  -0.118   7.687  0.00  0.00    +0.197 A 
ATOM      2  N   UNL     1      -0.411   1.194   7.715  0.00  0.00    -0.122 NA
ATOM      3  N   UNL     1      -0.509   1.604   8.929  0.00  0.00    -0.132 NA
ATOM      4  C   UNL     1      -0.552   0.587   9.744  0.00  0.00    +0.156 A 
ATOM      5  N   UNL     1      -0.481  -0.548   8.982  0.00  0.00    -0.273 N 
ENDROOT
BRANCH   5   6
ATOM      6  C   UNL     1      -0.498  -1.877   9.435  0.00  0.00    +0.050 A 
ATOM      7  C   UNL     1      -1.635  -2.386  10.048  0.00  0.00    +0.030 A 
ATOM      8  C   UNL     1      -1.652  -3.693  10.494  0.00  0.00    +0.047 A 
ATOM      9  C   UNL     1      -0.533  -4.496  10.330  0.00  0.00    +0.120 A 
ATOM     10  C   UNL     1       0.603  -3.988   9.717  0.00  0.00    +0.047 A 
ATOM     11  C   UNL     1       0.619  -2.683   9.265  0.00  0.00    +0.030 A 
BRANCH   9  12
ATOM     12  O   UNL     1      -0.549  -5.783  10.770  0.00  0.00    -0.495 OA
ATOM     13  C   UNL     1       0.637  -6.553  10.568  0.00  0.00    +0.277 C 
ENDBRANCH   9  12
ENDBRANCH   5   6
BRANCH   1  14
ATOM     14  S   UNL     1      -0.260  -1.133   6.252  0.00  0.00    -0.076 S 
BRANCH  14  15
ATOM     15  C   UNL     1      -0.169   0.052   4.882  0.00  0.00    +0.173 C 
BRANCH  15  17
ATOM     16  N   UNL     1       0.025  -0.015   2.417  0.00  0.00    -0.285 N 
ATOM     17  C   UNL     1      -0.057  -0.694   3.578  0.00  0.00    +0.227 C 
ATOM     18  O   UNL     1      -0.040  -1.907   3.573  0.00  0.00    -0.275 OA
ATOM     19  H   UNL     1       0.077   0.954   2.425  0.00  0.00    +0.155 HD
BRANCH  16  26
ATOM     20  C   UNL     1      -1.265   1.183   0.181  0.00  0.00    +0.045 C 
ATOM     21  C   UNL     1      -0.584  -0.158   0.084  0.00  0.00    -0.029 A 
ATOM     22  C   UNL     1      -0.569  -0.841  -1.117  0.00  0.00    +0.007 A 
ATOM     23  C   UNL     1       0.056  -2.071  -1.206  0.00  0.00    +0.033 A 
ATOM     24  C   UNL     1       0.667  -2.622  -0.095  0.00  0.00    +0.128 A 
ATOM     25  C   UNL     1       0.656  -1.944   1.109  0.00  0.00    +0.056 A 
ATOM     26  C   UNL     1       0.034  -0.706   1.201  0.00  0.00    +0.038 A 
BRANCH  24  27
ATOM     27  N   UNL     1       1.334  -3.940  -0.195  0.00  0.00    +0.056 N 
ATOM     28  O   UNL     1       1.344  -4.534  -1.248  0.00  0.00    -0.126 OA
ATOM     29  O   UNL     1       1.868  -4.422   0.776  0.00  0.00    -0.126 OA
ENDBRANCH  24  27
ENDBRANCH  16  26
ENDBRANCH  15  17
ENDBRANCH  14  15
ENDBRANCH   1  14
BRANCH   4  30
ATOM     30  C   UNL     1      -0.665   0.650  11.245  0.00  0.00    +0.178 C 
BRANCH  30  31
ATOM     31  N   UNL     1      -2.079   0.645  11.629  0.00  0.00    -0.336 N 
ATOM     32  H   UNL     1      -2.767   0.606  10.946  0.00  0.00    +0.147 HD
BRANCH  31  33
ATOM     33  C   UNL     1      -2.437   0.698  12.979  0.00  0.00    +0.046 A 
ATOM     34  C   UNL     1      -1.454   0.760  13.957  0.00  0.00    +0.024 A 
ATOM     35  C   UNL     1      -1.810   0.812  15.291  0.00  0.00    +0.002 A 
ATOM     36  C   UNL     1      -3.145   0.802  15.652  0.00  0.00    +0.002 A 
ATOM     37  C   UNL     1      -4.128   0.740  14.681  0.00  0.00    +0.022 A 
ATOM     38  C   UNL     1      -3.778   0.693  13.345  0.00  0.00    +0.062 A 
ATOM     39 CL   UNL     1      -5.011   0.622  12.125  0.00  0.00    -0.082 Cl
ENDBRANCH  31  33
ENDBRANCH  30  31
ENDBRANCH   4  30
TORSDOF 10
