REMARK  Name = ZINC33260174
REMARK  7 active torsions:
REMARK  status: ('A' for Active; 'I' for Inactive)
REMARK    1  A    between atoms: C_1  and  C_2
REMARK    2  A    between atoms: N_7  and  C_9
REMARK    3  A    between atoms: C_9  and  C_10
REMARK    4  A    between atoms: C_10  and  C_11
REMARK    5  A    between atoms: C_11  and  N_12
REMARK    6  A    between atoms: C_13  and  C_15
REMARK    7  A    between atoms: C_27  and  C_30
REMARK                            x       y       z     vdW  Elec       q    Type
REMARK                         _______ _______ _______ _____ _____    ______ ____
ROOT
ATOM      1  C   UNL     1      -0.927   1.718   3.671  0.00  0.00    +0.078 C 
ATOM      2  C   UNL     1      -0.946   3.249   3.682  0.00  0.00    +0.031 C 
ATOM      3  C   UNL     1      -1.608   3.737   4.973  0.00  0.00    +0.107 C 
ATOM      4  N   UNL     1      -0.861   3.229   6.131  0.00  0.00    -0.314 N 
ATOM      5  C   UNL     1      -0.871   1.761   6.167  0.00  0.00    +0.107 C 
ATOM      6  C   UNL     1      -0.186   1.214   4.912  0.00  0.00    +0.031 C 
ATOM      7  C   UNL     1      -1.358   3.760   7.317  0.00  0.00    +0.142 A 
ATOM      8  C   UNL     1      -1.430   5.157   7.477  0.00  0.00    +0.049 A 
ATOM      9  C   UNL     1      -1.915   5.687   8.632  0.00  0.00    +0.053 A 
ATOM     10  C   UNL     1      -2.341   4.823   9.657  0.00  0.00    +0.178 A 
ATOM     11  N   UNL     1      -2.848   5.018  10.866  0.00  0.00    -0.128 NA
ATOM     12  N   UNL     1      -3.078   3.882  11.426  0.00  0.00    -0.127 NA
ATOM     13  C   UNL     1      -2.735   2.899  10.614  0.00  0.00    +0.185 A 
ATOM     14  N   UNL     1      -2.258   3.466   9.470  0.00  0.00    -0.191 N 
ATOM     15  N   UNL     1      -1.760   2.952   8.271  0.00  0.00    -0.148 NA
ENDROOT
BRANCH  13  16
ATOM     16  C   UNL     1      -2.847   1.452  10.895  0.00  0.00    +0.021 A 
ATOM     17  C   UNL     1      -2.176   0.529  10.091  0.00  0.00    +0.013 A 
ATOM     18  C   UNL     1      -2.281  -0.820  10.361  0.00  0.00    +0.021 A 
ATOM     19  C   UNL     1      -3.058  -1.259  11.420  0.00  0.00    +0.041 A 
ATOM     20  C   UNL     1      -3.731  -0.348  12.217  0.00  0.00    +0.021 A 
ATOM     21  C   UNL     1      -3.630   1.003  11.960  0.00  0.00    +0.013 A 
ATOM     22 CL   UNL     1      -3.190  -2.958  11.748  0.00  0.00    -0.084 Cl
ENDBRANCH  13  16
BRANCH   1  24
ATOM     23  N   UNL     1      -0.698   1.558   1.213  0.00  0.00    -0.315 N 
ATOM     24  C   UNL     1      -0.222   1.232   2.431  0.00  0.00    +0.216 C 
ATOM     25  O   UNL     1       0.774   0.548   2.529  0.00  0.00    -0.276 OA
ATOM     26  H   UNL     1      -1.602   2.179   1.124  0.00  0.00    +0.149 HD
BRANCH  23  27
ATOM     27  C   UNL     1      -0.013   1.086   0.008  0.00  0.00    +0.102 C 
BRANCH  27  28
ATOM     28  C   UNL     1      -0.753   1.593  -1.232  0.00  0.00    +0.000 C 
BRANCH  28  29
ATOM     29  C   UNL     1      -0.037   1.099  -2.490  0.00  0.00    -0.077 C 
BRANCH  29  35
ATOM     30  C   UNL     1      -0.554   0.703  -7.366  0.00  0.00    +0.005 C 
ATOM     31  C   UNL     1      -1.095   1.359  -6.095  0.00  0.00    -0.031 C 
ATOM     32  C   UNL     1      -1.044   2.882  -6.244  0.00  0.00    -0.001 C 
ATOM     33  C   UNL     1      -1.533   3.531  -4.946  0.00  0.00    -0.018 C 
ATOM     34  C   UNL     1      -0.664   3.049  -3.782  0.00  0.00    -0.079 C 
ATOM     35  N   UNL     1      -0.747   1.586  -3.680  0.00  0.00    +0.380 N 
ATOM     36  C   UNL     1      -0.239   0.940  -4.897  0.00  0.00    -0.076 C 
ATOM     37  H   UNL     1      -1.808   1.317  -3.576  0.00  0.00    -0.082 HD
ENDBRANCH  29  35
ENDBRANCH  28  29
ENDBRANCH  27  28
ENDBRANCH  23  27
ENDBRANCH   1  24
TORSDOF 6
