REMARK  Name = ZINC59170502
REMARK  9 active torsions:
REMARK  status: ('A' for Active; 'I' for Inactive)
REMARK    1  A    between atoms: C_1  and  C_2
REMARK    2  A    between atoms: C_5  and  S_8
REMARK    3  A    between atoms: S_8  and  N_11
REMARK    4  A    between atoms: N_11  and  N_12
REMARK    5  A    between atoms: C_14  and  C_26
REMARK    6  A    between atoms: C_18  and  N_23
REMARK    7  A    between atoms: N_28  and  C_29
REMARK    8  A    between atoms: C_32  and  O_35
REMARK    9  A    between atoms: O_35  and  C_36
REMARK                            x       y       z     vdW  Elec       q    Type
REMARK                         _______ _______ _______ _____ _____    ______ ____
ROOT
ATOM      1  N   UNL     1       2.333  -3.839   0.154  0.00  0.00    -0.260 N 
ATOM      2  C   UNL     1       3.489  -4.562   0.215  0.00  0.00    +0.225 A 
ATOM      3  C   UNL     1       4.225  -4.564   1.399  0.00  0.00    +0.099 A 
ATOM      4  C   UNL     1       5.422  -5.304   1.485  0.00  0.00    +0.030 A 
ATOM      5  C   UNL     1       5.834  -6.023   0.355  0.00  0.00    +0.020 A 
ATOM      6  C   UNL     1       7.015  -6.789   0.352  0.00  0.00    +0.044 A 
ATOM      7  C   UNL     1       7.369  -7.469  -0.772  0.00  0.00    +0.127 A 
ATOM      8  C   UNL     1       6.586  -7.424  -1.924  0.00  0.00    +0.036 A 
ATOM      9  C   UNL     1       5.423  -6.691  -1.976  0.00  0.00    +0.049 A 
ATOM     10  C   UNL     1       5.009  -5.975  -0.855  0.00  0.00    +0.138 A 
ATOM     11  O   UNL     1       3.879  -5.253  -0.862  0.00  0.00    -0.437 OA
ATOM     12  H   UNL     1       1.998  -3.394   0.948  0.00  0.00    +0.189 HD
ENDROOT
BRANCH   3  13
ATOM     13  C   UNL     1       3.749  -3.787   2.567  0.00  0.00    +0.253 C 
ATOM     14  O   UNL     1       2.883  -4.242   3.288  0.00  0.00    -0.270 OA
ATOM     15  N   UNL     1       4.277  -2.575   2.831  0.00  0.00    -0.281 N 
ATOM     16  H   UNL     1       4.900  -2.171   2.207  0.00  0.00    +0.155 HD
BRANCH  15  17
ATOM     17  C   UNL     1       3.926  -1.900   4.005  0.00  0.00    +0.034 A 
ATOM     18  C   UNL     1       3.646  -2.617   5.162  0.00  0.00    +0.027 A 
ATOM     19  C   UNL     1       3.301  -1.950   6.320  0.00  0.00    +0.047 A 
ATOM     20  C   UNL     1       3.233  -0.564   6.329  0.00  0.00    +0.120 A 
ATOM     21  C   UNL     1       3.511   0.153   5.174  0.00  0.00    +0.047 A 
ATOM     22  C   UNL     1       3.863  -0.512   4.016  0.00  0.00    +0.027 A 
BRANCH  20  23
ATOM     23  O   UNL     1       2.892   0.092   7.470  0.00  0.00    -0.495 OA
ATOM     24  C   UNL     1       2.842   1.519   7.407  0.00  0.00    +0.277 C 
ENDBRANCH  20  23
ENDBRANCH  15  17
ENDBRANCH   3  13
BRANCH   7  25
ATOM     25  N   UNL     1       8.611  -8.274  -0.772  0.00  0.00    +0.056 N 
ATOM     26  O   UNL     1       9.362  -8.326   0.309  0.00  0.00    -0.126 OA
ATOM     27  O   UNL     1       8.966  -8.937  -1.853  0.00  0.00    -0.126 OA
ENDBRANCH   7  25
BRANCH   1  28
ATOM     28  N   UNL     1       1.688  -3.746  -0.959  0.00  0.00    -0.157 N 
ATOM     29  H   UNL     1       1.982  -4.250  -1.733  0.00  0.00    +0.194 HD
BRANCH  28  30
ATOM     30  S   UNL     1       0.356  -2.767  -1.064  0.00  0.00    +0.085 S 
ATOM     31  O   UNL     1      -0.570  -3.235  -0.094  0.00  0.00    -0.149 OA
ATOM     32  O   UNL     1       0.031  -2.672  -2.444  0.00  0.00    -0.149 OA
BRANCH  30  37
ATOM     33  C   UNL     1       2.052   2.751   0.690  0.00  0.00    +0.044 C 
ATOM     34  C   UNL     1       1.629   1.373   0.252  0.00  0.00    -0.050 A 
ATOM     35  C   UNL     1       1.823   0.974  -1.057  0.00  0.00    +0.005 A 
ATOM     36  C   UNL     1       1.435  -0.291  -1.459  0.00  0.00    +0.029 A 
ATOM     37  C   UNL     1       0.853  -1.156  -0.552  0.00  0.00    +0.110 A 
ATOM     38  C   UNL     1       0.659  -0.757   0.758  0.00  0.00    +0.029 A 
ATOM     39  C   UNL     1       1.051   0.505   1.161  0.00  0.00    +0.005 A 
ENDBRANCH  30  37
ENDBRANCH  28  30
ENDBRANCH   1  28
TORSDOF 7
