REMARK  Name = ZINC08996016
REMARK  6 active torsions:
REMARK  status: ('A' for Active; 'I' for Inactive)
REMARK    1  A    between atoms: C_1  and  C_2
REMARK    2  A    between atoms: C_16  and  C_18
REMARK    3  A    between atoms: C_18  and  C_19
REMARK    4  A    between atoms: N_31  and  C_34
REMARK    5  A    between atoms: C_38  and  O_40
REMARK    6  A    between atoms: O_40  and  C_41
REMARK                            x       y       z     vdW  Elec       q    Type
REMARK                         _______ _______ _______ _____ _____    ______ ____
ROOT
ATOM      1  C   UNL     1       0.044   4.587  -7.717  0.00  0.00    +0.045 C 
ATOM      2  C   UNL     1      -0.614   3.763  -6.641  0.00  0.00    -0.029 A 
ATOM      3  C   UNL     1      -1.128   2.519  -6.945  0.00  0.00    +0.005 A 
ATOM      4  C   UNL     1      -1.733   1.755  -5.965  0.00  0.00    +0.001 A 
ATOM      5  C   UNL     1      -1.824   2.240  -4.672  0.00  0.00    +0.004 A 
ATOM      6  C   UNL     1      -1.313   3.480  -4.364  0.00  0.00    -0.027 A 
ATOM      7  C   UNL     1      -0.701   4.258  -5.343  0.00  0.00    +0.039 A 
ATOM      8  N   UNL     1      -0.263   5.466  -4.795  0.00  0.00    -0.286 N 
ATOM      9  C   UNL     1      -0.543   5.560  -3.481  0.00  0.00    +0.211 C 
ATOM     10  O   UNL     1      -0.281   6.491  -2.749  0.00  0.00    -0.277 OA
ATOM     11  C   UNL     1      -1.244   4.286  -3.097  0.00  0.00    +0.050 C 
ATOM     12  C   UNL     1      -2.642   4.563  -2.530  0.00  0.00    +0.088 C 
ATOM     13  C   UNL     1      -2.836   3.486  -1.426  0.00  0.00    +0.074 C 
ATOM     14  C   UNL     1      -1.533   2.658  -1.446  0.00  0.00    -0.053 C 
ATOM     15  C   UNL     1      -2.886   4.321  -0.149  0.00  0.00    +0.228 C 
ATOM     16  O   UNL     1      -3.019   3.877   0.971  0.00  0.00    -0.275 OA
ATOM     17  N   UNL     1      -2.768   5.618  -0.457  0.00  0.00    -0.210 N 
ATOM     18  C   UNL     1      -2.628   5.867  -1.764  0.00  0.00    +0.229 C 
ATOM     19  O   UNL     1      -2.510   6.968  -2.258  0.00  0.00    -0.275 OA
ATOM     20  H   UNL     1       0.190   6.158  -5.303  0.00  0.00    +0.155 HD
ATOM     21  N   UNL     1      -0.549   3.562  -2.048  0.00  0.00    +0.394 N 
ATOM     22  H   UNL     1      -0.191   4.216  -1.342  0.00  0.00    -0.083 HD
ATOM     23  H   UNL     1       0.231   3.024  -2.443  0.00  0.00    -0.083 HD
ENDROOT
BRANCH  17  24
ATOM     24  C   UNL     1      -2.788   6.632   0.510  0.00  0.00    +0.047 A 
ATOM     25  C   UNL     1      -3.955   6.897   1.216  0.00  0.00    +0.024 A 
ATOM     26  C   UNL     1      -3.974   7.893   2.172  0.00  0.00    +0.005 A 
ATOM     27  C   UNL     1      -2.836   8.636   2.423  0.00  0.00    +0.046 A 
ATOM     28  C   UNL     1      -1.669   8.379   1.717  0.00  0.00    +0.122 A 
ATOM     29  C   UNL     1      -1.645   7.377   0.760  0.00  0.00    +0.069 A 
BRANCH  28  30
ATOM     30  O   UNL     1      -0.551   9.111   1.964  0.00  0.00    -0.495 OA
ATOM     31  C   UNL     1      -0.648  10.127   2.964  0.00  0.00    +0.277 C 
ENDBRANCH  28  30
ENDBRANCH  17  24
BRANCH  14  32
ATOM     32  C   UNL     1      -1.132   2.262  -0.024  0.00  0.00    +0.022 C 
BRANCH  32  33
ATOM     33  C   UNL     1       0.115   1.417  -0.071  0.00  0.00    -0.024 A 
ATOM     34  C   UNL     1       0.170   0.076  -0.078  0.00  0.00    +0.087 A 
ATOM     35  N   UNL     1       1.474  -0.337  -0.131  0.00  0.00    -0.360 N 
ATOM     36  H   UNL     1       1.765  -1.262  -0.145  0.00  0.00    +0.165 HD
ATOM     37  C   UNL     1       2.310   0.756  -0.159  0.00  0.00    +0.047 A 
ATOM     38  C   UNL     1       1.496   1.903  -0.122  0.00  0.00    +0.003 A 
ATOM     39  C   UNL     1       2.078   3.172  -0.140  0.00  0.00    +0.010 A 
ATOM     40  C   UNL     1       3.438   3.293  -0.192  0.00  0.00    +0.001 A 
ATOM     41  C   UNL     1       4.246   2.165  -0.229  0.00  0.00    +0.002 A 
ATOM     42  C   UNL     1       3.692   0.904  -0.212  0.00  0.00    +0.026 A 
ENDBRANCH  32  33
ENDBRANCH  14  32
TORSDOF 4
