REMARK  Name = ZINC00949869
REMARK  8 active torsions:
REMARK  status: ('A' for Active; 'I' for Inactive)
REMARK    1  A    between atoms: C_2  and  C_3
REMARK    2  A    between atoms: C_3  and  N_4
REMARK    3  A    between atoms: C_5  and  C_28
REMARK    4  A    between atoms: C_8  and  S_9
REMARK    5  A    between atoms: S_9  and  C_10
REMARK    6  A    between atoms: C_10  and  C_11
REMARK    7  A    between atoms: C_17  and  C_19
REMARK    8  A    between atoms: C_19  and  C_20
REMARK                            x       y       z     vdW  Elec       q    Type
REMARK                         _______ _______ _______ _____ _____    ______ ____
ROOT
ATOM      1  C   UNL     1       0.059  -6.543  -1.268  0.00  0.00    +0.229 C 
ATOM      2  O   UNL     1       0.297  -6.160  -2.394  0.00  0.00    -0.275 OA
ATOM      3  N   UNL     1      -0.460  -7.770  -1.069  0.00  0.00    -0.264 N 
ATOM      4  C   UNL     1      -0.723  -8.598  -2.155  0.00  0.00    +0.165 A 
ATOM      5  N   UNL     1      -0.525  -8.357  -3.433  0.00  0.00    -0.233 NA
ATOM      6  C   UNL     1      -0.830  -9.255  -4.351  0.00  0.00    +0.124 A 
ATOM      7  C   UNL     1      -1.352 -10.428  -3.917  0.00  0.00    +0.015 A 
ATOM      8  S   UNL     1      -1.363 -10.154  -2.153  0.00  0.00    -0.057 S 
ATOM      9  H   UNL     1      -0.651  -8.077  -0.169  0.00  0.00    +0.157 HD
ENDROOT
BRANCH   1  10
ATOM     10  C   UNL     1       0.343  -5.646  -0.091  0.00  0.00    +0.173 C 
BRANCH  10  11
ATOM     11  S   UNL     1       1.032  -4.074  -0.681  0.00  0.00    -0.077 S 
BRANCH  11  16
ATOM     12  N   UNL     1       1.820  -1.887   0.873  0.00  0.00    -0.298 N 
ATOM     13  C   UNL     1       1.844  -1.579   2.214  0.00  0.00    +0.165 A 
ATOM     14  N   UNL     1       1.371  -2.622   2.857  0.00  0.00    -0.128 NA
ATOM     15  N   UNL     1       1.058  -3.547   2.022  0.00  0.00    -0.122 NA
ATOM     16  C   UNL     1       1.307  -3.149   0.793  0.00  0.00    +0.193 A 
BRANCH  13  17
ATOM     17  C   UNL     1       2.313  -0.314   2.817  0.00  0.00    +0.022 A 
ATOM     18  C   UNL     1       2.151   0.905   2.148  0.00  0.00    +0.031 A 
ATOM     19  C   UNL     1       2.603   2.062   2.747  0.00  0.00    +0.111 A 
ATOM     20  N   UNL     1       3.181   2.029   3.933  0.00  0.00    -0.263 NA
ATOM     21  C   UNL     1       3.353   0.902   4.598  0.00  0.00    +0.111 A 
ATOM     22  C   UNL     1       2.926  -0.301   4.076  0.00  0.00    +0.031 A 
ENDBRANCH  13  17
BRANCH  12  23
ATOM     23  C   UNL     1       2.250  -1.035  -0.238  0.00  0.00    +0.152 C 
BRANCH  23  25
ATOM     24  C   UNL     1       1.070   0.983  -0.942  0.00  0.00    +0.005 C 
ATOM     25  C   UNL     1       1.056  -0.321  -0.815  0.00  0.00    -0.013 C 
ENDBRANCH  23  25
ENDBRANCH  12  23
ENDBRANCH  11  16
ENDBRANCH  10  11
ENDBRANCH   1  10
BRANCH   7  26
ATOM     26  C   UNL     1      -1.795 -11.634  -4.705  0.00  0.00    +0.080 C 
BRANCH  26  27
ATOM     27  C   UNL     1      -0.634 -12.581  -4.870  0.00  0.00    -0.023 A 
ATOM     28  C   UNL     1       0.146 -12.527  -6.010  0.00  0.00    +0.025 A 
ATOM     29  C   UNL     1       1.212 -13.396  -6.160  0.00  0.00    +0.041 A 
ATOM     30  C   UNL     1       1.496 -14.320  -5.170  0.00  0.00    +0.021 A 
ATOM     31  C   UNL     1       0.716 -14.374  -4.031  0.00  0.00    +0.022 A 
ATOM     32  C   UNL     1      -0.346 -13.501  -3.878  0.00  0.00    +0.045 A 
ATOM     33 CL   UNL     1      -1.321 -13.564  -2.443  0.00  0.00    -0.083 Cl
ATOM     34 CL   UNL     1       2.191 -13.328  -7.592  0.00  0.00    -0.084 Cl
ENDBRANCH  26  27
ENDBRANCH   7  26
TORSDOF 8
