REMARK  Name = ZINC58213664
REMARK  7 active torsions:
REMARK  status: ('A' for Active; 'I' for Inactive)
REMARK    1  A    between atoms: C_6  and  N_7
REMARK    2  A    between atoms: C_8  and  C_10
REMARK    3  A    between atoms: C_10  and  N_11
REMARK    4  A    between atoms: N_14  and  C_15
REMARK    5  A    between atoms: C_15  and  C_16
REMARK    6  A    between atoms: N_20  and  C_22
REMARK    7  A    between atoms: C_22  and  C_23
REMARK                            x       y       z     vdW  Elec       q    Type
REMARK                         _______ _______ _______ _____ _____    ______ ____
ROOT
ATOM      1  N   UNL     1      -2.195  -4.261  -0.311  0.00  0.00    -0.291 N 
ATOM      2  C   UNL     1      -3.208  -5.143  -0.417  0.00  0.00    +0.300 C 
ATOM      3  O   UNL     1      -4.359  -4.750  -0.422  0.00  0.00    -0.253 OA
ATOM      4  N   UNL     1      -2.946  -6.462  -0.516  0.00  0.00    -0.299 N 
ATOM      5  H   UNL     1      -1.277  -4.575  -0.307  0.00  0.00    +0.151 HD
ATOM      6  H   UNL     1      -2.029  -6.775  -0.511  0.00  0.00    +0.150 HD
ENDROOT
BRANCH   1   7
ATOM      7  C   UNL     1      -2.480  -2.828  -0.204  0.00  0.00    +0.202 C 
BRANCH   7   9
ATOM      8  N   UNL     1      -1.200  -0.722   0.010  0.00  0.00    -0.284 N 
ATOM      9  C   UNL     1      -1.184  -2.065  -0.099  0.00  0.00    +0.234 C 
ATOM     10  O   UNL     1      -0.127  -2.660  -0.113  0.00  0.00    -0.274 OA
ATOM     11  H   UNL     1      -2.045  -0.252   0.098  0.00  0.00    +0.155 HD
BRANCH   8  17
ATOM     12  C   UNL     1       1.071  -0.454  -0.766  0.00  0.00    +0.026 A 
ATOM     13  C   UNL     1       2.256   0.256  -0.779  0.00  0.00    +0.040 A 
ATOM     14  C   UNL     1       2.378   1.416  -0.032  0.00  0.00    +0.124 A 
ATOM     15  C   UNL     1       1.312   1.866   0.730  0.00  0.00    +0.040 A 
ATOM     16  C   UNL     1       0.126   1.159   0.745  0.00  0.00    +0.026 A 
ATOM     17  C   UNL     1       0.002  -0.004  -0.004  0.00  0.00    +0.034 A 
ATOM     18  F   UNL     1       3.538   2.108  -0.045  0.00  0.00    -0.205 F 
ENDBRANCH   8  17
ENDBRANCH   7   9
ENDBRANCH   1   7
BRANCH   4  19
ATOM     19  C   UNL     1      -4.048  -7.421  -0.630  0.00  0.00    +0.107 C 
BRANCH  19  20
ATOM     20  C   UNL     1      -3.482  -8.839  -0.727  0.00  0.00    -0.012 C 
ATOM     21  C   UNL     1      -2.839  -9.264   0.613  0.00  0.00    -0.016 C 
ATOM     22  C   UNL     1      -3.232 -10.742   0.796  0.00  0.00    -0.078 C 
ATOM     23  N   UNL     1      -4.024 -11.130  -0.391  0.00  0.00    +0.386 N 
ATOM     24  C   UNL     1      -4.620  -9.872  -0.914  0.00  0.00    -0.074 C 
ATOM     25  H   UNL     1      -3.425 -11.544  -1.089  0.00  0.00    -0.081 HD
BRANCH  23  26
ATOM     26  C   UNL     1      -5.083 -12.073  -0.006  0.00  0.00    +0.036 C 
BRANCH  26  27
ATOM     27  C   UNL     1      -4.452 -13.387   0.459  0.00  0.00    +0.376 C 
ATOM     28  F   UNL     1      -3.624 -13.142   1.560  0.00  0.00    -0.173 F 
ATOM     29  F   UNL     1      -5.461 -14.284   0.825  0.00  0.00    -0.173 F 
ATOM     30  F   UNL     1      -3.696 -13.935  -0.582  0.00  0.00    -0.173 F 
ENDBRANCH  26  27
ENDBRANCH  23  26
ENDBRANCH  19  20
ENDBRANCH   4  19
TORSDOF 7
