REMARK  Name = ZINC58194049
REMARK  7 active torsions:
REMARK  status: ('A' for Active; 'I' for Inactive)
REMARK    1  A    between atoms: C_4  and  O_24
REMARK    2  A    between atoms: C_5  and  C_7
REMARK    3  A    between atoms: C_7  and  N_8
REMARK    4  A    between atoms: C_9  and  C_11
REMARK    5  A    between atoms: C_16  and  S_17
REMARK    6  A    between atoms: S_17  and  C_20
REMARK    7  A    between atoms: O_24  and  C_25
REMARK                            x       y       z     vdW  Elec       q    Type
REMARK                         _______ _______ _______ _____ _____    ______ ____
ROOT
ATOM      1  N   UNL     1       1.856  -2.894   1.129  0.00  0.00    -0.307 N 
ATOM      2  C   UNL     1       1.615  -4.166   1.503  0.00  0.00    +0.248 C 
ATOM      3  O   UNL     1       1.210  -4.973   0.689  0.00  0.00    -0.270 OA
ATOM      4  H   UNL     1       2.179  -2.251   1.778  0.00  0.00    +0.149 HD
ENDROOT
BRANCH   2   5
ATOM      5  C   UNL     1       1.844  -4.581   2.903  0.00  0.00    +0.080 A 
ATOM      6  C   UNL     1       3.069  -4.324   3.531  0.00  0.00    +0.018 A 
ATOM      7  C   UNL     1       3.231  -4.731   4.843  0.00  0.00    +0.021 A 
ATOM      8  C   UNL     1       2.189  -5.374   5.487  0.00  0.00    +0.113 A 
ATOM      9  N   UNL     1       1.045  -5.603   4.870  0.00  0.00    -0.236 NA
ATOM     10  C   UNL     1       0.840  -5.229   3.624  0.00  0.00    +0.198 A 
BRANCH  10  11
ATOM     11  S   UNL     1      -0.712  -5.557   2.858  0.00  0.00    +0.109 S 
ATOM     12  O   UNL     1      -1.643  -5.604   3.930  0.00  0.00    -0.160 OA
ATOM     13  O   UNL     1      -0.829  -4.573   1.840  0.00  0.00    -0.160 OA
BRANCH  11  14
ATOM     14  C   UNL     1      -0.528  -7.203   2.117  0.00  0.00    +0.528 C 
ATOM     15  F   UNL     1      -0.238  -8.136   3.119  0.00  0.00    -0.150 F 
ATOM     16  F   UNL     1      -1.719  -7.562   1.477  0.00  0.00    -0.150 F 
ATOM     17  F   UNL     1       0.515  -7.181   1.185  0.00  0.00    -0.150 F 
ENDBRANCH  11  14
ENDBRANCH  10  11
ENDBRANCH   2   5
BRANCH   1  18
ATOM     18  C   UNL     1       1.630  -2.483  -0.259  0.00  0.00    +0.143 C 
BRANCH  18  23
ATOM     19  C   UNL     1       1.282   1.264  -0.562  0.00  0.00    +0.001 A 
ATOM     20  C   UNL     1       2.600   1.657  -0.698  0.00  0.00    +0.004 A 
ATOM     21  C   UNL     1       3.608   0.712  -0.692  0.00  0.00    +0.046 A 
ATOM     22  C   UNL     1       3.296  -0.632  -0.550  0.00  0.00    +0.135 A 
ATOM     23  C   UNL     1       1.972  -1.024  -0.414  0.00  0.00    +0.012 A 
ATOM     24  C   UNL     1       0.968  -0.075  -0.420  0.00  0.00    +0.009 A 
BRANCH  22  25
ATOM     25  O   UNL     1       4.286  -1.564  -0.545  0.00  0.00    -0.405 OA
BRANCH  25  26
ATOM     26  C   UNL     1       5.625  -1.088  -0.691  0.00  0.00    +0.575 C 
ATOM     27  F   UNL     1       5.926  -0.214   0.359  0.00  0.00    -0.133 F 
ATOM     28  F   UNL     1       6.510  -2.171  -0.664  0.00  0.00    -0.133 F 
ATOM     29  F   UNL     1       5.750  -0.413  -1.910  0.00  0.00    -0.133 F 
ENDBRANCH  25  26
ENDBRANCH  22  25
ENDBRANCH  18  23
ENDBRANCH   1  18
TORSDOF 7
