REMARK  Name = ZINC13494845
REMARK  17 active torsions:
REMARK  status: ('A' for Active; 'I' for Inactive)
REMARK    1  A    between atoms: C_1  and  C_2
REMARK    2  A    between atoms: C_2  and  C_3
REMARK    3  A    between atoms: C_3  and  C_5
REMARK    4  A    between atoms: C_3  and  N_15
REMARK    5  A    between atoms: N_9  and  C_10
REMARK    6  A    between atoms: C_10  and  C_11
REMARK    7  A    between atoms: C_10  and  C_12
REMARK    8  A    between atoms: C_10  and  C_13
REMARK    9  A    between atoms: C_13  and  C_14
REMARK   10  A    between atoms: N_15  and  C_16
REMARK   11  A    between atoms: N_15  and  C_24
REMARK   12  A    between atoms: C_16  and  C_17
REMARK   13  A    between atoms: C_20  and  C_23
REMARK   14  A    between atoms: C_24  and  C_25
REMARK   15  A    between atoms: C_29  and  O_37
REMARK   16  A    between atoms: O_37  and  C_38
REMARK   17  A    between atoms: C_38  and  C_39
REMARK                            x       y       z     vdW  Elec       q    Type
REMARK                         _______ _______ _______ _____ _____    ______ ____
ROOT
ATOM      1  N   UNL     1      -2.706   0.490  -1.528  0.00  0.00    -0.284 NA
ENDROOT
BRANCH   1   2
ATOM      2  C   UNL     1      -2.302  -0.641  -0.681  0.00  0.00    +0.127 C 
BRANCH   2   3
ATOM      3  C   UNL     1      -0.808  -0.819  -0.760  0.00  0.00    +0.169 A 
ATOM      4  N   UNL     1       0.086   0.128  -0.911  0.00  0.00    -0.112 NA
ATOM      5  N   UNL     1       1.250  -0.424  -0.932  0.00  0.00    -0.023 NA
ATOM      6  N   UNL     1       1.122  -1.698  -0.799  0.00  0.00    -0.043 NA
ATOM      7  N   UNL     1      -0.132  -1.980  -0.685  0.00  0.00    -0.222 N 
BRANCH   7   8
ATOM      8  C   UNL     1      -0.711  -3.314  -0.509  0.00  0.00    +0.061 C 
ATOM      9  C   UNL     1      -1.635  -3.313   0.711  0.00  0.00    +0.036 C 
ATOM     10  C   UNL     1      -1.514  -3.690  -1.756  0.00  0.00    +0.036 C 
BRANCH   8  11
ATOM     11  C   UNL     1       0.410  -4.334  -0.299  0.00  0.00    +0.026 C 
ATOM     12  C   UNL     1      -0.195  -5.727  -0.116  0.00  0.00    +0.006 C 
ENDBRANCH   8  11
ENDBRANCH   7   8
ENDBRANCH   2   3
BRANCH   2  14
ATOM     13  C   UNL     1      -4.223  -0.179   0.849  0.00  0.00    +0.006 C 
ATOM     14  C   UNL     1      -2.707  -0.362   0.768  0.00  0.00    +0.023 C 
ENDBRANCH   2  14
ENDBRANCH   1   2
BRANCH   1  15
ATOM     15  C   UNL     1      -4.088   0.327  -2.000  0.00  0.00    +0.120 C 
BRANCH  15  16
ATOM     16  C   UNL     1      -4.331   1.246  -3.168  0.00  0.00    -0.033 A 
ATOM     17  C   UNL     1      -4.859   2.507  -2.958  0.00  0.00    +0.005 A 
ATOM     18  C   UNL     1      -5.083   3.350  -4.030  0.00  0.00    +0.003 A 
ATOM     19  C   UNL     1      -4.777   2.934  -5.312  0.00  0.00    -0.050 A 
ATOM     20  C   UNL     1      -4.248   1.674  -5.523  0.00  0.00    +0.003 A 
ATOM     21  C   UNL     1      -4.021   0.832  -4.450  0.00  0.00    +0.005 A 
ATOM     22  C   UNL     1      -5.022   3.853  -6.481  0.00  0.00    +0.044 C 
ENDBRANCH  15  16
ENDBRANCH   1  15
BRANCH   1  23
ATOM     23  C   UNL     1      -2.540   1.765  -0.818  0.00  0.00    +0.126 C 
BRANCH  23  24
ATOM     24  C   UNL     1      -1.105   2.215  -0.922  0.00  0.00    +0.031 A 
ATOM     25  C   UNL     1      -0.653   2.766  -2.075  0.00  0.00    +0.020 A 
ATOM     26  C   UNL     1       0.746   3.193  -2.146  0.00  0.00    +0.002 A 
ATOM     27  C   UNL     1       1.268   3.769  -3.309  0.00  0.00    +0.055 A 
ATOM     28  C   UNL     1       2.591   4.160  -3.341  0.00  0.00    +0.121 A 
ATOM     29  C   UNL     1       3.403   3.985  -2.223  0.00  0.00    +0.047 A 
ATOM     30  C   UNL     1       2.901   3.419  -1.072  0.00  0.00    +0.030 A 
ATOM     31  C   UNL     1       1.570   3.017  -1.018  0.00  0.00    +0.049 A 
ATOM     32  N   UNL     1       1.048   2.449   0.126  0.00  0.00    -0.322 N 
ATOM     33  H   UNL     1       1.617   2.329   0.902  0.00  0.00    +0.169 HD
ATOM     34  C   UNL     1      -0.239   2.066   0.182  0.00  0.00    +0.254 A 
ATOM     35  O   UNL     1      -0.668   1.572   1.211  0.00  0.00    -0.268 OA
BRANCH  28  36
ATOM     36  O   UNL     1       3.104   4.720  -4.468  0.00  0.00    -0.492 OA
BRANCH  36  37
ATOM     37  C   UNL     1       4.480   5.103  -4.434  0.00  0.00    +0.225 C 
ATOM     38  C   UNL     1       4.874   5.709  -5.783  0.00  0.00    +0.048 C 
ENDBRANCH  36  37
ENDBRANCH  28  36
ENDBRANCH  23  24
ENDBRANCH   1  23
TORSDOF 11
