REMARK  Name = ZINC22853983
REMARK  10 active torsions:
REMARK  status: ('A' for Active; 'I' for Inactive)
REMARK    1  A    between atoms: C_1  and  C_2
REMARK    2  A    between atoms: C_2  and  C_3
REMARK    3  A    between atoms: C_9  and  C_11
REMARK    4  A    between atoms: C_11  and  C_13
REMARK    5  A    between atoms: C_11  and  N_22
REMARK    6  A    between atoms: C_16  and  O_19
REMARK    7  A    between atoms: O_19  and  C_20
REMARK    8  A    between atoms: C_20  and  C_21
REMARK    9  A    between atoms: C_24  and  C_31
REMARK   10  A    between atoms: C_27  and  C_30
REMARK                            x       y       z     vdW  Elec       q    Type
REMARK                         _______ _______ _______ _____ _____    ______ ____
ROOT
ATOM      1  C   UNL     1       2.896  -2.477   6.417  0.00  0.00    +0.006 C 
ENDROOT
BRANCH   1   8
ATOM      2  C   UNL     1       0.731  -0.503   1.223  0.00  0.00    +0.152 A 
ATOM      3  N   UNL     1       2.039  -0.738   1.297  0.00  0.00    -0.205 NA
ATOM      4  C   UNL     1       2.334  -1.160   2.497  0.00  0.00    +0.199 A 
ATOM      5  N   UNL     1       1.204  -1.214   3.253  0.00  0.00    -0.170 N 
ATOM      6  N   UNL     1       0.180  -0.769   2.377  0.00  0.00    -0.146 NA
ATOM      7  C   UNL     1       1.335  -1.642   4.552  0.00  0.00    +0.282 A 
ATOM      8  C   UNL     1       2.533  -1.988   5.038  0.00  0.00    +0.050 A 
ATOM      9  S   UNL     1       3.590  -1.715   3.624  0.00  0.00    -0.050 S 
ATOM     10  O   UNL     1       0.237  -1.716   5.352  0.00  0.00    -0.265 OA
BRANCH   2  12
ATOM     11  C   UNL     1      -0.019   1.526   0.010  0.00  0.00    +0.012 C 
ATOM     12  C   UNL     1       0.002  -0.004   0.002  0.00  0.00    +0.075 C 
ENDBRANCH   2  12
ENDBRANCH   1   8
BRANCH   1  13
ATOM     13  N   UNL     1       3.948  -1.619   6.979  0.00  0.00    +0.388 N 
ATOM     14  C   UNL     1       4.306  -2.102   8.318  0.00  0.00    -0.074 C 
ATOM     15  C   UNL     1       5.458  -1.263   8.876  0.00  0.00    -0.031 C 
ATOM     16  C   UNL     1       5.020   0.202   8.960  0.00  0.00    +0.003 C 
ATOM     17  C   UNL     1       4.578   0.673   7.571  0.00  0.00    -0.031 C 
ATOM     18  C   UNL     1       3.459  -0.238   7.062  0.00  0.00    -0.074 C 
ATOM     19  C   UNL     1       4.067   2.112   7.659  0.00  0.00    +0.005 C 
ATOM     20  C   UNL     1       5.828  -1.767  10.272  0.00  0.00    +0.005 C 
ATOM     21  H   UNL     1       4.761  -1.652   6.383  0.00  0.00    -0.080 HD
ENDBRANCH   1  13
BRANCH   1  22
ATOM     22  C   UNL     1       3.396  -3.896   6.331  0.00  0.00    -0.056 A 
ATOM     23  C   UNL     1       4.699  -4.146   5.942  0.00  0.00    +0.006 A 
ATOM     24  C   UNL     1       5.160  -5.446   5.863  0.00  0.00    +0.046 A 
ATOM     25  C   UNL     1       4.314  -6.500   6.173  0.00  0.00    +0.121 A 
ATOM     26  C   UNL     1       3.007  -6.247   6.564  0.00  0.00    +0.046 A 
ATOM     27  C   UNL     1       2.553  -4.945   6.647  0.00  0.00    +0.006 A 
BRANCH  25  28
ATOM     28  O   UNL     1       4.765  -7.780   6.096  0.00  0.00    -0.492 OA
BRANCH  28  29
ATOM     29  C   UNL     1       3.838  -8.816   6.430  0.00  0.00    +0.225 C 
ATOM     30  C   UNL     1       4.521 -10.177   6.284  0.00  0.00    +0.048 C 
ENDBRANCH  28  29
ENDBRANCH  25  28
ENDBRANCH   1  22
TORSDOF 6
