REMARK  Name = ZINC09356381
REMARK  8 active torsions:
REMARK  status: ('A' for Active; 'I' for Inactive)
REMARK    1  A    between atoms: C_1  and  C_2
REMARK    2  A    between atoms: C_2  and  C_37
REMARK    3  A    between atoms: C_6  and  C_28
REMARK    4  A    between atoms: N_8  and  C_16
REMARK    5  A    between atoms: C_16  and  C_17
REMARK    6  A    between atoms: N_19  and  C_20
REMARK    7  A    between atoms: C_20  and  C_21
REMARK    8  A    between atoms: C_21  and  C_22
REMARK                            x       y       z     vdW  Elec       q    Type
REMARK                         _______ _______ _______ _____ _____    ______ ____
ROOT
ATOM      1  C   UNL     1       0.037   1.735   0.413  0.00  0.00    +0.011 C 
ATOM      2  C   UNL     1      -0.008   0.210   0.535  0.00  0.00    -0.023 C 
ATOM      3  C   UNL     1       0.574  -0.427  -0.725  0.00  0.00    +0.058 C 
ATOM      4  C   UNL     1       2.014   0.022  -0.914  0.00  0.00    +0.017 C 
ATOM      5  C   UNL     1       2.795   0.266   0.152  0.00  0.00    +0.037 C 
ATOM      6  C   UNL     1       4.243   0.694   0.111  0.00  0.00    +0.139 C 
ATOM      7  N   UNL     1       4.711   1.095  -1.199  0.00  0.00    -0.308 N 
ATOM      8  C   UNL     1       4.776   0.183  -2.251  0.00  0.00    +0.052 A 
ATOM      9  C   UNL     1       5.987  -0.189  -2.813  0.00  0.00    +0.025 A 
ATOM     10  C   UNL     1       6.005  -1.132  -3.826  0.00  0.00    +0.002 A 
ATOM     11  C   UNL     1       4.827  -1.703  -4.273  0.00  0.00    +0.002 A 
ATOM     12  C   UNL     1       3.614  -1.321  -3.724  0.00  0.00    +0.025 A 
ATOM     13  C   UNL     1       3.593  -0.363  -2.726  0.00  0.00    +0.052 A 
ATOM     14  N   UNL     1       2.406   0.142  -2.207  0.00  0.00    -0.316 N 
ATOM     15  C   UNL     1       2.273   0.139   1.461  0.00  0.00    +0.163 C 
ATOM     16  O   UNL     1       3.008   0.347   2.407  0.00  0.00    -0.292 OA
ATOM     17  C   UNL     1       0.848  -0.241   1.725  0.00  0.00    +0.086 C 
ATOM     18  C   UNL     1      -1.453  -0.251   0.731  0.00  0.00    +0.011 C 
ATOM     19  H   UNL     1       1.814   0.613  -2.815  0.00  0.00    +0.152 HD
ENDROOT
BRANCH   6  20
ATOM     20  C   UNL     1       5.094  -0.454   0.589  0.00  0.00    -0.023 A 
ATOM     21  C   UNL     1       5.840  -0.326   1.745  0.00  0.00    +0.006 A 
ATOM     22  C   UNL     1       6.622  -1.379   2.184  0.00  0.00    +0.000 A 
ATOM     23  C   UNL     1       6.656  -2.560   1.466  0.00  0.00    +0.000 A 
ATOM     24  C   UNL     1       5.909  -2.688   0.310  0.00  0.00    +0.000 A 
ATOM     25  C   UNL     1       5.125  -1.637  -0.127  0.00  0.00    +0.006 A 
ENDBRANCH   6  20
BRANCH   7  26
ATOM     26  C   UNL     1       5.124   2.483  -1.422  0.00  0.00    +0.201 C 
BRANCH  26  27
ATOM     27  C   UNL     1       6.595   2.623  -1.126  0.00  0.00    +0.230 C 
ATOM     28  O   UNL     1       7.235   1.659  -0.763  0.00  0.00    -0.274 OA
ATOM     29  N   UNL     1       7.199   3.821  -1.263  0.00  0.00    -0.314 N 
ATOM     30  H   UNL     1       6.686   4.592  -1.553  0.00  0.00    +0.149 HD
BRANCH  29  31
ATOM     31  C   UNL     1       8.629   3.957  -0.975  0.00  0.00    +0.110 C 
BRANCH  31  32
ATOM     32  C   UNL     1       9.059   5.407  -1.208  0.00  0.00    +0.073 C 
BRANCH  32  33
ATOM     33  C   UNL     1      10.530   5.547  -0.911  0.00  0.00    +0.035 A 
ATOM     34  C   UNL     1      11.076   5.758   0.301  0.00  0.00    +0.105 A 
ATOM     35  N   UNL     1      12.432   5.821   0.120  0.00  0.00    -0.352 N 
ATOM     36  H   UNL     1      13.099   5.965   0.809  0.00  0.00    +0.166 HD
ATOM     37  C   UNL     1      12.667   5.647  -1.199  0.00  0.00    +0.171 A 
ATOM     38  N   UNL     1      11.525   5.479  -1.808  0.00  0.00    -0.350 N 
ATOM     39  H   UNL     1      11.414   5.329  -2.760  0.00  0.00    +0.166 HD
ENDBRANCH  32  33
ENDBRANCH  31  32
ENDBRANCH  29  31
ENDBRANCH  26  27
ENDBRANCH   7  26
TORSDOF 6
