REMARK  Name = ZINC08826779
REMARK  16 active torsions:
REMARK  status: ('A' for Active; 'I' for Inactive)
REMARK    1  A    between atoms: C_1  and  C_2
REMARK    2  A    between atoms: C_2  and  C_3
REMARK    3  A    between atoms: C_2  and  O_4
REMARK    4  A    between atoms: O_4  and  C_5
REMARK    5  A    between atoms: C_8  and  C_11
REMARK    6  A    between atoms: C_13  and  C_23
REMARK    7  A    between atoms: C_14  and  O_22
REMARK    8  A    between atoms: N_17  and  C_18
REMARK    9  A    between atoms: C_18  and  C_19
REMARK   10  A    between atoms: C_19  and  N_66
REMARK   11  A    between atoms: C_20  and  N_66
REMARK   12  A    between atoms: C_21  and  N_66
REMARK   13  A    between atoms: C_23  and  C_25
REMARK   14  A    between atoms: C_28  and  O_31
REMARK   15  A    between atoms: O_31  and  C_32
REMARK   16  A    between atoms: C_32  and  C_33
REMARK                            x       y       z     vdW  Elec       q    Type
REMARK                         _______ _______ _______ _____ _____    ______ ____
ROOT
ATOM      1  C   UNL     1      -0.778  -1.044   3.591  0.00  0.00    +0.144 C 
ATOM      2  C   UNL     1      -0.143  -0.806   4.941  0.00  0.00    +0.071 C 
ATOM      3  C   UNL     1       0.408   0.429   4.901  0.00  0.00    +0.188 C 
ATOM      4  C   UNL     1       0.169   1.024   3.570  0.00  0.00    +0.282 C 
ATOM      5  O   UNL     1       0.542   2.127   3.222  0.00  0.00    -0.267 OA
ATOM      6  N   UNL     1      -0.522   0.165   2.800  0.00  0.00    -0.285 N 
ENDROOT
BRANCH   1  10
ATOM      7  C   UNL     1       1.012  -4.439   1.712  0.00  0.00    +0.121 A 
ATOM      8  C   UNL     1      -0.313  -4.489   2.120  0.00  0.00    +0.046 A 
ATOM      9  C   UNL     1      -0.889  -3.390   2.727  0.00  0.00    +0.009 A 
ATOM     10  C   UNL     1      -0.147  -2.241   2.928  0.00  0.00    -0.022 A 
ATOM     11  C   UNL     1       1.173  -2.187   2.518  0.00  0.00    +0.009 A 
ATOM     12  C   UNL     1       1.755  -3.285   1.915  0.00  0.00    +0.046 A 
BRANCH   7  13
ATOM     13  O   UNL     1       1.582  -5.519   1.114  0.00  0.00    -0.489 OA
BRANCH  13  15
ATOM     14  C   UNL     1      -0.090  -6.663  -0.204  0.00  0.00    +0.051 C 
ATOM     15  C   UNL     1       0.796  -6.710   1.043  0.00  0.00    +0.167 C 
ATOM     16  C   UNL     1       1.720  -7.927   0.965  0.00  0.00    +0.051 C 
ENDBRANCH  13  15
ENDBRANCH   7  13
ENDBRANCH   1  10
BRANCH   3  17
ATOM     17  O   UNL     1       1.073   1.025   5.918  0.00  0.00    -0.502 OA
ATOM     18  H   UNL     1       1.379   1.932   5.630  0.00  0.00    +0.292 HD
ENDBRANCH   3  17
BRANCH   2  19
ATOM     19  C   UNL     1      -0.130  -1.733   6.078  0.00  0.00    +0.195 C 
ATOM     20  O   UNL     1       0.922  -2.202   6.469  0.00  0.00    -0.287 OA
BRANCH  19  21
ATOM     21  C   UNL     1      -1.394  -2.096   6.748  0.00  0.00    +0.022 A 
ATOM     22  C   UNL     1      -2.608  -1.581   6.281  0.00  0.00    +0.015 A 
ATOM     23  C   UNL     1      -3.785  -1.927   6.905  0.00  0.00    +0.046 A 
ATOM     24  C   UNL     1      -3.768  -2.778   8.005  0.00  0.00    +0.121 A 
ATOM     25  C   UNL     1      -2.562  -3.287   8.476  0.00  0.00    +0.046 A 
ATOM     26  C   UNL     1      -1.381  -2.951   7.854  0.00  0.00    +0.015 A 
BRANCH  24  27
ATOM     27  O   UNL     1      -4.929  -3.111   8.621  0.00  0.00    -0.488 OA
BRANCH  27  28
ATOM     28  C   UNL     1      -6.131  -2.553   8.086  0.00  0.00    +0.256 C 
BRANCH  28  29
ATOM     29  C   UNL     1      -7.310  -3.032   8.893  0.00  0.00    +0.006 C 
ATOM     30  C   UNL     1      -8.240  -2.185   9.261  0.00  0.00    +0.007 C 
ENDBRANCH  28  29
ENDBRANCH  27  28
ENDBRANCH  24  27
ENDBRANCH  19  21
ENDBRANCH   2  19
BRANCH   6  31
ATOM     31  C   UNL     1      -0.948   0.396   1.417  0.00  0.00    +0.090 C 
BRANCH  31  32
ATOM     32  C   UNL     1       0.141  -0.091   0.459  0.00  0.00    -0.060 C 
BRANCH  32  35
ATOM     33  C   UNL     1       0.617  -0.522  -1.875  0.00  0.00    -0.097 C 
ATOM     34  C   UNL     1      -0.387   1.579  -1.213  0.00  0.00    -0.097 C 
ATOM     35  N   UNL     1      -0.313   0.130  -0.930  0.00  0.00    +0.377 N 
ATOM     36  H   UNL     1      -1.248  -0.280  -1.045  0.00  0.00    -0.083 HD
ENDBRANCH  32  35
ENDBRANCH  31  32
ENDBRANCH   6  31
TORSDOF 12
