REMARK  Name = ZINC13141205
REMARK  14 active torsions:
REMARK  status: ('A' for Active; 'I' for Inactive)
REMARK    1  A    between atoms: C_1  and  C_2
REMARK    2  A    between atoms: C_2  and  C_3
REMARK    3  A    between atoms: C_2  and  C_4
REMARK    4  A    between atoms: C_7  and  S_10
REMARK    5  A    between atoms: S_10  and  N_13
REMARK    6  A    between atoms: C_16  and  C_19
REMARK    7  A    between atoms: N_21  and  C_22
REMARK    8  A    between atoms: C_24  and  O_34
REMARK    9  A    between atoms: C_25  and  O_32
REMARK   10  A    between atoms: C_27  and  C_28
REMARK   11  A    between atoms: C_28  and  O_30
REMARK   12  A    between atoms: O_30  and  C_31
REMARK   13  A    between atoms: O_32  and  C_33
REMARK   14  A    between atoms: O_34  and  C_35
REMARK                            x       y       z     vdW  Elec       q    Type
REMARK                         _______ _______ _______ _____ _____    ______ ____
ROOT
ATOM      1  N   UNL     1       1.150   4.300   1.589  0.00  0.00    -0.177 NA
ATOM      2  C   UNL     1      -0.113   4.499   2.312  0.00  0.00    +0.110 C 
ATOM      3  C   UNL     1      -0.069   3.675   3.609  0.00  0.00    +0.030 C 
ATOM      4  C   UNL     1       1.179   4.059   4.407  0.00  0.00    +0.078 C 
ATOM      5  C   UNL     1       2.431   3.734   3.588  0.00  0.00    +0.030 C 
ATOM      6  C   UNL     1       2.415   4.553   2.293  0.00  0.00    +0.110 C 
ENDROOT
BRANCH   4   7
ATOM      7  C   UNL     1       1.208   3.281   5.698  0.00  0.00    +0.220 C 
ATOM      8  O   UNL     1       2.138   2.541   5.939  0.00  0.00    -0.275 OA
ATOM      9  N   UNL     1       0.201   3.409   6.584  0.00  0.00    -0.284 N 
ATOM     10  H   UNL     1      -0.501   4.060   6.430  0.00  0.00    +0.155 HD
BRANCH   9  11
ATOM     11  C   UNL     1       0.169   2.605   7.723  0.00  0.00    +0.051 A 
ATOM     12  C   UNL     1       0.804   1.373   7.722  0.00  0.00    +0.073 A 
ATOM     13  C   UNL     1       0.775   0.576   8.855  0.00  0.00    +0.163 A 
ATOM     14  C   UNL     1       0.099   1.004   9.999  0.00  0.00    +0.162 A 
ATOM     15  C   UNL     1      -0.541   2.225  10.010  0.00  0.00    +0.066 A 
ATOM     16  C   UNL     1      -0.513   3.038   8.871  0.00  0.00    +0.084 A 
BRANCH  16  17
ATOM     17  C   UNL     1      -1.194   4.342   8.878  0.00  0.00    +0.341 C 
ATOM     18  O   UNL     1      -1.246   5.006   7.861  0.00  0.00    -0.245 OA
BRANCH  17  19
ATOM     19  O   UNL     1      -1.762   4.800  10.011  0.00  0.00    -0.464 OA
ATOM     20  C   UNL     1      -2.417   6.094   9.944  0.00  0.00    +0.280 C 
ENDBRANCH  17  19
ENDBRANCH  16  17
BRANCH  14  21
ATOM     21  O   UNL     1       0.071   0.213  11.106  0.00  0.00    -0.491 OA
ATOM     22  C   UNL     1      -0.639   0.711  12.241  0.00  0.00    +0.277 C 
ENDBRANCH  14  21
BRANCH  13  23
ATOM     23  O   UNL     1       1.404  -0.628   8.851  0.00  0.00    -0.491 OA
ATOM     24  C   UNL     1       2.077  -1.004   7.648  0.00  0.00    +0.277 C 
ENDBRANCH  13  23
ENDBRANCH   9  11
ENDBRANCH   4   7
BRANCH   1  25
ATOM     25  S   UNL     1       1.149   3.806   0.009  0.00  0.00    +0.061 S 
ATOM     26  O   UNL     1       2.380   4.240  -0.554  0.00  0.00    -0.153 OA
ATOM     27  O   UNL     1      -0.110   4.181  -0.533  0.00  0.00    -0.153 OA
BRANCH  25  31
ATOM     28  C   UNL     1       1.257  -0.720   0.019  0.00  0.00    -0.045 A 
ATOM     29  C   UNL     1       0.043  -0.057   0.028  0.00  0.00    +0.006 A 
ATOM     30  C   UNL     1       0.011   1.325   0.025  0.00  0.00    +0.029 A 
ATOM     31  C   UNL     1       1.191   2.044   0.013  0.00  0.00    +0.105 A 
ATOM     32  C   UNL     1       2.404   1.382   0.003  0.00  0.00    +0.029 A 
ATOM     33  C   UNL     1       2.437  -0.000   0.007  0.00  0.00    +0.006 A 
BRANCH  28  35
ATOM     34  C   UNL     1       2.014  -2.723  -1.231  0.00  0.00    +0.012 C 
ATOM     35  C   UNL     1       1.292  -2.226   0.023  0.00  0.00    +0.013 C 
ATOM     36  C   UNL     1       2.037  -2.715   1.268  0.00  0.00    +0.012 C 
ENDBRANCH  28  35
ENDBRANCH  25  31
ENDBRANCH   1  25
TORSDOF 9
