REMARK  Name = ZINC35438101
REMARK  9 active torsions:
REMARK  status: ('A' for Active; 'I' for Inactive)
REMARK    1  A    between atoms: C_4  and  C_7
REMARK    2  A    between atoms: C_7  and  N_8
REMARK    3  A    between atoms: C_9  and  C_11
REMARK    4  A    between atoms: C_11  and  C_12
REMARK    5  A    between atoms: C_12  and  C_14
REMARK    6  A    between atoms: C_12  and  C_23
REMARK    7  A    between atoms: C_31  and  O_32
REMARK    8  A    between atoms: O_32  and  C_33
REMARK    9  A    between atoms: C_33  and  C_34
REMARK                            x       y       z     vdW  Elec       q    Type
REMARK                         _______ _______ _______ _____ _____    ______ ____
ROOT
ATOM      1  C   UNL     1       7.099  -2.600   2.966  0.00  0.00    +0.076 C 
ENDROOT
BRANCH   1   2
ATOM      2  C   UNL     1       8.160  -1.718   2.359  0.00  0.00    -0.034 A 
ATOM      3  C   UNL     1       8.468  -0.505   2.946  0.00  0.00    +0.008 A 
ATOM      4  C   UNL     1       9.441   0.307   2.393  0.00  0.00    +0.050 A 
ATOM      5  C   UNL     1      10.109  -0.093   1.248  0.00  0.00    +0.166 A 
ATOM      6  C   UNL     1       9.799  -1.315   0.656  0.00  0.00    +0.167 A 
ATOM      7  C   UNL     1       8.827  -2.127   1.219  0.00  0.00    +0.053 A 
ATOM      8  O   UNL     1      10.586  -1.478  -0.447  0.00  0.00    -0.453 OA
ATOM      9  C   UNL     1      11.091  -0.166  -0.757  0.00  0.00    +0.466 C 
ATOM     10  O   UNL     1      11.091   0.509   0.515  0.00  0.00    -0.453 OA
ENDBRANCH   1   2
BRANCH   1  11
ATOM     11  C   UNL     1       7.492  -2.960   4.376  0.00  0.00    +0.051 A 
ATOM     12  C   UNL     1       7.257  -2.227   5.486  0.00  0.00    +0.135 A 
ATOM     13  N   UNL     1       7.755  -2.878   6.540  0.00  0.00    -0.232 NA
ATOM     14  C   UNL     1       8.303  -4.013   6.130  0.00  0.00    +0.180 A 
ATOM     15  N   UNL     1       8.148  -4.093   4.771  0.00  0.00    -0.300 N 
ATOM     16  C   UNL     1       8.620  -5.175   4.083  0.00  0.00    +0.093 A 
ATOM     17  C   UNL     1       9.245  -6.183   4.727  0.00  0.00    +0.022 A 
ATOM     18  C   UNL     1       9.418  -6.134   6.120  0.00  0.00    +0.051 A 
ATOM     19  C   UNL     1       8.960  -5.057   6.821  0.00  0.00    +0.164 A 
BRANCH  19  20
ATOM     20  O   UNL     1       9.118  -4.995   8.169  0.00  0.00    -0.484 OA
BRANCH  20  21
ATOM     21  C   UNL     1       9.792  -6.090   8.794  0.00  0.00    +0.264 C 
BRANCH  21  22
ATOM     22  C   UNL     1       9.873  -5.848  10.279  0.00  0.00    -0.010 A 
ATOM     23  C   UNL     1      10.955  -5.172  10.811  0.00  0.00    +0.007 A 
ATOM     24  C   UNL     1      11.029  -4.950  12.174  0.00  0.00    +0.000 A 
ATOM     25  C   UNL     1      10.022  -5.404  13.004  0.00  0.00    +0.000 A 
ATOM     26  C   UNL     1       8.940  -6.080  12.471  0.00  0.00    +0.000 A 
ATOM     27  C   UNL     1       8.863  -6.298  11.108  0.00  0.00    +0.007 A 
ENDBRANCH  21  22
ENDBRANCH  20  21
ENDBRANCH  19  20
ENDBRANCH   1  11
BRANCH   1  28
ATOM     28  C   UNL     1       5.764  -1.853   2.984  0.00  0.00    +0.110 C 
BRANCH  28  30
ATOM     29  N   UNL     1       4.152  -0.952   1.338  0.00  0.00    -0.311 N 
ATOM     30  C   UNL     1       5.311  -1.601   1.569  0.00  0.00    +0.214 C 
ATOM     31  O   UNL     1       5.989  -1.981   0.638  0.00  0.00    -0.276 OA
ATOM     32  H   UNL     1       3.610  -0.648   2.082  0.00  0.00    +0.149 HD
BRANCH  29  33
ATOM     33  C   UNL     1       3.711  -0.707  -0.038  0.00  0.00    +0.139 C 
BRANCH  33  37
ATOM     34  C   UNL     1      -0.017   1.378   0.010  0.00  0.00    +0.000 A 
ATOM     35  C   UNL     1       1.171   2.086   0.002  0.00  0.00    +0.000 A 
ATOM     36  C   UNL     1       2.377   1.411  -0.013  0.00  0.00    +0.005 A 
ATOM     37  C   UNL     1       2.396   0.029  -0.020  0.00  0.00    -0.030 A 
ATOM     38  C   UNL     1       1.208  -0.679  -0.012  0.00  0.00    +0.005 A 
ATOM     39  C   UNL     1       0.002  -0.004   0.002  0.00  0.00    +0.000 A 
ENDBRANCH  33  37
ENDBRANCH  29  33
ENDBRANCH  28  30
ENDBRANCH   1  28
TORSDOF 9
