REMARK  Name = ZINC59170718
REMARK  7 active torsions:
REMARK  status: ('A' for Active; 'I' for Inactive)
REMARK    1  A    between atoms: C_1  and  C_2
REMARK    2  A    between atoms: C_5  and  S_8
REMARK    3  A    between atoms: S_8  and  N_11
REMARK    4  A    between atoms: N_11  and  N_12
REMARK    5  A    between atoms: C_14  and  C_23
REMARK    6  A    between atoms: N_25  and  C_26
REMARK    7  A    between atoms: C_30  and  N_32
REMARK                            x       y       z     vdW  Elec       q    Type
REMARK                         _______ _______ _______ _____ _____    ______ ____
ROOT
ATOM      1  N   UNL     1       2.331  -3.849   0.161  0.00  0.00    -0.260 N 
ATOM      2  C   UNL     1       3.490  -4.568   0.219  0.00  0.00    +0.225 A 
ATOM      3  C   UNL     1       4.229  -4.566   1.401  0.00  0.00    +0.099 A 
ATOM      4  C   UNL     1       5.429  -5.301   1.484  0.00  0.00    +0.030 A 
ATOM      5  C   UNL     1       5.841  -6.019   0.354  0.00  0.00    +0.018 A 
ATOM      6  C   UNL     1       7.025  -6.780   0.349  0.00  0.00    +0.011 A 
ATOM      7  C   UNL     1       7.379  -7.460  -0.776  0.00  0.00    +0.001 A 
ATOM      8  C   UNL     1       6.592  -7.419  -1.925  0.00  0.00    +0.004 A 
ATOM      9  C   UNL     1       5.426  -6.692  -1.975  0.00  0.00    +0.047 A 
ATOM     10  C   UNL     1       5.013  -5.976  -0.854  0.00  0.00    +0.137 A 
ATOM     11  O   UNL     1       3.880  -5.258  -0.858  0.00  0.00    -0.437 OA
ATOM     12  H   UNL     1       1.996  -3.404   0.955  0.00  0.00    +0.189 HD
ENDROOT
BRANCH   3  13
ATOM     13  C   UNL     1       3.753  -3.790   2.570  0.00  0.00    +0.253 C 
ATOM     14  O   UNL     1       2.890  -4.248   3.293  0.00  0.00    -0.270 OA
ATOM     15  N   UNL     1       4.276  -2.576   2.831  0.00  0.00    -0.281 N 
ATOM     16  H   UNL     1       4.896  -2.170   2.206  0.00  0.00    +0.155 HD
BRANCH  15  17
ATOM     17  C   UNL     1       3.926  -1.902   4.005  0.00  0.00    +0.036 A 
ATOM     18  C   UNL     1       3.646  -2.618   5.162  0.00  0.00    +0.023 A 
ATOM     19  C   UNL     1       3.300  -1.948   6.319  0.00  0.00    +0.004 A 
ATOM     20  C   UNL     1       3.232  -0.567   6.327  0.00  0.00    +0.033 A 
ATOM     21  C   UNL     1       3.510   0.149   5.177  0.00  0.00    +0.128 A 
ATOM     22  C   UNL     1       3.862  -0.514   4.017  0.00  0.00    +0.056 A 
BRANCH  21  23
ATOM     23  N   UNL     1       3.435   1.627   5.190  0.00  0.00    +0.056 N 
ATOM     24  O   UNL     1       3.105   2.260   6.297  0.00  0.00    -0.126 OA
ATOM     25  O   UNL     1       3.700   2.309   4.095  0.00  0.00    -0.126 OA
ENDBRANCH  21  23
ENDBRANCH  15  17
ENDBRANCH   3  13
BRANCH   1  26
ATOM     26  N   UNL     1       1.682  -3.761  -0.950  0.00  0.00    -0.157 N 
ATOM     27  H   UNL     1       1.976  -4.265  -1.725  0.00  0.00    +0.194 HD
BRANCH  26  28
ATOM     28  S   UNL     1       0.347  -2.787  -1.054  0.00  0.00    +0.085 S 
ATOM     29  O   UNL     1      -0.575  -3.256  -0.079  0.00  0.00    -0.149 OA
ATOM     30  O   UNL     1       0.017  -2.695  -2.433  0.00  0.00    -0.149 OA
BRANCH  28  35
ATOM     31  C   UNL     1       2.027   2.741   0.687  0.00  0.00    +0.044 C 
ATOM     32  C   UNL     1       1.607   1.360   0.252  0.00  0.00    -0.050 A 
ATOM     33  C   UNL     1       1.799   0.960  -1.057  0.00  0.00    +0.005 A 
ATOM     34  C   UNL     1       1.414  -0.307  -1.456  0.00  0.00    +0.029 A 
ATOM     35  C   UNL     1       0.838  -1.173  -0.545  0.00  0.00    +0.110 A 
ATOM     36  C   UNL     1       0.647  -0.773   0.764  0.00  0.00    +0.029 A 
ATOM     37  C   UNL     1       1.036   0.492   1.164  0.00  0.00    +0.005 A 
ENDBRANCH  28  35
ENDBRANCH  26  28
ENDBRANCH   1  26
TORSDOF 6
