REMARK  Name = ZINC40494688
REMARK  3 active torsions:
REMARK  status: ('A' for Active; 'I' for Inactive)
REMARK    1  A    between atoms: C_1  and  C_2
REMARK    2  A    between atoms: C_10  and  C_15
REMARK    3  A    between atoms: C_11  and  N_14
REMARK                            x       y       z     vdW  Elec       q    Type
REMARK                         _______ _______ _______ _____ _____    ______ ____
ROOT
ATOM      1  C   UNL     1       0.149   1.391  -0.259  0.00  0.00    +0.109 C 
ATOM      2  C   UNL     1       0.104  -0.051   0.177  0.00  0.00    +0.217 C 
ATOM      3  O   UNL     1       1.125  -0.616   0.509  0.00  0.00    -0.276 OA
ATOM      4  N   UNL     1      -1.070  -0.713   0.199  0.00  0.00    -0.269 N 
ATOM      5  C   UNL     1      -2.292   0.050   0.433  0.00  0.00    +0.124 C 
ATOM      6  C   UNL     1      -3.045  -0.577   1.617  0.00  0.00    +0.094 C 
ATOM      7  S   UNL     1      -3.564  -2.246   1.115  0.00  0.00    -0.122 S 
ATOM      8  C   UNL     1      -2.111  -2.913   0.366  0.00  0.00    +0.030 A 
ATOM      9  C   UNL     1      -1.058  -2.086  -0.008  0.00  0.00    +0.066 A 
ATOM     10  C   UNL     1       0.080  -2.654  -0.620  0.00  0.00    +0.106 A 
ATOM     11  C   UNL     1       0.141  -4.040  -0.835  0.00  0.00    +0.041 A 
ATOM     12  C   UNL     1      -0.920  -4.846  -0.452  0.00  0.00    +0.025 A 
ATOM     13  C   UNL     1      -2.035  -4.285   0.151  0.00  0.00    +0.018 A 
ENDROOT
BRANCH  11  14
ATOM     14  N   UNL     1       1.263  -4.604  -1.433  0.00  0.00    -0.357 N 
ATOM     15  H   UNL     1       2.034  -4.051  -1.635  0.00  0.00    +0.142 HD
ATOM     16  H   UNL     1       1.275  -5.550  -1.647  0.00  0.00    +0.142 HD
ENDBRANCH  11  14
BRANCH  10  17
ATOM     17  C   UNL     1       1.198  -1.797  -1.029  0.00  0.00    +0.390 C 
ATOM     18  O   UNL     1       2.312  -1.977  -0.555  0.00  0.00    -0.240 OA
ATOM     19  O   UNL     1       1.016  -0.903  -1.845  0.00  0.00    -0.240 OA
ENDBRANCH  10  17
TORSDOF 2
