REMARK  Name = ZINC10491936
REMARK  6 active torsions:
REMARK  status: ('A' for Active; 'I' for Inactive)
REMARK    1  A    between atoms: C_4  and  S_8
REMARK    2  A    between atoms: S_8  and  N_11
REMARK    3  A    between atoms: N_11  and  C_12
REMARK    4  A    between atoms: C_15  and  N_18
REMARK    5  A    between atoms: N_18  and  S_19
REMARK    6  A    between atoms: S_19  and  C_22
REMARK                            x       y       z     vdW  Elec       q    Type
REMARK                         _______ _______ _______ _____ _____    ______ ____
ROOT
ATOM      1  C   UNL     1       2.315   4.048   2.442  0.00  0.00    +0.077 C 
ATOM      2  C   UNL     1       2.077   2.751   3.217  0.00  0.00    +0.022 C 
ATOM      3  C   UNL     1       3.290   2.455   4.101  0.00  0.00    +0.022 C 
ATOM      4  C   UNL     1       3.497   3.608   5.086  0.00  0.00    +0.077 C 
ATOM      5  C   UNL     1       3.735   4.905   4.310  0.00  0.00    +0.022 C 
ATOM      6  C   UNL     1       2.522   5.201   3.426  0.00  0.00    +0.022 C 
ENDROOT
BRANCH   1   7
ATOM      7  N   UNL     1       1.153   4.332   1.596  0.00  0.00    -0.187 NA
ATOM      8  H   UNL     1       0.388   4.801   1.964  0.00  0.00    +0.148 HD
BRANCH   7   9
ATOM      9  S   UNL     1       1.145   3.850   0.011  0.00  0.00    +0.059 S 
ATOM     10  O   UNL     1       2.379   4.277  -0.549  0.00  0.00    -0.153 OA
ATOM     11  O   UNL     1      -0.111   4.241  -0.526  0.00  0.00    -0.153 OA
BRANCH   9  15
ATOM     12  C   UNL     1       1.210  -0.679  -0.013  0.00  0.00    +0.076 A 
ATOM     13  C   UNL     1       0.002  -0.004   0.002  0.00  0.00    +0.128 A 
ATOM     14  C   UNL     1      -0.017   1.381   0.010  0.00  0.00    +0.067 A 
ATOM     15  C   UNL     1       1.170   2.088   0.002  0.00  0.00    +0.111 A 
ATOM     16  C   UNL     1       2.377   1.415  -0.013  0.00  0.00    +0.067 A 
ATOM     17  C   UNL     1       2.399   0.031  -0.021  0.00  0.00    +0.128 A 
ATOM     18  F   UNL     1       3.579  -0.627  -0.035  0.00  0.00    -0.205 F 
ATOM     19  F   UNL     1      -1.158  -0.696   0.010  0.00  0.00    -0.205 F 
ENDBRANCH   9  15
ENDBRANCH   7   9
ENDBRANCH   1   7
BRANCH   4  20
ATOM     20  N   UNL     1       4.659   3.325   5.932  0.00  0.00    -0.187 NA
ATOM     21  H   UNL     1       5.551   3.551   5.623  0.00  0.00    +0.148 HD
BRANCH  20  22
ATOM     22  S   UNL     1       4.451   2.618   7.415  0.00  0.00    +0.059 S 
ATOM     23  O   UNL     1       5.748   2.451   7.971  0.00  0.00    -0.153 OA
ATOM     24  O   UNL     1       3.428   3.350   8.074  0.00  0.00    -0.153 OA
BRANCH  22  25
ATOM     25  C   UNL     1       3.812   1.000   7.135  0.00  0.00    +0.111 A 
ATOM     26  C   UNL     1       2.446   0.797   7.081  0.00  0.00    +0.067 A 
ATOM     27  C   UNL     1       1.942  -0.473   6.856  0.00  0.00    +0.128 A 
ATOM     28  C   UNL     1       2.807  -1.542   6.697  0.00  0.00    +0.076 A 
ATOM     29  C   UNL     1       4.175  -1.339   6.757  0.00  0.00    +0.128 A 
ATOM     30  C   UNL     1       4.676  -0.067   6.976  0.00  0.00    +0.067 A 
ATOM     31  F   UNL     1       5.021  -2.381   6.601  0.00  0.00    -0.205 F 
ATOM     32  F   UNL     1       0.607  -0.670   6.797  0.00  0.00    -0.205 F 
ENDBRANCH  22  25
ENDBRANCH  20  22
ENDBRANCH   4  20
TORSDOF 6
