REMARK  Name = ZINC40921656
REMARK  10 active torsions:
REMARK  status: ('A' for Active; 'I' for Inactive)
REMARK    1  A    between atoms: C_1  and  C_2
REMARK    2  A    between atoms: C_3  and  C_27
REMARK    3  A    between atoms: C_4  and  C_12
REMARK    4  A    between atoms: C_15  and  O_18
REMARK    5  A    between atoms: O_18  and  C_19
REMARK    6  A    between atoms: C_19  and  C_20
REMARK    7  A    between atoms: C_27  and  O_29
REMARK    8  A    between atoms: O_29  and  C_30
REMARK    9  A    between atoms: C_30  and  C_31
REMARK   10  A    between atoms: C_30  and  C_32
REMARK                            x       y       z     vdW  Elec       q    Type
REMARK                         _______ _______ _______ _____ _____    ______ ____
ROOT
ATOM      1  C   UNL     1      -0.018   1.503   0.010  0.00  0.00    +0.061 C 
ATOM      2  C   UNL     1       0.002  -0.004   0.002  0.00  0.00    +0.020 C 
ATOM      3  C   UNL     1      -1.165  -0.668   0.004  0.00  0.00    +0.082 C 
ATOM      4  C   UNL     1      -1.256  -2.171  -0.016  0.00  0.00    +0.181 C 
ATOM      5  N   UNL     1       0.061  -2.739   0.249  0.00  0.00    -0.201 N 
ATOM      6  C   UNL     1       1.210  -2.014   0.244  0.00  0.00    +0.240 A 
ATOM      7  N   UNL     1       2.186  -2.835   0.510  0.00  0.00    -0.092 NA
ATOM      8  N   UNL     1       1.730  -4.028   0.688  0.00  0.00    -0.021 NA
ATOM      9  N   UNL     1       0.444  -4.046   0.545  0.00  0.00    -0.042 NA
ATOM     10  N   UNL     1       1.213  -0.650  -0.013  0.00  0.00    -0.286 N 
ATOM     11  H   UNL     1       2.038  -0.172  -0.193  0.00  0.00    +0.155 HD
ENDROOT
BRANCH   4  12
ATOM     12  C   UNL     1      -1.737  -2.627  -1.369  0.00  0.00    -0.018 A 
ATOM     13  C   UNL     1      -1.002  -2.326  -2.501  0.00  0.00    +0.009 A 
ATOM     14  C   UNL     1      -1.442  -2.743  -3.743  0.00  0.00    +0.046 A 
ATOM     15  C   UNL     1      -2.621  -3.465  -3.853  0.00  0.00    +0.121 A 
ATOM     16  C   UNL     1      -3.357  -3.766  -2.716  0.00  0.00    +0.046 A 
ATOM     17  C   UNL     1      -2.910  -3.351  -1.476  0.00  0.00    +0.009 A 
BRANCH  15  18
ATOM     18  O   UNL     1      -3.056  -3.875  -5.073  0.00  0.00    -0.487 OA
BRANCH  18  19
ATOM     19  C   UNL     1      -4.279  -4.614  -5.112  0.00  0.00    +0.264 C 
BRANCH  19  20
ATOM     20  C   UNL     1      -4.599  -4.982  -6.537  0.00  0.00    -0.009 A 
ATOM     21  C   UNL     1      -5.355  -4.126  -7.319  0.00  0.00    +0.007 A 
ATOM     22  C   UNL     1      -5.649  -4.463  -8.627  0.00  0.00    +0.001 A 
ATOM     23  C   UNL     1      -5.188  -5.655  -9.154  0.00  0.00    +0.015 A 
ATOM     24  C   UNL     1      -4.433  -6.510  -8.373  0.00  0.00    +0.018 A 
ATOM     25  C   UNL     1      -4.134  -6.171  -7.066  0.00  0.00    +0.022 A 
ATOM     26 BR   UNL     1      -3.803  -8.141  -9.094  0.00  0.00    -0.050 Br
ENDBRANCH  19  20
ENDBRANCH  18  19
ENDBRANCH  15  18
ENDBRANCH   4  12
BRANCH   3  27
ATOM     27  C   UNL     1      -2.364   0.079   0.027  0.00  0.00    +0.339 C 
ATOM     28  O   UNL     1      -2.323   1.295   0.044  0.00  0.00    -0.245 OA
BRANCH  27  29
ATOM     29  O   UNL     1      -3.554  -0.556   0.029  0.00  0.00    -0.459 OA
BRANCH  29  30
ATOM     30  C   UNL     1      -4.726   0.261   0.053  0.00  0.00    +0.171 C 
ATOM     31  C   UNL     1      -5.158   0.574  -1.381  0.00  0.00    +0.052 C 
ATOM     32  C   UNL     1      -5.852  -0.482   0.774  0.00  0.00    +0.052 C 
ENDBRANCH  29  30
ENDBRANCH  27  29
ENDBRANCH   3  27
TORSDOF 7
