REMARK  Name = ZINC53115330
REMARK  5 active torsions:
REMARK  status: ('A' for Active; 'I' for Inactive)
REMARK    1  A    between atoms: C_1  and  C_2
REMARK    2  A    between atoms: C_7  and  C_9
REMARK    3  A    between atoms: C_7  and  N_11
REMARK    4  A    between atoms: C_9  and  O_10
REMARK    5  A    between atoms: C_13  and  N_19
REMARK                            x       y       z     vdW  Elec       q    Type
REMARK                         _______ _______ _______ _____ _____    ______ ____
ROOT
ATOM      1  N   UNL     1      -0.603  -2.552   1.229  0.00  0.00    -0.320 N 
ATOM      2  C   UNL     1      -1.488  -2.165   2.232  0.00  0.00    +0.140 A 
ATOM      3  C   UNL     1      -2.761  -2.738   2.293  0.00  0.00    +0.066 A 
ATOM      4  C   UNL     1      -3.631  -2.341   3.299  0.00  0.00    +0.043 A 
ATOM      5  C   UNL     1      -3.198  -1.385   4.208  0.00  0.00    +0.038 A 
ATOM      6  C   UNL     1      -1.926  -0.862   4.087  0.00  0.00    +0.128 A 
ATOM      7  N   UNL     1      -1.116  -1.261   3.123  0.00  0.00    -0.238 NA
ATOM      8 BR   UNL     1      -4.340  -0.804   5.600  0.00  0.00    -0.049 Br
ATOM      9  H   UNL     1      -0.882  -3.191   0.555  0.00  0.00    +0.148 HD
ENDROOT
BRANCH   1  15
ATOM     10  C   UNL     1      -0.126   1.364  -0.475  0.00  0.00    +0.007 C 
ATOM     11  C   UNL     1      -0.047  -0.153  -0.297  0.00  0.00    -0.012 C 
ATOM     12  C   UNL     1       0.725  -0.765  -1.467  0.00  0.00    +0.003 C 
ATOM     13  C   UNL     1       0.803  -2.283  -1.289  0.00  0.00    +0.002 C 
ATOM     14  C   UNL     1       1.524  -2.606   0.021  0.00  0.00    +0.028 C 
ATOM     15  C   UNL     1       0.752  -1.994   1.192  0.00  0.00    +0.057 C 
ATOM     16  C   UNL     1       0.673  -0.476   1.014  0.00  0.00    +0.031 C 
BRANCH  15  17
ATOM     17  C   UNL     1       1.472  -2.317   2.503  0.00  0.00    +0.181 C 
BRANCH  17  18
ATOM     18  O   UNL     1       1.435  -3.727   2.732  0.00  0.00    -0.393 OA
ATOM     19  H   UNL     1       1.874  -4.005   3.548  0.00  0.00    +0.209 HD
ENDBRANCH  17  18
ENDBRANCH  15  17
ENDBRANCH   1  15
BRANCH   3  20
ATOM     20  N   UNL     1      -3.153  -3.699   1.352  0.00  0.00    -0.355 N 
ATOM     21  H   UNL     1      -2.539  -3.971   0.652  0.00  0.00    +0.142 HD
ATOM     22  H   UNL     1      -4.038  -4.092   1.401  0.00  0.00    +0.142 HD
ENDBRANCH   3  20
TORSDOF 4
