REMARK  Name = ZINC64610506
REMARK  5 active torsions:
REMARK  status: ('A' for Active; 'I' for Inactive)
REMARK    1  A    between atoms: C_6  and  C_21
REMARK    2  A    between atoms: C_7  and  N_9
REMARK    3  A    between atoms: C_10  and  C_12
REMARK    4  A    between atoms: C_12  and  C_13
REMARK    5  A    between atoms: C_13  and  C_18
REMARK                            x       y       z     vdW  Elec       q    Type
REMARK                         _______ _______ _______ _____ _____    ______ ____
ROOT
ATOM      1  N   UNL     1       1.958  -3.300   3.383  0.00  0.00    -0.279 N 
ATOM      2  C   UNL     1       2.879  -3.390   4.363  0.00  0.00    +0.219 C 
ATOM      3  O   UNL     1       3.556  -2.425   4.649  0.00  0.00    -0.275 OA
ATOM      4  H   UNL     1       1.417  -4.072   3.154  0.00  0.00    +0.155 HD
ENDROOT
BRANCH   1  11
ATOM      5  C   UNL     1      -0.019   1.526   0.010  0.00  0.00    +0.005 C 
ATOM      6  C   UNL     1       1.414   2.067  -0.000  0.00  0.00    +0.005 C 
ATOM      7  C   UNL     1       2.067   1.773   1.358  0.00  0.00    +0.043 C 
ATOM      8  C   UNL     1       1.810   0.338   1.702  0.00  0.00    -0.004 A 
ATOM      9  C   UNL     1       0.907  -0.485   1.127  0.00  0.00    -0.018 A 
ATOM     10  C   UNL     1       0.893  -1.829   1.677  0.00  0.00    +0.084 A 
ATOM     11  C   UNL     1       1.783  -2.103   2.702  0.00  0.00    +0.090 A 
ATOM     12  S   UNL     1       2.603  -0.656   2.932  0.00  0.00    -0.077 S 
ATOM     13  C   UNL     1       0.002  -0.004   0.002  0.00  0.00    +0.037 C 
BRANCH  10  14
ATOM     14  C   UNL     1      -0.004  -2.829   1.181  0.00  0.00    +0.102 C 
ATOM     15  N   UNL     1      -0.716  -3.622   0.788  0.00  0.00    -0.191 NA
ENDBRANCH  10  14
ENDBRANCH   1  11
BRANCH   2  16
ATOM     16  C   UNL     1       3.069  -4.689   5.102  0.00  0.00    +0.115 C 
BRANCH  16  17
ATOM     17  C   UNL     1       4.167  -4.522   6.154  0.00  0.00    +0.090 C 
ATOM     18  C   UNL     1       4.252  -5.804   6.982  0.00  0.00    +0.030 C 
ATOM     19  C   UNL     1       5.265  -6.793   6.341  0.00  0.00    +0.070 C 
ATOM     20  S   UNL     1       6.574  -5.599   5.821  0.00  0.00    -0.160 S 
ATOM     21  C   UNL     1       5.485  -4.164   5.440  0.00  0.00    +0.087 C 
BRANCH  17  22
ATOM     22  C   UNL     1       3.789  -3.385   7.068  0.00  0.00    +0.363 C 
ATOM     23  O   UNL     1       2.741  -2.787   6.895  0.00  0.00    -0.246 OA
ATOM     24  O   UNL     1       4.531  -3.063   7.980  0.00  0.00    -0.246 OA
ENDBRANCH  17  22
ENDBRANCH  16  17
ENDBRANCH   2  16
TORSDOF 5
