REMARK  Name = ZINC06288118
REMARK  9 active torsions:
REMARK  status: ('A' for Active; 'I' for Inactive)
REMARK    1  A    between atoms: C_1  and  C_2
REMARK    2  A    between atoms: C_6  and  C_22
REMARK    3  A    between atoms: C_7  and  N_8
REMARK    4  A    between atoms: N_8  and  C_9
REMARK    5  A    between atoms: C_9  and  N_11
REMARK    6  A    between atoms: N_11  and  N_12
REMARK    7  A    between atoms: C_13  and  C_14
REMARK    8  A    between atoms: C_17  and  O_21
REMARK    9  A    between atoms: C_19  and  O_20
REMARK                            x       y       z     vdW  Elec       q    Type
REMARK                         _______ _______ _______ _____ _____    ______ ____
ROOT
ATOM      1  N   UNL     1       4.610   3.757   0.653  0.00  0.00    -0.218 N 
ATOM      2  H   UNL     1       4.492   4.512   1.251  0.00  0.00    +0.176 HD
ENDROOT
BRANCH   1   3
ATOM      3  C   UNL     1       5.772   3.074   0.652  0.00  0.00    +0.154 C 
ATOM      4  S   UNL     1       7.039   3.538   1.705  0.00  0.00    -0.017 S 
BRANCH   3   5
ATOM      5  N   UNL     1       5.936   2.025  -0.178  0.00  0.00    -0.295 N 
ATOM      6  H   UNL     1       5.202   1.731  -0.740  0.00  0.00    +0.154 HD
BRANCH   5  13
ATOM      7  C   UNL     1       5.962  -0.785   0.268  0.00  0.00    +0.045 C 
ATOM      8  C   UNL     1       7.223  -0.012  -0.018  0.00  0.00    -0.029 A 
ATOM      9  C   UNL     1       8.438  -0.667  -0.075  0.00  0.00    +0.005 A 
ATOM     10  C   UNL     1       9.597   0.043  -0.333  0.00  0.00    +0.001 A 
ATOM     11  C   UNL     1       9.543   1.409  -0.539  0.00  0.00    +0.005 A 
ATOM     12  C   UNL     1       8.330   2.069  -0.488  0.00  0.00    -0.029 A 
ATOM     13  C   UNL     1       7.165   1.359  -0.230  0.00  0.00    +0.039 A 
ATOM     14  C   UNL     1       8.272   3.558  -0.713  0.00  0.00    +0.045 C 
ENDBRANCH   5  13
ENDBRANCH   3   5
ENDBRANCH   1   3
BRANCH   1  15
ATOM     15  N   UNL     1       3.573   3.377  -0.209  0.00  0.00    -0.188 NA
ATOM     16  C   UNL     1       2.454   4.035  -0.207  0.00  0.00    +0.141 C 
BRANCH  16  17
ATOM     17  C   UNL     1       1.363   3.635  -1.114  0.00  0.00    +0.036 A 
ATOM     18  C   UNL     1       0.158   4.341  -1.115  0.00  0.00    +0.016 A 
ATOM     19  C   UNL     1      -0.860   3.964  -1.963  0.00  0.00    +0.046 A 
ATOM     20  C   UNL     1      -0.690   2.886  -2.824  0.00  0.00    +0.120 A 
ATOM     21  C   UNL     1       0.502   2.175  -2.827  0.00  0.00    +0.091 A 
ATOM     22  C   UNL     1       1.531   2.545  -1.979  0.00  0.00    +0.129 A 
BRANCH  22  23
ATOM     23  O   UNL     1       2.700   1.853  -1.984  0.00  0.00    -0.506 OA
ATOM     24  H   UNL     1       3.356   2.194  -2.607  0.00  0.00    +0.292 HD
ENDBRANCH  22  23
BRANCH  20  25
ATOM     25  O   UNL     1      -1.696   2.524  -3.662  0.00  0.00    -0.507 OA
ATOM     26  H   UNL     1      -2.308   1.878  -3.284  0.00  0.00    +0.292 HD
ENDBRANCH  20  25
ENDBRANCH  16  17
ENDBRANCH   1  15
TORSDOF 7
