REMARK  Name = ZINC08156576
REMARK  5 active torsions:
REMARK  status: ('A' for Active; 'I' for Inactive)
REMARK    1  A    between atoms: C_4  and  C_7
REMARK    2  A    between atoms: C_16  and  O_23
REMARK    3  A    between atoms: N_17  and  C_18
REMARK    4  A    between atoms: C_18  and  C_19
REMARK    5  A    between atoms: N_21  and  N_22
REMARK                            x       y       z     vdW  Elec       q    Type
REMARK                         _______ _______ _______ _____ _____    ______ ____
ROOT
ATOM      1  C   UNL     1       3.711  -0.707  -0.038  0.00  0.00    +0.141 C 
ATOM      2  C   UNL     1       4.013  -1.182  -1.438  0.00  0.00    +0.004 A 
ATOM      3  C   UNL     1       4.660  -0.362  -2.335  0.00  0.00    +0.028 A 
ATOM      4  C   UNL     1       4.928  -0.814  -3.617  0.00  0.00    +0.041 A 
ATOM      5  C   UNL     1       4.547  -2.089  -4.000  0.00  0.00    +0.022 A 
ATOM      6  C   UNL     1       3.898  -2.919  -3.109  0.00  0.00    +0.029 A 
ATOM      7  C   UNL     1       3.626  -2.470  -1.816  0.00  0.00    +0.074 A 
ATOM      8  N   UNL     1       2.987  -3.284  -0.920  0.00  0.00    -0.199 NA
ATOM      9  C   UNL     1       2.987  -3.010   0.360  0.00  0.00    +0.284 C 
ATOM     10  N   UNL     1       3.631  -1.891   0.832  0.00  0.00    -0.266 N 
ATOM     11 CL   UNL     1       5.744   0.221  -4.746  0.00  0.00    -0.084 Cl
ENDROOT
BRANCH   1  15
ATOM     12  C   UNL     1      -0.017   1.378   0.010  0.00  0.00    +0.000 A 
ATOM     13  C   UNL     1       1.171   2.086   0.002  0.00  0.00    +0.000 A 
ATOM     14  C   UNL     1       2.377   1.411  -0.013  0.00  0.00    +0.006 A 
ATOM     15  C   UNL     1       2.396   0.029  -0.020  0.00  0.00    -0.022 A 
ATOM     16  C   UNL     1       1.208  -0.679  -0.012  0.00  0.00    +0.006 A 
ATOM     17  C   UNL     1       0.002  -0.004   0.002  0.00  0.00    +0.000 A 
ENDBRANCH   1  15
BRANCH   9  18
ATOM     18  O   UNL     1       2.351  -3.832   1.222  0.00  0.00    -0.481 OA
ATOM     19  H   UNL     1       1.927  -4.592   0.801  0.00  0.00    +0.295 HD
ENDBRANCH   9  18
BRANCH  10  20
ATOM     20  C   UNL     1       4.227  -1.877   2.171  0.00  0.00    +0.207 C 
BRANCH  20  21
ATOM     21  C   UNL     1       3.207  -1.394   3.169  0.00  0.00    +0.244 C 
ATOM     22  O   UNL     1       2.092  -1.091   2.799  0.00  0.00    -0.273 OA
ATOM     23  N   UNL     1       3.533  -1.298   4.473  0.00  0.00    -0.252 N 
ATOM     24  H   UNL     1       4.424  -1.541   4.769  0.00  0.00    +0.169 HD
BRANCH  23  25
ATOM     25  N   UNL     1       2.608  -0.860   5.378  0.00  0.00    -0.254 NA
ATOM     26  H   UNL     1       1.773  -1.425   5.345  0.00  0.00    +0.140 HD
ATOM     27  H   UNL     1       2.994  -0.842   6.310  0.00  0.00    +0.140 HD
ENDBRANCH  23  25
ENDBRANCH  20  21
ENDBRANCH  10  20
TORSDOF 5
