REMARK  Name = ZINC60280507
REMARK  6 active torsions:
REMARK  status: ('A' for Active; 'I' for Inactive)
REMARK    1  A    between atoms: C_1  and  C_2
REMARK    2  A    between atoms: C_2  and  C_3
REMARK    3  A    between atoms: C_2  and  C_4
REMARK    4  A    between atoms: C_2  and  N_5
REMARK    5  A    between atoms: C_7  and  C_13
REMARK    6  A    between atoms: C_9  and  C_10
REMARK                            x       y       z     vdW  Elec       q    Type
REMARK                         _______ _______ _______ _____ _____    ______ ____
ROOT
ATOM      1  N   UNL     1       0.596  -0.368  -0.927  0.00  0.00    -0.273 N 
ATOM      2  C   UNL     1      -0.011  -1.053  -1.957  0.00  0.00    +0.101 C 
ATOM      3  C   UNL     1       1.054  -1.144  -3.034  0.00  0.00    +0.174 C 
ATOM      4  N   UNL     1       2.212  -0.455  -2.443  0.00  0.00    -0.363 N 
ATOM      5  C   UNL     1       1.879  -0.045  -1.270  0.00  0.00    +0.080 C 
ATOM      6  N   UNL     1      -1.218  -1.514  -1.998  0.00  0.00    -0.388 N 
ATOM      7  H   UNL     1      -1.773  -1.490  -1.203  0.00  0.00    +0.157 HD
ATOM      8  H   UNL     1      -1.568  -1.884  -2.823  0.00  0.00    +0.157 HD
ATOM      9  H   UNL     1       3.075  -0.328  -2.866  0.00  0.00    +0.162 HD
ENDROOT
BRANCH   3  10
ATOM     10  C   UNL     1       0.602  -0.439  -4.286  0.00  0.00    +0.002 A 
ATOM     11  C   UNL     1       1.058   0.835  -4.566  0.00  0.00    +0.007 A 
ATOM     12  C   UNL     1       0.644   1.482  -5.715  0.00  0.00    +0.002 A 
ATOM     13  C   UNL     1      -0.228   0.856  -6.586  0.00  0.00    +0.021 A 
ATOM     14  C   UNL     1      -0.686  -0.419  -6.308  0.00  0.00    +0.060 A 
ATOM     15  C   UNL     1      -0.266  -1.070  -5.160  0.00  0.00    +0.065 A 
ATOM     16 CL   UNL     1      -0.834  -2.673  -4.813  0.00  0.00    -0.082 Cl
ATOM     17 CL   UNL     1      -1.781  -1.206  -7.401  0.00  0.00    -0.082 Cl
ENDBRANCH   3  10
BRANCH   1  19
ATOM     18  C   UNL     1      -0.008   1.484   0.551  0.00  0.00    +0.031 C 
ATOM     19  C   UNL     1      -0.042  -0.032   0.348  0.00  0.00    +0.033 C 
ATOM     20  C   UNL     1       0.711  -0.716   1.492  0.00  0.00    +0.031 C 
ATOM     21  C   UNL     1      -1.494  -0.512   0.334  0.00  0.00    +0.031 C 
ENDBRANCH   1  19
BRANCH   5  22
ATOM     22  C   UNL     1       2.812   0.713  -0.362  0.00  0.00    +0.051 C 
ATOM     23  C   UNL     1       3.693   1.792  -0.995  0.00  0.00    +0.011 C 
ATOM     24  C   UNL     1       4.314   0.473  -0.533  0.00  0.00    +0.011 C 
ENDBRANCH   5  22
TORSDOF 3
