REMARK  Name = ZINC21077213
REMARK  7 active torsions:
REMARK  status: ('A' for Active; 'I' for Inactive)
REMARK    1  A    between atoms: C_4  and  N_7
REMARK    2  A    between atoms: N_7  and  C_8
REMARK    3  A    between atoms: C_14  and  C_16
REMARK    4  A    between atoms: C_16  and  S_17
REMARK    5  A    between atoms: S_17  and  C_18
REMARK    6  A    between atoms: N_23  and  N_24
REMARK    7  A    between atoms: C_25  and  C_26
REMARK                            x       y       z     vdW  Elec       q    Type
REMARK                         _______ _______ _______ _____ _____    ______ ____
ROOT
ATOM      1  S   UNL     1      -1.410   2.492  -0.802  0.00  0.00    -0.075 S 
ENDROOT
BRANCH   1   2
ATOM      2  C   UNL     1       0.039   1.543  -1.127  0.00  0.00    +0.211 A 
ATOM      3  N   UNL     1       0.075   0.213  -1.437  0.00  0.00    -0.186 NA
ATOM      4  C   UNL     1       1.382  -0.143  -1.620  0.00  0.00    +0.232 A 
ATOM      5  N   UNL     1       2.122   0.922  -1.432  0.00  0.00    -0.245 N 
ATOM      6  N   UNL     1       1.272   1.991  -1.120  0.00  0.00    -0.144 NA
ATOM      7  N   UNL     1       1.844  -1.410  -1.948  0.00  0.00    -0.205 N 
ATOM      8  H   UNL     1       1.132  -2.237  -2.084  0.00  0.00    +0.177 HD
ATOM      9  H   UNL     1       3.216   0.857  -1.532  0.00  0.00    +0.192 HD
BRANCH   7  10
ATOM     10  N   UNL     1       3.217  -1.635  -2.107  0.00  0.00    -0.188 NA
ATOM     11  C   UNL     1       3.650  -2.820  -2.414  0.00  0.00    +0.138 C 
BRANCH  11  12
ATOM     12  C   UNL     1       5.095  -3.058  -2.581  0.00  0.00    -0.005 A 
ATOM     13  C   UNL     1       6.002  -2.007  -2.416  0.00  0.00    +0.012 A 
ATOM     14  C   UNL     1       7.353  -2.237  -2.567  0.00  0.00    +0.039 A 
ATOM     15  C   UNL     1       7.812  -3.503  -2.896  0.00  0.00    +0.123 A 
ATOM     16  C   UNL     1       6.917  -4.547  -3.067  0.00  0.00    +0.039 A 
ATOM     17  C   UNL     1       5.564  -4.332  -2.912  0.00  0.00    +0.012 A 
ATOM     18  F   UNL     1       9.136  -3.720  -3.049  0.00  0.00    -0.205 F 
ENDBRANCH  11  12
ENDBRANCH   7  10
ENDBRANCH   1   2
BRANCH   1  19
ATOM     19  C   UNL     1      -0.776   4.157  -0.464  0.00  0.00    +0.174 C 
BRANCH  19  21
ATOM     20  N   UNL     1      -1.694   6.372   0.147  0.00  0.00    -0.240 N 
ATOM     21  C   UNL     1      -1.929   5.082  -0.167  0.00  0.00    +0.234 C 
ATOM     22  O   UNL     1      -3.067   4.666  -0.209  0.00  0.00    -0.274 OA
BRANCH  20  26
ATOM     23  C   UNL     1       2.185   7.885  -0.022  0.00  0.00    +0.000 A 
ATOM     24  C   UNL     1       1.233   8.324  -0.924  0.00  0.00    +0.002 A 
ATOM     25  C   UNL     1      -0.053   7.824  -0.871  0.00  0.00    +0.024 A 
ATOM     26  C   UNL     1      -0.391   6.880   0.090  0.00  0.00    +0.041 A 
ATOM     27  C   UNL     1       0.566   6.446   0.999  0.00  0.00    +0.024 A 
ATOM     28  C   UNL     1       1.852   6.946   0.936  0.00  0.00    +0.002 A 
ENDBRANCH  20  26
BRANCH  20  29
ATOM     29  C   UNL     1      -2.754   7.203   0.529  0.00  0.00    +0.041 A 
ATOM     30  C   UNL     1      -3.725   7.562  -0.396  0.00  0.00    +0.024 A 
ATOM     31  C   UNL     1      -4.772   8.378  -0.015  0.00  0.00    +0.002 A 
ATOM     32  C   UNL     1      -4.848   8.847   1.284  0.00  0.00    +0.000 A 
ATOM     33  C   UNL     1      -3.879   8.496   2.206  0.00  0.00    +0.002 A 
ATOM     34  C   UNL     1      -2.833   7.675   1.833  0.00  0.00    +0.024 A 
ENDBRANCH  20  29
ENDBRANCH  19  21
ENDBRANCH   1  19
TORSDOF 7
