REMARK  Name = ZINC16435439
REMARK  15 active torsions:
REMARK  status: ('A' for Active; 'I' for Inactive)
REMARK    1  A    between atoms: C_1  and  C_2
REMARK    2  A    between atoms: C_5  and  N_8
REMARK    3  A    between atoms: C_9  and  N_17
REMARK    4  A    between atoms: C_11  and  C_13
REMARK    5  A    between atoms: C_13  and  C_14
REMARK    6  A    between atoms: C_13  and  C_15
REMARK    7  A    between atoms: C_13  and  C_16
REMARK    8  A    between atoms: C_18  and  C_20
REMARK    9  A    between atoms: C_20  and  N_21
REMARK   10  A    between atoms: N_21  and  C_22
REMARK   11  A    between atoms: C_22  and  C_23
REMARK   12  A    between atoms: C_23  and  O_24
REMARK   13  A    between atoms: O_24  and  C_25
REMARK   14  A    between atoms: C_26  and  C_28
REMARK   15  A    between atoms: C_31  and  C_34
REMARK                            x       y       z     vdW  Elec       q    Type
REMARK                         _______ _______ _______ _____ _____    ______ ____
ROOT
ATOM      1  N   UNL     1       0.959   3.831   0.718  0.00  0.00    -0.269 N 
ATOM      2  C   UNL     1      -0.384   3.803   0.610  0.00  0.00    +0.236 C 
ATOM      3  O   UNL     1      -1.009   2.863   1.055  0.00  0.00    -0.274 OA
ATOM      4  H   UNL     1       1.459   4.580   0.358  0.00  0.00    +0.156 HD
ENDROOT
BRANCH   1   6
ATOM      5  N   UNL     1       2.977   2.671   1.511  0.00  0.00    -0.218 N 
ATOM      6  C   UNL     1       1.631   2.780   1.342  0.00  0.00    +0.129 A 
ATOM      7  C   UNL     1       1.060   1.671   1.888  0.00  0.00    +0.069 A 
ATOM      8  C   UNL     1       2.084   0.873   2.406  0.00  0.00    +0.071 A 
ATOM      9  N   UNL     1       3.228   1.470   2.185  0.00  0.00    -0.169 NA
BRANCH   5  14
ATOM     10  C   UNL     1       6.875   6.425  -0.200  0.00  0.00    +0.044 C 
ATOM     11  C   UNL     1       5.840   5.428   0.254  0.00  0.00    -0.050 A 
ATOM     12  C   UNL     1       6.026   4.728   1.432  0.00  0.00    +0.005 A 
ATOM     13  C   UNL     1       5.079   3.813   1.851  0.00  0.00    +0.028 A 
ATOM     14  C   UNL     1       3.939   3.598   1.088  0.00  0.00    +0.067 A 
ATOM     15  C   UNL     1       3.758   4.299  -0.097  0.00  0.00    +0.028 A 
ATOM     16  C   UNL     1       4.705   5.216  -0.507  0.00  0.00    +0.005 A 
ENDBRANCH   5  14
BRANCH   8  17
ATOM     17  C   UNL     1       1.902  -0.451   3.102  0.00  0.00    +0.006 C 
ATOM     18  C   UNL     1       1.578  -1.530   2.067  0.00  0.00    +0.017 C 
ATOM     19  C   UNL     1       3.190  -0.822   3.839  0.00  0.00    +0.017 C 
ATOM     20  C   UNL     1       0.752  -0.346   4.106  0.00  0.00    +0.017 C 
ENDBRANCH   8  17
ENDBRANCH   1   6
BRANCH   2  21
ATOM     21  C   UNL     1      -1.110   4.939  -0.064  0.00  0.00    +0.204 C 
BRANCH  21  22
ATOM     22  N   UNL     1      -2.550   4.673  -0.053  0.00  0.00    -0.287 N 
ATOM     23  C   UNL     1      -3.174   4.292  -1.186  0.00  0.00    +0.247 C 
ATOM     24  O   UNL     1      -4.377   4.125  -1.191  0.00  0.00    -0.270 OA
BRANCH  23  25
ATOM     25  C   UNL     1      -2.393   4.079  -2.424  0.00  0.00    +0.037 A 
ATOM     26  C   UNL     1      -1.053   3.695  -2.350  0.00  0.00    +0.013 A 
ATOM     27  C   UNL     1      -0.332   3.494  -3.508  0.00  0.00    +0.013 A 
ATOM     28  C   UNL     1      -0.931   3.681  -4.741  0.00  0.00    +0.055 A 
ATOM     29  C   UNL     1      -2.257   4.066  -4.822  0.00  0.00    +0.013 A 
ATOM     30  C   UNL     1      -2.991   4.266  -3.671  0.00  0.00    +0.013 A 
BRANCH  28  31
ATOM     31  C   UNL     1      -0.135   3.465  -6.003  0.00  0.00    +0.417 C 
ATOM     32  F   UNL     1       0.478   4.664  -6.379  0.00  0.00    -0.166 F 
ATOM     33  F   UNL     1       0.845   2.492  -5.775  0.00  0.00    -0.166 F 
ATOM     34  F   UNL     1      -0.989   3.036  -7.025  0.00  0.00    -0.166 F 
ENDBRANCH  28  31
ENDBRANCH  23  25
BRANCH  22  35
ATOM     35  C   UNL     1      -3.313   4.820   1.188  0.00  0.00    +0.136 C 
BRANCH  35  36
ATOM     36  C   UNL     1      -3.893   6.234   1.266  0.00  0.00    +0.178 C 
BRANCH  36  37
ATOM     37  O   UNL     1      -4.843   6.418   0.215  0.00  0.00    -0.381 OA
ATOM     38  C   UNL     1      -5.446   7.713   0.197  0.00  0.00    +0.194 C 
ENDBRANCH  36  37
ENDBRANCH  35  36
ENDBRANCH  22  35
ENDBRANCH  21  22
ENDBRANCH   2  21
TORSDOF 10
