REMARK  Name = ZINC41545501
REMARK  3 active torsions:
REMARK  status: ('A' for Active; 'I' for Inactive)
REMARK    1  A    between atoms: C_1  and  C_2
REMARK    2  A    between atoms: C_2  and  C_13
REMARK    3  A    between atoms: C_18  and  C_21
REMARK                            x       y       z     vdW  Elec       q    Type
REMARK                         _______ _______ _______ _____ _____    ______ ____
ROOT
ATOM      1  C   UNL     1      -1.412  -0.525   0.015  0.00  0.00    +0.269 C 
ATOM      2  O   UNL     1      -0.242  -0.206   0.015  0.00  0.00    -0.271 OA
ATOM      3  N   UNL     1      -2.098  -0.572   1.174  0.00  0.00    -0.294 N 
ATOM      4  C   UNL     1      -3.480  -1.081   1.226  0.00  0.00    +0.113 C 
ATOM      5  C   UNL     1      -3.493  -2.320   2.124  0.00  0.00    +0.054 C 
ATOM      6  C   UNL     1      -2.716  -2.063   3.381  0.00  0.00    -0.039 C 
ATOM      7  C   UNL     1      -1.833  -1.103   3.523  0.00  0.00    -0.004 C 
ATOM      8  C   UNL     1      -1.496  -0.124   2.438  0.00  0.00    +0.135 C 
ENDROOT
BRANCH   1  10
ATOM      9  C   UNL     1      -2.236  -2.388  -1.399  0.00  0.00    +0.076 C 
ATOM     10  C   UNL     1      -2.099  -0.868  -1.282  0.00  0.00    +0.258 C 
ATOM     11  C   UNL     1      -1.279  -0.348  -2.436  0.00  0.00    +0.270 C 
ATOM     12  O   UNL     1      -0.080  -0.211  -2.318  0.00  0.00    -0.271 OA
ATOM     13  N   UNL     1      -1.886  -0.035  -3.600  0.00  0.00    -0.279 N 
ATOM     14  C   UNL     1      -3.284  -0.080  -3.676  0.00  0.00    +0.076 A 
ATOM     15  C   UNL     1      -3.927   0.011  -4.901  0.00  0.00    +0.027 A 
ATOM     16  C   UNL     1      -5.307  -0.048  -4.960  0.00  0.00    +0.002 A 
ATOM     17  C   UNL     1      -6.047  -0.197  -3.801  0.00  0.00    +0.004 A 
ATOM     18  C   UNL     1      -5.412  -0.282  -2.575  0.00  0.00    +0.047 A 
ATOM     19  C   UNL     1      -4.031  -0.219  -2.508  0.00  0.00    +0.144 A 
ATOM     20  O   UNL     1      -3.397  -0.270  -1.306  0.00  0.00    -0.465 OA
ATOM     21  H   UNL     1      -1.360   0.217  -4.375  0.00  0.00    +0.155 HD
ENDBRANCH   1  10
BRANCH   6  22
ATOM     22  C   UNL     1      -2.962  -2.949   4.537  0.00  0.00    +0.003 A 
ATOM     23  C   UNL     1      -4.048  -2.935   5.352  0.00  0.00    +0.091 A 
ATOM     24  N   UNL     1      -3.918  -3.901   6.308  0.00  0.00    -0.360 N 
ATOM     25  H   UNL     1      -4.568  -4.083   7.004  0.00  0.00    +0.165 HD
ATOM     26  C   UNL     1      -2.730  -4.580   6.140  0.00  0.00    +0.047 A 
ATOM     27  C   UNL     1      -2.081  -4.023   5.025  0.00  0.00    +0.008 A 
ATOM     28  C   UNL     1      -0.847  -4.523   4.613  0.00  0.00    +0.026 A 
ATOM     29  C   UNL     1      -0.270  -5.567   5.304  0.00  0.00    +0.019 A 
ATOM     30  C   UNL     1      -0.912  -6.120   6.403  0.00  0.00    +0.017 A 
ATOM     31  C   UNL     1      -2.129  -5.630   6.826  0.00  0.00    +0.027 A 
ATOM     32 BR   UNL     1       1.404  -6.250   4.750  0.00  0.00    -0.050 Br
ENDBRANCH   6  22
TORSDOF 2
