REMARK  Name = ZINC32664953
REMARK  10 active torsions:
REMARK  status: ('A' for Active; 'I' for Inactive)
REMARK    1  A    between atoms: C_1  and  C_2
REMARK    2  A    between atoms: C_2  and  C_4
REMARK    3  A    between atoms: C_2  and  N_13
REMARK    4  A    between atoms: C_7  and  C_10
REMARK    5  A    between atoms: C_10  and  C_11
REMARK    6  A    between atoms: C_10  and  C_12
REMARK    7  A    between atoms: N_13  and  C_14
REMARK    8  A    between atoms: C_14  and  C_16
REMARK    9  A    between atoms: C_14  and  C_17
REMARK   10  A    between atoms: N_22  and  C_23
REMARK                            x       y       z     vdW  Elec       q    Type
REMARK                         _______ _______ _______ _____ _____    ______ ____
ROOT
ATOM      1  C   UNL     1       2.210  -0.294   0.952  0.00  0.00    +0.138 C 
ATOM      2  C   UNL     1       2.704   1.110   1.305  0.00  0.00    +0.034 C 
ENDROOT
BRANCH   1   3
ATOM      3  C   UNL     1       2.877  -1.302   1.852  0.00  0.00    +0.237 C 
ATOM      4  O   UNL     1       2.206  -2.007   2.575  0.00  0.00    -0.274 OA
ATOM      5  N   UNL     1       4.220  -1.419   1.854  0.00  0.00    -0.239 N 
ATOM      6  C   UNL     1       4.817  -2.321   2.659  0.00  0.00    +0.306 C 
ATOM      7  O   UNL     1       4.144  -3.028   3.383  0.00  0.00    -0.252 OA
ATOM      8  N   UNL     1       6.159  -2.438   2.660  0.00  0.00    -0.296 N 
ATOM      9  H   UNL     1       4.757  -0.855   1.276  0.00  0.00    +0.159 HD
ATOM     10  H   UNL     1       6.696  -1.874   2.082  0.00  0.00    +0.151 HD
BRANCH   8  11
ATOM     11  C   UNL     1       6.808  -3.418   3.535  0.00  0.00    +0.074 C 
ATOM     12  C   UNL     1       7.006  -2.809   4.925  0.00  0.00    +0.022 C 
ATOM     13  C   UNL     1       7.684  -3.832   5.838  0.00  0.00    +0.002 C 
ATOM     14  C   UNL     1       9.043  -4.218   5.252  0.00  0.00    +0.000 C 
ATOM     15  C   UNL     1       8.845  -4.827   3.863  0.00  0.00    +0.002 C 
ATOM     16  C   UNL     1       8.167  -3.804   2.949  0.00  0.00    +0.022 C 
ENDBRANCH   8  11
ENDBRANCH   1   3
BRANCH   1  17
ATOM     17  N   UNL     1       0.754  -0.362   1.135  0.00  0.00    -0.299 NA
ATOM     18  H   UNL     1       0.465   0.181   1.934  0.00  0.00    +0.123 HD
BRANCH  17  20
ATOM     19  C   UNL     1      -1.338   0.595   0.295  0.00  0.00    +0.029 C 
ATOM     20  C   UNL     1       0.050   0.071  -0.079  0.00  0.00    +0.081 C 
BRANCH  20  21
ATOM     21  C   UNL     1      -0.091  -1.097  -1.021  0.00  0.00    -0.031 A 
ATOM     22  C   UNL     1      -0.399  -2.351  -0.527  0.00  0.00    +0.005 A 
ATOM     23  C   UNL     1      -0.528  -3.422  -1.391  0.00  0.00    +0.004 A 
ATOM     24  C   UNL     1      -0.351  -3.239  -2.749  0.00  0.00    -0.045 A 
ATOM     25  C   UNL     1      -0.044  -1.986  -3.244  0.00  0.00    +0.004 A 
ATOM     26  C   UNL     1       0.081  -0.913  -2.380  0.00  0.00    +0.005 A 
BRANCH  24  27
ATOM     27  C   UNL     1      -0.491  -4.407  -3.691  0.00  0.00    +0.013 C 
ATOM     28  C   UNL     1      -1.611  -4.122  -4.694  0.00  0.00    +0.012 C 
ATOM     29  C   UNL     1       0.825  -4.618  -4.442  0.00  0.00    +0.012 C 
ENDBRANCH  24  27
ENDBRANCH  20  21
ENDBRANCH  17  20
ENDBRANCH   1  17
TORSDOF 6
