REMARK  Name = ZINC20465791
REMARK  13 active torsions:
REMARK  status: ('A' for Active; 'I' for Inactive)
REMARK    1  A    between atoms: C_1  and  C_2
REMARK    2  A    between atoms: C_5  and  S_8
REMARK    3  A    between atoms: S_8  and  N_11
REMARK    4  A    between atoms: N_11  and  C_12
REMARK    5  A    between atoms: C_12  and  C_13
REMARK    6  A    between atoms: C_15  and  N_25
REMARK    7  A    between atoms: C_17  and  O_24
REMARK    8  A    between atoms: C_19  and  C_22
REMARK    9  A    between atoms: C_22  and  O_23
REMARK   10  A    between atoms: N_25  and  C_26
REMARK   11  A    between atoms: N_25  and  C_27
REMARK   12  A    between atoms: C_27  and  C_28
REMARK   13  A    between atoms: C_28  and  C_29
REMARK                            x       y       z     vdW  Elec       q    Type
REMARK                         _______ _______ _______ _____ _____    ______ ____
ROOT
ATOM      1  C   UNL     1      -4.199   1.327   3.440  0.00  0.00    +0.123 C 
ATOM      2  C   UNL     1      -4.535   2.378   4.521  0.00  0.00    -0.007 C 
ATOM      3  C   UNL     1      -4.280   1.639   5.854  0.00  0.00    +0.134 C 
ATOM      4  C   UNL     1      -3.820   0.230   5.421  0.00  0.00    +0.171 C 
ATOM      5  O   UNL     1      -3.293   0.407   4.088  0.00  0.00    -0.369 OA
ENDROOT
BRANCH   2   6
ATOM      6  N   UNL     1      -3.650   3.544   4.398  0.00  0.00    +0.383 N 
ATOM      7  C   UNL     1      -4.020   4.589   5.362  0.00  0.00    -0.096 C 
ATOM      8  H   UNL     1      -3.776   3.958   3.386  0.00  0.00    -0.082 HD
BRANCH   6   9
ATOM      9  C   UNL     1      -2.242   3.156   4.556  0.00  0.00    -0.074 C 
BRANCH   9  10
ATOM     10  C   UNL     1      -1.345   4.232   3.941  0.00  0.00    +0.016 C 
BRANCH  10  11
ATOM     11  C   UNL     1       0.100   3.834   4.103  0.00  0.00    -0.049 A 
ATOM     12  C   UNL     1       0.802   4.225   5.227  0.00  0.00    +0.003 A 
ATOM     13  C   UNL     1       2.126   3.857   5.377  0.00  0.00    +0.000 A 
ATOM     14  C   UNL     1       2.750   3.104   4.400  0.00  0.00    +0.000 A 
ATOM     15  C   UNL     1       2.048   2.717   3.273  0.00  0.00    +0.000 A 
ATOM     16  C   UNL     1       0.723   3.082   3.125  0.00  0.00    +0.003 A 
ENDBRANCH  10  11
ENDBRANCH   9  10
ENDBRANCH   6   9
ENDBRANCH   2   6
BRANCH   3  17
ATOM     17  O   UNL     1      -3.252   2.294   6.601  0.00  0.00    -0.391 OA
ATOM     18  H   UNL     1      -2.944   1.897   7.579  0.00  0.00    +0.210 HD
ENDBRANCH   3  17
BRANCH   1  19
ATOM     19  C   UNL     1      -3.516   1.993   2.244  0.00  0.00    +0.136 C 
BRANCH  19  20
ATOM     20  N   UNL     1      -3.341   1.010   1.172  0.00  0.00    -0.188 NA
ATOM     21  H   UNL     1      -3.287  -0.062   1.412  0.00  0.00    +0.148 HD
BRANCH  20  22
ATOM     22  S   UNL     1      -2.977   1.514  -0.363  0.00  0.00    +0.058 S 
ATOM     23  O   UNL     1      -3.898   2.549  -0.680  0.00  0.00    -0.153 OA
ATOM     24  O   UNL     1      -2.846   0.342  -1.155  0.00  0.00    -0.153 OA
BRANCH  22  29
ATOM     25  C   UNL     1       2.483   4.075  -0.164  0.00  0.00    +0.044 C 
ATOM     26  C   UNL     1       1.119   3.434  -0.211  0.00  0.00    -0.050 A 
ATOM     27  C   UNL     1       1.000   2.081  -0.463  0.00  0.00    +0.005 A 
ATOM     28  C   UNL     1      -0.251   1.494  -0.506  0.00  0.00    +0.029 A 
ATOM     29  C   UNL     1      -1.382   2.261  -0.301  0.00  0.00    +0.105 A 
ATOM     30  C   UNL     1      -1.262   3.614  -0.044  0.00  0.00    +0.029 A 
ATOM     31  C   UNL     1      -0.012   4.201  -0.001  0.00  0.00    +0.005 A 
ENDBRANCH  22  29
ENDBRANCH  20  22
ENDBRANCH  19  20
ENDBRANCH   1  19
BRANCH   4  32
ATOM     32  C   UNL     1      -2.730  -0.288   6.362  0.00  0.00    +0.190 C 
BRANCH  32  33
ATOM     33  O   UNL     1      -2.402  -1.635   6.016  0.00  0.00    -0.392 OA
ATOM     34  H   UNL     1      -1.633  -2.177   6.586  0.00  0.00    +0.210 HD
ENDBRANCH  32  33
ENDBRANCH   4  32
TORSDOF 11
