REMARK  Name = ZINC13000324
REMARK  5 active torsions:
REMARK  status: ('A' for Active; 'I' for Inactive)
REMARK    1  A    between atoms: C_4  and  C_7
REMARK    2  A    between atoms: N_12  and  C_15
REMARK    3  A    between atoms: C_15  and  C_16
REMARK    4  A    between atoms: N_18  and  C_19
REMARK    5  A    between atoms: C_20  and  C_28
REMARK                            x       y       z     vdW  Elec       q    Type
REMARK                         _______ _______ _______ _____ _____    ______ ____
ROOT
ATOM      1  C   UNL     1       4.992  -6.770  -1.193  0.00  0.00    +0.232 C 
ATOM      2  O   UNL     1       5.678  -6.465  -0.240  0.00  0.00    -0.274 OA
ATOM      3  N   UNL     1       5.237  -7.915  -1.859  0.00  0.00    -0.278 N 
ATOM      4  H   UNL     1       4.689  -8.160  -2.621  0.00  0.00    +0.155 HD
ENDROOT
BRANCH   3   5
ATOM      5  C   UNL     1       6.272  -8.745  -1.456  0.00  0.00    +0.084 A 
ATOM      6  C   UNL     1       6.670  -9.947  -2.019  0.00  0.00    +0.068 A 
ATOM      7  C   UNL     1       7.794 -10.630  -1.403  0.00  0.00    -0.023 A 
ATOM      8  C   UNL     1       8.315  -9.985  -0.336  0.00  0.00    -0.004 A 
ATOM      9  S   UNL     1       7.337  -8.520  -0.177  0.00  0.00    -0.077 S 
ATOM     10  C   UNL     1       9.469 -10.429   0.508  0.00  0.00    +0.043 C 
ATOM     11  C   UNL     1       9.738 -11.912   0.215  0.00  0.00    +0.005 C 
ATOM     12  C   UNL     1       9.774 -12.119  -1.302  0.00  0.00    +0.005 C 
ATOM     13  C   UNL     1       8.368 -11.954  -1.884  0.00  0.00    +0.037 C 
BRANCH   6  14
ATOM     14  C   UNL     1       5.984 -10.507  -3.188  0.00  0.00    +0.244 C 
ATOM     15  O   UNL     1       6.361 -10.223  -4.309  0.00  0.00    -0.270 OA
ATOM     16  N   UNL     1       4.935 -11.337  -3.020  0.00  0.00    -0.325 N 
ATOM     17  H   UNL     1       4.634 -11.563  -2.126  0.00  0.00    +0.145 HD
ATOM     18  H   UNL     1       4.481 -11.707  -3.793  0.00  0.00    +0.145 HD
ENDBRANCH   6  14
ENDBRANCH   3   5
BRANCH   1  19
ATOM     19  C   UNL     1       3.867  -5.869  -1.631  0.00  0.00    +0.181 C 
BRANCH  19  25
ATOM     20  C   UNL     1       3.696  -0.685  -0.037  0.00  0.00    +0.247 C 
ATOM     21  O   UNL     1       4.734  -0.064  -0.151  0.00  0.00    -0.270 OA
ATOM     22  N   UNL     1       3.720  -2.029   0.057  0.00  0.00    -0.295 N 
ATOM     23  C   UNL     1       2.473  -2.809   0.061  0.00  0.00    +0.123 C 
ATOM     24  C   UNL     1       2.587  -3.915  -0.993  0.00  0.00    +0.104 C 
ATOM     25  N   UNL     1       3.808  -4.695  -0.750  0.00  0.00    -0.291 NA
ATOM     26  C   UNL     1       5.010  -3.863  -0.900  0.00  0.00    +0.104 C 
ATOM     27  C   UNL     1       4.996  -2.756   0.152  0.00  0.00    +0.123 C 
BRANCH  20  31
ATOM     28  C   UNL     1      -0.014   1.383   0.061  0.00  0.00    +0.000 A 
ATOM     29  C   UNL     1       0.990   1.808  -0.791  0.00  0.00    +0.001 A 
ATOM     30  C   UNL     1       2.197   1.142  -0.828  0.00  0.00    +0.013 A 
ATOM     31  C   UNL     1       2.405   0.035  -0.003  0.00  0.00    +0.037 A 
ATOM     32  C   UNL     1       1.388  -0.390   0.855  0.00  0.00    +0.013 A 
ATOM     33  C   UNL     1       0.186   0.286   0.881  0.00  0.00    +0.001 A 
ENDBRANCH  20  31
ENDBRANCH  19  25
ENDBRANCH   1  19
TORSDOF 5
