REMARK  Name = ZINC35167813
REMARK  8 active torsions:
REMARK  status: ('A' for Active; 'I' for Inactive)
REMARK    1  A    between atoms: C_1  and  C_2
REMARK    2  A    between atoms: C_2  and  N_3
REMARK    3  A    between atoms: N_6  and  C_9
REMARK    4  A    between atoms: C_14  and  N_15
REMARK    5  A    between atoms: C_16  and  C_18
REMARK    6  A    between atoms: C_18  and  S_19
REMARK    7  A    between atoms: S_19  and  C_20
REMARK    8  A    between atoms: C_22  and  C_25
REMARK                            x       y       z     vdW  Elec       q    Type
REMARK                         _______ _______ _______ _____ _____    ______ ____
ROOT
ATOM      1  N   UNL     1       3.337  -2.332  -5.351  0.00  0.00    -0.283 N 
ATOM      2  C   UNL     1       3.333  -2.880  -6.583  0.00  0.00    +0.227 C 
ATOM      3  O   UNL     1       3.862  -3.955  -6.770  0.00  0.00    -0.275 OA
ATOM      4  H   UNL     1       2.846  -1.513  -5.183  0.00  0.00    +0.155 HD
ENDROOT
BRANCH   1  10
ATOM      5  C   UNL     1       3.683  -2.728  -2.986  0.00  0.00    +0.051 A 
ATOM      6  C   UNL     1       4.389  -3.344  -1.964  0.00  0.00    +0.026 A 
ATOM      7  C   UNL     1       5.459  -4.167  -2.261  0.00  0.00    +0.022 A 
ATOM      8  C   UNL     1       5.829  -4.379  -3.578  0.00  0.00    +0.043 A 
ATOM      9  C   UNL     1       5.129  -3.770  -4.603  0.00  0.00    +0.045 A 
ATOM     10  C   UNL     1       4.051  -2.947  -4.313  0.00  0.00    +0.056 A 
ATOM     11 CL   UNL     1       7.174  -5.414  -3.943  0.00  0.00    -0.083 Cl
BRANCH   5  15
ATOM     12  N   UNL     1       0.701  -0.487  -1.196  0.00  0.00    +0.382 N 
ATOM     13  C   UNL     1       2.105  -0.061  -1.160  0.00  0.00    -0.060 C 
ATOM     14  C   UNL     1       2.790  -0.452  -2.473  0.00  0.00    +0.086 C 
ATOM     15  N   UNL     1       2.599  -1.895  -2.687  0.00  0.00    -0.332 N 
ATOM     16  C   UNL     1       1.235  -2.437  -2.579  0.00  0.00    +0.086 C 
ATOM     17  C   UNL     1       0.624  -1.952  -1.260  0.00  0.00    -0.060 C 
ATOM     18  H   UNL     1       0.253  -0.091  -2.009  0.00  0.00    -0.082 HD
BRANCH  12  20
ATOM     19  C   UNL     1      -0.013   1.515   0.022  0.00  0.00    -0.017 C 
ATOM     20  C   UNL     1       0.016  -0.015   0.016  0.00  0.00    -0.082 C 
ENDBRANCH  12  20
ENDBRANCH   5  15
ENDBRANCH   1  10
BRANCH   2  21
ATOM     21  C   UNL     1       2.671  -2.156  -7.727  0.00  0.00    +0.172 C 
BRANCH  21  22
ATOM     22  S   UNL     1       2.833  -3.143  -9.241  0.00  0.00    -0.089 S 
BRANCH  22  23
ATOM     23  C   UNL     1       2.021  -2.175 -10.469  0.00  0.00    +0.136 A 
ATOM     24  N   UNL     1       1.842  -2.432 -11.752  0.00  0.00    -0.233 NA
ATOM     25  C   UNL     1       1.196  -1.577 -12.542  0.00  0.00    +0.079 A 
ATOM     26  C   UNL     1       0.711  -0.415 -12.013  0.00  0.00    +0.076 A 
ATOM     27  S   UNL     1       1.212  -0.589 -10.306  0.00  0.00    -0.069 S 
BRANCH  25  28
ATOM     28  C   UNL     1       1.006  -1.883 -13.980  0.00  0.00    +0.001 A 
ATOM     29  C   UNL     1       0.335  -0.981 -14.804  0.00  0.00    +0.011 A 
ATOM     30  C   UNL     1       0.161  -1.270 -16.142  0.00  0.00    +0.020 A 
ATOM     31  C   UNL     1       0.653  -2.454 -16.667  0.00  0.00    +0.041 A 
ATOM     32  C   UNL     1       1.321  -3.352 -15.853  0.00  0.00    +0.020 A 
ATOM     33  C   UNL     1       1.504  -3.070 -14.515  0.00  0.00    +0.011 A 
ATOM     34 CL   UNL     1       0.430  -2.811 -18.351  0.00  0.00    -0.084 Cl
ENDBRANCH  25  28
ENDBRANCH  22  23
ENDBRANCH  21  22
ENDBRANCH   2  21
TORSDOF 7
