REMARK  Name = ZINC37125089
REMARK  7 active torsions:
REMARK  status: ('A' for Active; 'I' for Inactive)
REMARK    1  A    between atoms: C_1  and  C_2
REMARK    2  A    between atoms: C_2  and  C_4
REMARK    3  A    between atoms: C_2  and  N_11
REMARK    4  A    between atoms: C_7  and  O_10
REMARK    5  A    between atoms: N_11  and  C_12
REMARK    6  A    between atoms: C_17  and  C_18
REMARK    7  A    between atoms: C_18  and  C_19
REMARK                            x       y       z     vdW  Elec       q    Type
REMARK                         _______ _______ _______ _____ _____    ______ ____
ROOT
ATOM      1  N   UNL     1       0.711  -0.489   1.189  0.00  0.00    -0.337 N 
ATOM      2  H   UNL     1       1.654  -0.707   1.135  0.00  0.00    +0.147 HD
ENDROOT
BRANCH   1   3
ATOM      3  C   UNL     1       0.027  -0.639   2.398  0.00  0.00    +0.031 A 
ATOM      4  C   UNL     1      -1.326  -0.333   2.475  0.00  0.00    +0.023 A 
ATOM      5  C   UNL     1      -1.998  -0.482   3.672  0.00  0.00    +0.002 A 
ATOM      6  C   UNL     1      -1.327  -0.935   4.793  0.00  0.00    +0.000 A 
ATOM      7  C   UNL     1       0.020  -1.240   4.719  0.00  0.00    +0.006 A 
ATOM      8  C   UNL     1       0.698  -1.099   3.524  0.00  0.00    -0.018 A 
BRANCH   8   9
ATOM      9  C   UNL     1       2.164  -1.438   3.443  0.00  0.00    +0.132 C 
BRANCH   9  10
ATOM     10  C   UNL     1       2.980  -0.187   3.646  0.00  0.00    +0.215 C 
ATOM     11  O   UNL     1       2.426   0.875   3.837  0.00  0.00    -0.276 OA
ATOM     12  N   UNL     1       4.326  -0.249   3.615  0.00  0.00    -0.329 N 
ATOM     13  H   UNL     1       4.769  -1.098   3.462  0.00  0.00    +0.145 HD
ATOM     14  H   UNL     1       4.851   0.556   3.746  0.00  0.00    +0.145 HD
ENDBRANCH   9  10
ENDBRANCH   8   9
ENDBRANCH   1   3
BRANCH   1  16
ATOM     15  C   UNL     1      -0.019   1.526   0.010  0.00  0.00    +0.033 C 
ATOM     16  C   UNL     1       0.002  -0.004   0.002  0.00  0.00    +0.098 C 
BRANCH  16  17
ATOM     17  C   UNL     1       0.707  -0.490  -1.238  0.00  0.00    -0.027 A 
ATOM     18  C   UNL     1       2.089  -0.510  -1.283  0.00  0.00    +0.009 A 
ATOM     19  C   UNL     1       2.738  -0.955  -2.418  0.00  0.00    +0.046 A 
ATOM     20  C   UNL     1       2.002  -1.382  -3.514  0.00  0.00    +0.117 A 
ATOM     21  C   UNL     1       0.616  -1.361  -3.466  0.00  0.00    +0.046 A 
ATOM     22  C   UNL     1      -0.028  -0.920  -2.327  0.00  0.00    +0.009 A 
BRANCH  20  23
ATOM     23  O   UNL     1       2.638  -1.819  -4.633  0.00  0.00    -0.507 OA
ATOM     24  H   UNL     1       2.821  -2.769  -4.635  0.00  0.00    +0.292 HD
ENDBRANCH  20  23
ENDBRANCH  16  17
ENDBRANCH   1  16
TORSDOF 6
