REMARK  Name = ZINC21083276
REMARK  9 active torsions:
REMARK  status: ('A' for Active; 'I' for Inactive)
REMARK    1  A    between atoms: C_1  and  C_2
REMARK    2  A    between atoms: C_9  and  C_11
REMARK    3  A    between atoms: C_11  and  S_12
REMARK    4  A    between atoms: S_12  and  C_13
REMARK    5  A    between atoms: N_19  and  N_20
REMARK    6  A    between atoms: C_21  and  C_22
REMARK    7  A    between atoms: C_27  and  O_28
REMARK    8  A    between atoms: O_28  and  C_29
REMARK    9  A    between atoms: C_29  and  C_30
REMARK                            x       y       z     vdW  Elec       q    Type
REMARK                         _______ _______ _______ _____ _____    ______ ____
ROOT
ATOM      1  C   UNL     1      -1.421  -7.413   3.941  0.00  0.00    +0.210 A 
ATOM      2  N   UNL     1      -2.411  -8.260   4.239  0.00  0.00    -0.186 NA
ATOM      3  C   UNL     1      -1.924  -9.304   4.877  0.00  0.00    +0.232 A 
ATOM      4  N   UNL     1      -0.590  -9.134   4.997  0.00  0.00    -0.245 N 
ATOM      5  H   UNL     1       0.037  -9.740   5.421  0.00  0.00    +0.192 HD
ATOM      6  N   UNL     1      -0.289  -7.909   4.380  0.00  0.00    -0.144 NA
ATOM      7  N   UNL     1      -2.651 -10.384   5.343  0.00  0.00    -0.205 N 
ATOM      8  H   UNL     1      -2.193 -11.143   5.737  0.00  0.00    +0.177 HD
ENDROOT
BRANCH   7   9
ATOM      9  N   UNL     1      -4.049 -10.382   5.246  0.00  0.00    -0.187 NA
ATOM     10  C   UNL     1      -4.737 -11.349   5.771  0.00  0.00    +0.142 C 
BRANCH  10  11
ATOM     11  C   UNL     1      -6.197 -11.406   5.574  0.00  0.00    +0.036 A 
ATOM     12  C   UNL     1      -6.859 -10.363   4.923  0.00  0.00    +0.013 A 
ATOM     13  C   UNL     1      -8.225 -10.423   4.741  0.00  0.00    +0.001 A 
ATOM     14  C   UNL     1      -8.943 -11.514   5.202  0.00  0.00    +0.004 A 
ATOM     15  C   UNL     1      -8.299 -12.552   5.848  0.00  0.00    +0.046 A 
ATOM     16  C   UNL     1      -6.927 -12.511   6.033  0.00  0.00    +0.130 A 
BRANCH  16  17
ATOM     17  O   UNL     1      -6.293 -13.534   6.663  0.00  0.00    -0.487 OA
BRANCH  17  18
ATOM     18  C   UNL     1      -7.095 -14.647   7.062  0.00  0.00    +0.266 C 
BRANCH  18  19
ATOM     19  C   UNL     1      -6.230 -15.666   7.758  0.00  0.00    +0.008 A 
ATOM     20  C   UNL     1      -4.891 -15.400   7.980  0.00  0.00    +0.008 A 
ATOM     21  C   UNL     1      -4.097 -16.335   8.617  0.00  0.00    +0.000 A 
ATOM     22  C   UNL     1      -4.641 -17.536   9.034  0.00  0.00    +0.001 A 
ATOM     23  C   UNL     1      -5.979 -17.802   8.813  0.00  0.00    +0.020 A 
ATOM     24  C   UNL     1      -6.776 -16.865   8.180  0.00  0.00    +0.047 A 
ATOM     25 CL   UNL     1      -8.458 -17.196   7.907  0.00  0.00    -0.083 Cl
ENDBRANCH  18  19
ENDBRANCH  17  18
ENDBRANCH  16  17
ENDBRANCH  10  11
ENDBRANCH   7   9
BRANCH   1  26
ATOM     26  S   UNL     1      -1.605  -5.881   3.089  0.00  0.00    -0.077 S 
BRANCH  26  27
ATOM     27  C   UNL     1       0.083  -5.226   2.993  0.00  0.00    +0.151 C 
BRANCH  27  36
ATOM     28  C   UNL     1      -0.168   1.842   0.677  0.00  0.00    +0.044 C 
ATOM     29  C   UNL     1      -0.060   0.339   0.688  0.00  0.00    -0.048 A 
ATOM     30  C   UNL     1       0.125  -0.347  -0.504  0.00  0.00    +0.005 A 
ATOM     31  C   UNL     1       0.226  -1.710  -0.515  0.00  0.00    +0.030 A 
ATOM     32  C   UNL     1       0.141  -2.424   0.684  0.00  0.00    +0.089 A 
ATOM     33  C   UNL     1      -0.046  -1.729   1.891  0.00  0.00    +0.066 A 
ATOM     34  C   UNL     1      -0.141  -0.344   1.883  0.00  0.00    +0.031 A 
ATOM     35  N   UNL     1      -0.089  -2.691   2.881  0.00  0.00    -0.341 N 
ATOM     36  C   UNL     1       0.068  -3.900   2.277  0.00  0.00    +0.118 A 
ATOM     37  N   UNL     1       0.202  -3.745   0.993  0.00  0.00    -0.232 NA
ATOM     38  H   UNL     1      -0.208  -2.533   3.830  0.00  0.00    +0.167 HD
ENDBRANCH  27  36
ENDBRANCH  26  27
ENDBRANCH   1  26
TORSDOF 8
