REMARK  Name = ZINC13024664
REMARK  14 active torsions:
REMARK  status: ('A' for Active; 'I' for Inactive)
REMARK    1  A    between atoms: C_1  and  C_2
REMARK    2  A    between atoms: C_2  and  C_3
REMARK    3  A    between atoms: C_3  and  C_4
REMARK    4  A    between atoms: C_3  and  C_5
REMARK    5  A    between atoms: C_3  and  N_6
REMARK    6  A    between atoms: C_7  and  C_9
REMARK    7  A    between atoms: C_9  and  C_11
REMARK    8  A    between atoms: C_9  and  N_19
REMARK    9  A    between atoms: C_14  and  O_17
REMARK   10  A    between atoms: O_17  and  C_18
REMARK   11  A    between atoms: N_19  and  C_20
REMARK   12  A    between atoms: C_25  and  C_26
REMARK   13  A    between atoms: C_27  and  C_29
REMARK   14  A    between atoms: C_29  and  N_30
REMARK                            x       y       z     vdW  Elec       q    Type
REMARK                         _______ _______ _______ _____ _____    ______ ____
ROOT
ATOM      1  N   UNL     1      -4.666   3.523  -1.907  0.00  0.00    -0.254 N 
ATOM      2  C   UNL     1      -4.159   4.683  -1.446  0.00  0.00    +0.242 C 
ATOM      3  O   UNL     1      -4.564   5.739  -1.885  0.00  0.00    -0.273 OA
ENDROOT
BRANCH   1   4
ATOM      4  C   UNL     1      -4.199   2.305  -1.401  0.00  0.00    +0.040 A 
ATOM      5  C   UNL     1      -4.734   1.788  -0.228  0.00  0.00    +0.024 A 
ATOM      6  C   UNL     1      -4.271   0.586   0.269  0.00  0.00    +0.002 A 
ATOM      7  C   UNL     1      -3.275  -0.103  -0.400  0.00  0.00    +0.000 A 
ATOM      8  C   UNL     1      -2.741   0.408  -1.568  0.00  0.00    +0.005 A 
ATOM      9  C   UNL     1      -3.204   1.608  -2.073  0.00  0.00    -0.029 A 
ATOM     10  C   UNL     1      -2.626   2.162  -3.349  0.00  0.00    +0.045 C 
ENDBRANCH   1   4
BRANCH   1  11
ATOM     11  C   UNL     1      -5.707   3.537  -2.938  0.00  0.00    +0.197 C 
BRANCH  11  12
ATOM     12  C   UNL     1      -6.943   4.207  -2.396  0.00  0.00    -0.018 A 
ATOM     13  C   UNL     1      -7.383   3.914  -1.119  0.00  0.00    +0.009 A 
ATOM     14  C   UNL     1      -8.512   4.532  -0.618  0.00  0.00    +0.046 A 
ATOM     15  C   UNL     1      -9.212   5.438  -1.401  0.00  0.00    +0.120 A 
ATOM     16  C   UNL     1      -8.771   5.726  -2.685  0.00  0.00    +0.046 A 
ATOM     17  C   UNL     1      -7.638   5.111  -3.179  0.00  0.00    +0.009 A 
BRANCH  15  18
ATOM     18  O   UNL     1     -10.327   6.042  -0.913  0.00  0.00    -0.495 OA
ATOM     19  C   UNL     1     -10.722   5.697   0.417  0.00  0.00    +0.277 C 
ENDBRANCH  15  18
ENDBRANCH  11  12
BRANCH  11  21
ATOM     20  N   UNL     1      -6.279   1.825  -4.630  0.00  0.00    -0.308 N 
ATOM     21  C   UNL     1      -6.037   2.122  -3.337  0.00  0.00    +0.239 C 
ATOM     22  O   UNL     1      -6.086   1.250  -2.496  0.00  0.00    -0.273 OA
ATOM     23  H   UNL     1      -6.240   2.522  -5.303  0.00  0.00    +0.149 HD
BRANCH  20  24
ATOM     24  C   UNL     1      -6.600   0.449  -5.018  0.00  0.00    +0.029 C 
ATOM     25  C   UNL     1      -5.439  -0.472  -4.638  0.00  0.00    +0.031 C 
ATOM     26  C   UNL     1      -7.869  -0.003  -4.292  0.00  0.00    +0.031 C 
BRANCH  24  28
ATOM     27  C   UNL     1      -7.163  -1.051  -6.935  0.00  0.00    +0.006 C 
ATOM     28  C   UNL     1      -6.827   0.385  -6.529  0.00  0.00    +0.022 C 
ENDBRANCH  24  28
ENDBRANCH  20  24
ENDBRANCH  11  21
ENDBRANCH   1  11
BRANCH   2  29
ATOM     29  C   UNL     1      -3.089   4.669  -0.385  0.00  0.00    +0.242 C 
BRANCH  29  30
ATOM     30  N   UNL     1      -2.708   6.045  -0.057  0.00  0.00    -0.235 N 
ATOM     31  C   UNL     1      -1.719   6.790  -0.655  0.00  0.00    +0.090 A 
ATOM     32  C   UNL     1      -0.814   6.547  -1.683  0.00  0.00    +0.029 A 
ATOM     33  C   UNL     1       0.071   7.521  -2.053  0.00  0.00    +0.002 A 
ATOM     34  C   UNL     1       0.069   8.756  -1.418  0.00  0.00    +0.002 A 
ATOM     35  C   UNL     1      -0.812   9.021  -0.410  0.00  0.00    +0.032 A 
ATOM     36  C   UNL     1      -1.727   8.038  -0.008  0.00  0.00    +0.113 A 
ATOM     37  N   UNL     1      -2.692   8.006   0.932  0.00  0.00    -0.129 NA
ATOM     38  N   UNL     1      -3.281   6.862   0.929  0.00  0.00    -0.064 NA
ENDBRANCH  29  30
ENDBRANCH   2  29
TORSDOF 9
