REMARK  Name = ZINC09101825
REMARK  13 active torsions:
REMARK  status: ('A' for Active; 'I' for Inactive)
REMARK    1  A    between atoms: C_1  and  C_2
REMARK    2  A    between atoms: C_2  and  C_3
REMARK    3  A    between atoms: N_5  and  C_6
REMARK    4  A    between atoms: C_9  and  C_12
REMARK    5  A    between atoms: C_12  and  C_14
REMARK    6  A    between atoms: C_14  and  S_15
REMARK    7  A    between atoms: S_15  and  C_16
REMARK    8  A    between atoms: C_19  and  C_28
REMARK    9  A    between atoms: N_20  and  C_21
REMARK   10  A    between atoms: C_28  and  C_30
REMARK   11  A    between atoms: C_28  and  N_58
REMARK   12  A    between atoms: C_31  and  N_58
REMARK   13  A    between atoms: C_32  and  N_58
REMARK                            x       y       z     vdW  Elec       q    Type
REMARK                         _______ _______ _______ _____ _____    ______ ____
ROOT
ATOM      1  C   UNL     1       3.716   6.734  -0.363  0.00  0.00    +0.196 A 
ATOM      2  N   UNL     1       4.812   6.034  -0.547  0.00  0.00    -0.122 NA
ATOM      3  N   UNL     1       5.814   6.823  -0.706  0.00  0.00    -0.135 NA
ATOM      4  C   UNL     1       5.424   8.064  -0.634  0.00  0.00    +0.125 A 
ATOM      5  N   UNL     1       4.072   8.054  -0.417  0.00  0.00    -0.275 N 
ENDROOT
BRANCH   5   6
ATOM      6  C   UNL     1       3.227   9.165  -0.278  0.00  0.00    +0.050 A 
ATOM      7  C   UNL     1       3.036  10.032  -1.346  0.00  0.00    +0.028 A 
ATOM      8  C   UNL     1       2.200  11.123  -1.207  0.00  0.00    +0.022 A 
ATOM      9  C   UNL     1       1.562  11.358  -0.002  0.00  0.00    +0.041 A 
ATOM     10  C   UNL     1       1.755  10.499   1.065  0.00  0.00    +0.022 A 
ATOM     11  C   UNL     1       2.586   9.404   0.930  0.00  0.00    +0.028 A 
ATOM     12 CL   UNL     1       0.517  12.734   0.170  0.00  0.00    -0.084 Cl
ENDBRANCH   5   6
BRANCH   4  13
ATOM     13  C   UNL     1       6.298   9.284  -0.769  0.00  0.00    -0.003 C 
ATOM     14  C   UNL     1       7.117   9.469   0.510  0.00  0.00    -0.005 C 
BRANCH  13  17
ATOM     15  C   UNL     1       7.992  10.331  -2.147  0.00  0.00    -0.096 C 
ATOM     16  C   UNL     1       8.082   7.950  -1.716  0.00  0.00    -0.096 C 
ATOM     17  N   UNL     1       7.190   9.108  -1.934  0.00  0.00    +0.382 N 
ATOM     18  H   UNL     1       6.617   8.935  -2.769  0.00  0.00    -0.082 HD
ENDBRANCH  13  17
ENDBRANCH   4  13
BRANCH   1  19
ATOM     19  S   UNL     1       2.095   6.095  -0.103  0.00  0.00    -0.078 S 
BRANCH  19  20
ATOM     20  C   UNL     1       2.443   4.320  -0.172  0.00  0.00    +0.157 C 
BRANCH  20  21
ATOM     21  C   UNL     1       1.164   3.549   0.031  0.00  0.00    +0.173 C 
ATOM     22  O   UNL     1       0.120   4.142   0.206  0.00  0.00    -0.291 OA
BRANCH  21  26
ATOM     23  C   UNL     1       1.213  -0.686  -0.007  0.00  0.00    +0.033 A 
ATOM     24  C   UNL     1       0.014  -0.008   0.193  0.00  0.00    +0.024 A 
ATOM     25  C   UNL     1      -0.007   1.363   0.207  0.00  0.00    +0.013 A 
ATOM     26  C   UNL     1       1.181   2.081   0.018  0.00  0.00    +0.018 A 
ATOM     27  C   UNL     1       2.385   1.395  -0.183  0.00  0.00    +0.013 A 
ATOM     28  C   UNL     1       2.396   0.024  -0.195  0.00  0.00    +0.024 A 
BRANCH  23  31
ATOM     29  C   UNL     1       0.174  -2.761  -0.507  0.00  0.00    +0.217 C 
ATOM     30  O   UNL     1      -0.748  -2.165  -1.021  0.00  0.00    -0.275 OA
ATOM     31  N   UNL     1       1.230  -2.079  -0.020  0.00  0.00    -0.286 N 
ATOM     32  H   UNL     1       2.001  -2.558   0.322  0.00  0.00    +0.155 HD
BRANCH  29  34
ATOM     33  C   UNL     1      -1.157  -4.785  -1.034  0.00  0.00    +0.013 C 
ATOM     34  C   UNL     1       0.140  -4.264  -0.412  0.00  0.00    +0.093 C 
ENDBRANCH  29  34
ENDBRANCH  23  31
ENDBRANCH  21  26
ENDBRANCH  20  21
ENDBRANCH  19  20
ENDBRANCH   1  19
TORSDOF 9
