REMARK  Name = ZINC45918883
REMARK  4 active torsions:
REMARK  status: ('A' for Active; 'I' for Inactive)
REMARK    1  A    between atoms: C_4  and  C_8
REMARK    2  A    between atoms: C_15  and  O_21
REMARK    3  A    between atoms: C_16  and  C_19
REMARK    4  A    between atoms: C_19  and  O_20
REMARK                            x       y       z     vdW  Elec       q    Type
REMARK                         _______ _______ _______ _____ _____    ______ ____
ROOT
ATOM      1  C   UNL     1       3.691  -0.679  -0.038  0.00  0.00    +0.062 C 
ATOM      2  C   UNL     1       3.926  -1.674   0.854  0.00  0.00    +0.176 C 
ATOM      3  C   UNL     1       5.158  -2.470   0.963  0.00  0.00    +0.231 C 
ATOM      4  O   UNL     1       6.167  -2.381   0.285  0.00  0.00    -0.283 OA
ATOM      5  C   UNL     1       4.899  -3.401   2.077  0.00  0.00    +0.068 A 
ATOM      6  C   UNL     1       5.659  -4.407   2.676  0.00  0.00    +0.019 A 
ATOM      7  C   UNL     1       5.140  -5.123   3.717  0.00  0.00    +0.047 A 
ATOM      8  C   UNL     1       3.856  -4.851   4.182  0.00  0.00    +0.126 A 
ATOM      9  C   UNL     1       3.090  -3.856   3.596  0.00  0.00    +0.062 A 
ATOM     10  C   UNL     1       3.603  -3.118   2.536  0.00  0.00    +0.148 A 
ATOM     11  O   UNL     1       3.072  -2.110   1.810  0.00  0.00    -0.451 OA
ENDROOT
BRANCH   1  15
ATOM     12  C   UNL     1      -0.017   1.380   0.010  0.00  0.00    +0.004 A 
ATOM     13  C   UNL     1       1.167   2.097   0.002  0.00  0.00    +0.039 A 
ATOM     14  C   UNL     1       2.379   1.436  -0.013  0.00  0.00    +0.132 A 
ATOM     15  C   UNL     1       2.408   0.034  -0.021  0.00  0.00    +0.032 A 
ATOM     16  C   UNL     1       1.204  -0.683  -0.013  0.00  0.00    +0.051 A 
ATOM     17  C   UNL     1       0.002  -0.004   0.002  0.00  0.00    +0.021 A 
ATOM     18 CL   UNL     1       1.223  -2.418  -0.023  0.00  0.00    -0.083 Cl
ATOM     19  F   UNL     1       3.534   2.137  -0.022  0.00  0.00    -0.205 F 
ENDBRANCH   1  15
BRANCH   8  20
ATOM     20  O   UNL     1       3.349  -5.568   5.217  0.00  0.00    -0.506 OA
ATOM     21  H   UNL     1       3.533  -5.187   6.087  0.00  0.00    +0.292 HD
ENDBRANCH   8  20
BRANCH   9  22
ATOM     22  C   UNL     1       1.702  -3.574   4.109  0.00  0.00    +0.198 C 
BRANCH  22  23
ATOM     23  O   UNL     1       1.766  -2.586   5.139  0.00  0.00    -0.390 OA
ATOM     24  H   UNL     1       0.906  -2.354   5.516  0.00  0.00    +0.210 HD
ENDBRANCH  22  23
ENDBRANCH   9  22
TORSDOF 4
