REMARK  Name = ZINC67584706
REMARK  8 active torsions:
REMARK  status: ('A' for Active; 'I' for Inactive)
REMARK    1  A    between atoms: C_1  and  C_2
REMARK    2  A    between atoms: C_2  and  C_3
REMARK    3  A    between atoms: C_3  and  C_4
REMARK    4  A    between atoms: N_6  and  C_7
REMARK    5  A    between atoms: C_11  and  N_14
REMARK    6  A    between atoms: C_12  and  C_13
REMARK    7  A    between atoms: C_25  and  C_27
REMARK    8  A    between atoms: C_27  and  C_28
REMARK                            x       y       z     vdW  Elec       q    Type
REMARK                         _______ _______ _______ _____ _____    ______ ____
ROOT
ATOM      1  N   UNL     1       2.815  -6.889  -4.080  0.00  0.00    -0.269 N 
ATOM      2  C   UNL     1       2.814  -8.236  -4.044  0.00  0.00    +0.307 C 
ATOM      3  O   UNL     1       2.296  -8.819  -3.111  0.00  0.00    -0.252 OA
ATOM      4  N   UNL     1       3.387  -8.937  -5.043  0.00  0.00    -0.278 N 
ATOM      5  C   UNL     1       4.131  -8.247  -6.106  0.00  0.00    +0.115 C 
ATOM      6  C   UNL     1       3.388  -8.464  -7.434  0.00  0.00    +0.062 C 
ATOM      7  C   UNL     1       2.959  -9.893  -7.514  0.00  0.00    -0.004 A 
ATOM      8  C   UNL     1       2.882 -10.801  -6.504  0.00  0.00    -0.017 A 
ATOM      9  C   UNL     1       2.440 -12.079  -6.843  0.00  0.00    +0.013 A 
ATOM     10  C   UNL     1       2.118 -12.365  -8.125  0.00  0.00    +0.046 A 
ATOM     11  S   UNL     1       2.429 -10.806  -8.939  0.00  0.00    -0.101 S 
ATOM     12  C   UNL     1       3.281 -10.402  -5.080  0.00  0.00    +0.108 C 
ATOM     13  H   UNL     1       3.293  -6.423  -4.783  0.00  0.00    +0.156 HD
ENDROOT
BRANCH   1  18
ATOM     14  C   UNL     1       0.887  -4.214  -2.443  0.00  0.00    +0.038 A 
ATOM     15  C   UNL     1       0.765  -4.730  -1.159  0.00  0.00    +0.024 A 
ATOM     16  C   UNL     1       1.322  -5.955  -0.850  0.00  0.00    +0.004 A 
ATOM     17  C   UNL     1       2.002  -6.672  -1.816  0.00  0.00    +0.024 A 
ATOM     18  C   UNL     1       2.127  -6.162  -3.102  0.00  0.00    +0.039 A 
ATOM     19  C   UNL     1       1.563  -4.934  -3.417  0.00  0.00    -0.008 A 
ATOM     20  C   UNL     1       1.691  -4.380  -4.813  0.00  0.00    +0.047 C 
BRANCH  14  23
ATOM     21  C   UNL     1      -0.655  -2.462  -1.980  0.00  0.00    +0.217 C 
ATOM     22  O   UNL     1      -1.127  -3.127  -1.083  0.00  0.00    -0.275 OA
ATOM     23  N   UNL     1       0.322  -2.972  -2.756  0.00  0.00    -0.285 N 
ATOM     24  H   UNL     1       0.634  -2.479  -3.530  0.00  0.00    +0.155 HD
BRANCH  21  25
ATOM     25  C   UNL     1      -1.161  -1.064  -2.228  0.00  0.00    +0.096 C 
BRANCH  25  27
ATOM     26  C   UNL     1      -2.774   0.686  -1.469  0.00  0.00    +0.004 C 
ATOM     27  C   UNL     1      -2.260  -0.733  -1.217  0.00  0.00    +0.006 C 
ENDBRANCH  25  27
ENDBRANCH  21  25
ENDBRANCH  14  23
ENDBRANCH   1  18
BRANCH  12  28
ATOM     28  C   UNL     1       4.630 -11.028  -4.720  0.00  0.00    +0.024 C 
ATOM     29  C   UNL     1       4.980 -10.688  -3.270  0.00  0.00    +0.006 C 
ENDBRANCH  12  28
TORSDOF 5
