REMARK  Name = ZINC21782847
REMARK  2 active torsions:
REMARK  status: ('A' for Active; 'I' for Inactive)
REMARK    1  A    between atoms: C_1  and  C_2
REMARK    2  A    between atoms: C_9  and  C_11
REMARK                            x       y       z     vdW  Elec       q    Type
REMARK                         _______ _______ _______ _____ _____    ______ ____
ROOT
ATOM      1  C   UNL     1       0.477  -4.260   2.010  0.00  0.00    +0.092 C 
ATOM      2  C   UNL     1       1.730  -4.854   2.721  0.00  0.00    +0.006 C 
ATOM      3  C   UNL     1       1.239  -6.315   3.002  0.00  0.00    +0.012 C 
ATOM      4  C   UNL     1      -0.081  -5.927   3.738  0.00  0.00    +0.045 C 
ATOM      5  C   UNL     1      -0.729  -4.902   2.741  0.00  0.00    +0.116 C 
ATOM      6  C   UNL     1      -1.286  -3.854   3.692  0.00  0.00    +0.312 C 
ATOM      7  O   UNL     1      -2.185  -3.087   3.440  0.00  0.00    -0.250 OA
ATOM      8  O   UNL     1      -0.620  -3.915   4.854  0.00  0.00    -0.461 OA
ATOM      9  C   UNL     1       0.428  -4.903   4.808  0.00  0.00    +0.181 C 
ATOM     10  C   UNL     1       1.682  -4.229   4.149  0.00  0.00    +0.049 C 
ENDROOT
BRANCH   1  18
ATOM     11  C   UNL     1      -0.467   1.497   0.100  0.00  0.00    +0.009 C 
ATOM     12  C   UNL     1      -0.411  -0.032   0.094  0.00  0.00    +0.003 C 
ATOM     13  C   UNL     1       0.104  -0.518  -1.263  0.00  0.00    +0.006 C 
ATOM     14  C   UNL     1       0.130  -2.048  -1.282  0.00  0.00    +0.019 C 
ATOM     15  C   UNL     1       1.083  -2.552  -0.194  0.00  0.00    +0.108 C 
ATOM     16  N   UNL     1       0.680  -1.971   1.094  0.00  0.00    -0.301 N 
ATOM     17  C   UNL     1       0.536  -0.513   1.198  0.00  0.00    +0.111 C 
ATOM     18  C   UNL     1       0.447  -2.761   2.161  0.00  0.00    +0.220 C 
ATOM     19  O   UNL     1       0.213  -2.266   3.243  0.00  0.00    -0.275 OA
ENDBRANCH   1  18
TORSDOF 1
