REMARK  Name = ZINC39761196
REMARK  10 active torsions:
REMARK  status: ('A' for Active; 'I' for Inactive)
REMARK    1  A    between atoms: C_1  and  C_2
REMARK    2  A    between atoms: C_2  and  C_3
REMARK    3  A    between atoms: C_3  and  C_5
REMARK    4  A    between atoms: C_3  and  S_17
REMARK    5  A    between atoms: N_7  and  C_8
REMARK    6  A    between atoms: C_11  and  N_14
REMARK    7  A    between atoms: S_17  and  C_18
REMARK    8  A    between atoms: C_21  and  C_26
REMARK    9  A    between atoms: N_22  and  C_23
REMARK   10  A    between atoms: C_23  and  C_24
REMARK                            x       y       z     vdW  Elec       q    Type
REMARK                         _______ _______ _______ _____ _____    ______ ____
ROOT
ATOM      1  C   UNL     1       0.706  -0.487  -1.427  0.00  0.00    +0.140 C 
ENDROOT
BRANCH   1   2
ATOM      2  C   UNL     1       0.489  -1.959  -1.671  0.00  0.00    +0.231 C 
ATOM      3  O   UNL     1      -0.338  -2.324  -2.479  0.00  0.00    -0.274 OA
ATOM      4  N   UNL     1       1.215  -2.868  -0.991  0.00  0.00    -0.285 N 
ATOM      5  H   UNL     1       1.922  -2.577  -0.394  0.00  0.00    +0.155 HD
BRANCH   4   6
ATOM      6  C   UNL     1       0.949  -4.233  -1.147  0.00  0.00    +0.034 A 
ATOM      7  C   UNL     1       1.983  -5.157  -1.071  0.00  0.00    +0.025 A 
ATOM      8  C   UNL     1       1.717  -6.503  -1.225  0.00  0.00    +0.034 A 
ATOM      9  C   UNL     1       0.423  -6.932  -1.454  0.00  0.00    +0.126 A 
ATOM     10  C   UNL     1      -0.609  -6.015  -1.530  0.00  0.00    +0.034 A 
ATOM     11  C   UNL     1      -0.351  -4.668  -1.371  0.00  0.00    +0.025 A 
BRANCH   9  12
ATOM     12  N   UNL     1       0.141  -8.376  -1.619  0.00  0.00    +0.056 N 
ATOM     13  O   UNL     1       1.042  -9.179  -1.553  0.00  0.00    -0.126 OA
ATOM     14  O   UNL     1      -0.990  -8.752  -1.819  0.00  0.00    -0.126 OA
ENDBRANCH   9  12
ENDBRANCH   4   6
ENDBRANCH   1   2
BRANCH   1  16
ATOM     15  C   UNL     1       0.295   1.393   0.166  0.00  0.00    +0.005 C 
ATOM     16  C   UNL     1      -0.031  -0.067  -0.154  0.00  0.00    +0.020 C 
ENDBRANCH   1  16
BRANCH   1  17
ATOM     17  S   UNL     1       0.067   0.460  -2.836  0.00  0.00    -0.073 S 
BRANCH  17  18
ATOM     18  C   UNL     1       1.108  -0.014  -4.176  0.00  0.00    +0.193 A 
ATOM     19  N   UNL     1       2.053  -0.928  -4.144  0.00  0.00    -0.122 NA
ATOM     20  N   UNL     1       2.617  -1.020  -5.295  0.00  0.00    -0.128 NA
ATOM     21  C   UNL     1       2.068  -0.171  -6.132  0.00  0.00    +0.166 A 
ATOM     22  N   UNL     1       1.081   0.495  -5.443  0.00  0.00    -0.298 N 
BRANCH  21  23
ATOM     23  C   UNL     1       2.437   0.029  -7.550  0.00  0.00    +0.033 A 
ATOM     24  C   UNL     1       1.447   0.065  -8.533  0.00  0.00    +0.013 A 
ATOM     25  C   UNL     1       1.798   0.252  -9.854  0.00  0.00    +0.001 A 
ATOM     26  C   UNL     1       3.128   0.403 -10.206  0.00  0.00    +0.001 A 
ATOM     27  C   UNL     1       4.114   0.367  -9.237  0.00  0.00    +0.016 A 
ATOM     28  C   UNL     1       3.777   0.187  -7.910  0.00  0.00    +0.029 A 
ATOM     29 BR   UNL     1       5.126   0.146  -6.586  0.00  0.00    -0.050 Br
ENDBRANCH  21  23
BRANCH  22  30
ATOM     30  C   UNL     1       0.189   1.537  -5.959  0.00  0.00    +0.152 C 
BRANCH  30  31
ATOM     31  C   UNL     1       0.874   2.876  -5.867  0.00  0.00    -0.013 C 
ATOM     32  C   UNL     1       0.998   3.623  -6.936  0.00  0.00    +0.005 C 
ENDBRANCH  30  31
ENDBRANCH  22  30
ENDBRANCH  17  18
ENDBRANCH   1  17
TORSDOF 9
