REMARK  Name = ZINC10000956
REMARK  11 active torsions:
REMARK  status: ('A' for Active; 'I' for Inactive)
REMARK    1  A    between atoms: C_1  and  C_2
REMARK    2  A    between atoms: C_2  and  C_3
REMARK    3  A    between atoms: C_2  and  C_4
REMARK    4  A    between atoms: C_4  and  C_6
REMARK    5  A    between atoms: C_4  and  N_24
REMARK    6  A    between atoms: C_9  and  S_12
REMARK    7  A    between atoms: N_10  and  C_11
REMARK    8  A    between atoms: S_12  and  C_13
REMARK    9  A    between atoms: C_13  and  C_14
REMARK   10  A    between atoms: N_16  and  C_17
REMARK   11  A    between atoms: C_25  and  C_27
REMARK                            x       y       z     vdW  Elec       q    Type
REMARK                         _______ _______ _______ _____ _____    ______ ____
ROOT
ATOM      1  C   UNL     1       0.945   0.394  -4.651  0.00  0.00    +0.155 A 
ATOM      2  N   UNL     1       1.668  -0.106  -3.689  0.00  0.00    -0.132 NA
ATOM      3  N   UNL     1       1.186   0.239  -2.549  0.00  0.00    -0.122 NA
ATOM      4  C   UNL     1       0.115   0.979  -2.723  0.00  0.00    +0.192 A 
ATOM      5  N   UNL     1      -0.070   1.103  -4.070  0.00  0.00    -0.308 N 
ATOM      6  C   UNL     1      -1.135   1.843  -4.752  0.00  0.00    +0.152 C 
ENDROOT
BRANCH   1   7
ATOM      7  C   UNL     1       1.183   0.223  -6.129  0.00  0.00    +0.144 C 
BRANCH   7   8
ATOM      8  N   UNL     1       1.489  -1.181  -6.415  0.00  0.00    -0.301 N 
ATOM      9  C   UNL     1       1.248  -1.687  -7.641  0.00  0.00    +0.245 C 
ATOM     10  O   UNL     1       0.778  -0.978  -8.510  0.00  0.00    -0.270 OA
ATOM     11  H   UNL     1       1.864  -1.747  -5.722  0.00  0.00    +0.150 HD
BRANCH   9  12
ATOM     12  C   UNL     1       1.556  -3.102  -7.929  0.00  0.00    +0.040 A 
ATOM     13  C   UNL     1       2.102  -3.916  -6.934  0.00  0.00    +0.017 A 
ATOM     14  C   UNL     1       2.383  -5.238  -7.203  0.00  0.00    +0.050 A 
ATOM     15  C   UNL     1       2.137  -5.762  -8.466  0.00  0.00    +0.166 A 
ATOM     16  C   UNL     1       1.597  -4.952  -9.466  0.00  0.00    +0.167 A 
ATOM     17  C   UNL     1       1.308  -3.627  -9.200  0.00  0.00    +0.062 A 
ATOM     18  O   UNL     1       1.454  -5.698 -10.600  0.00  0.00    -0.453 OA
ATOM     19  C   UNL     1       2.288  -6.855 -10.406  0.00  0.00    +0.466 C 
ATOM     20  O   UNL     1       2.330  -7.012  -8.975  0.00  0.00    -0.453 OA
ENDBRANCH   9  12
ENDBRANCH   7   8
BRANCH   7  22
ATOM     21  C   UNL     1       2.603   0.925  -8.061  0.00  0.00    +0.009 C 
ATOM     22  C   UNL     1       2.361   1.099  -6.561  0.00  0.00    +0.011 C 
ATOM     23  C   UNL     1       2.042   2.565  -6.262  0.00  0.00    +0.009 C 
ENDBRANCH   7  22
ENDBRANCH   1   7
BRANCH   4  24
ATOM     24  S   UNL     1      -0.889   1.683  -1.458  0.00  0.00    -0.077 S 
BRANCH  24  25
ATOM     25  C   UNL     1      -0.016   1.080   0.008  0.00  0.00    +0.173 C 
BRANCH  25  26
ATOM     26  C   UNL     1      -0.717   1.573   1.248  0.00  0.00    +0.227 C 
ATOM     27  O   UNL     1      -1.709   2.265   1.150  0.00  0.00    -0.275 OA
ATOM     28  N   UNL     1      -0.242   1.246   2.466  0.00  0.00    -0.285 N 
ATOM     29  H   UNL     1       0.511   0.639   2.546  0.00  0.00    +0.155 HD
BRANCH  28  30
ATOM     30  C   UNL     1      -0.834   1.782   3.615  0.00  0.00    +0.033 A 
ATOM     31  C   UNL     1      -0.052   2.086   4.723  0.00  0.00    +0.025 A 
ATOM     32  C   UNL     1      -0.638   2.619   5.854  0.00  0.00    +0.022 A 
ATOM     33  C   UNL     1      -2.004   2.841   5.888  0.00  0.00    +0.041 A 
ATOM     34  C   UNL     1      -2.785   2.534   4.788  0.00  0.00    +0.022 A 
ATOM     35  C   UNL     1      -2.204   2.006   3.652  0.00  0.00    +0.025 A 
ATOM     36 CL   UNL     1      -2.738   3.506   7.314  0.00  0.00    -0.084 Cl
ENDBRANCH  28  30
ENDBRANCH  25  26
ENDBRANCH  24  25
ENDBRANCH   4  24
TORSDOF 8
