REMARK  Name = ZINC20388322
REMARK  12 active torsions:
REMARK  status: ('A' for Active; 'I' for Inactive)
REMARK    1  A    between atoms: C_1  and  C_2
REMARK    2  A    between atoms: C_3  and  C_30
REMARK    3  A    between atoms: C_4  and  C_29
REMARK    4  A    between atoms: N_9  and  C_12
REMARK    5  A    between atoms: C_12  and  C_13
REMARK    6  A    between atoms: N_15  and  C_16
REMARK    7  A    between atoms: C_16  and  C_17
REMARK    8  A    between atoms: C_17  and  C_18
REMARK    9  A    between atoms: C_18  and  N_19
REMARK   10  A    between atoms: C_21  and  C_28
REMARK   11  A    between atoms: C_24  and  C_27
REMARK   12  A    between atoms: N_32  and  C_33
REMARK                            x       y       z     vdW  Elec       q    Type
REMARK                         _______ _______ _______ _____ _____    ______ ____
ROOT
ATOM      1  C   UNL     1       0.748  -3.177  -0.022  0.00  0.00    +0.047 C 
ATOM      2  C   UNL     1       1.673  -1.987  -0.025  0.00  0.00    -0.007 A 
ATOM      3  C   UNL     1       3.085  -2.021  -0.039  0.00  0.00    +0.061 A 
ATOM      4  C   UNL     1       3.525  -0.711  -0.036  0.00  0.00    +0.035 A 
ATOM      5  N   UNL     1       2.452   0.101  -0.021  0.00  0.00    -0.297 N 
ATOM      6  C   UNL     1       1.307  -0.676  -0.014  0.00  0.00    +0.118 A 
ATOM      7  C   UNL     1       0.002  -0.004   0.002  0.00  0.00    +0.292 A 
ATOM      8  O   UNL     1      -1.034  -0.645   0.008  0.00  0.00    -0.264 OA
ATOM      9  N   UNL     1      -0.016   1.348   0.009  0.00  0.00    -0.217 N 
ATOM     10  N   UNL     1       1.185   2.062   0.002  0.00  0.00    -0.158 NA
ATOM     11  C   UNL     1       2.334   1.479  -0.012  0.00  0.00    +0.226 A 
ATOM     12  C   UNL     1       4.965  -0.265  -0.047  0.00  0.00    +0.065 C 
ENDROOT
BRANCH   3  13
ATOM     13  C   UNL     1       3.932  -3.228  -0.054  0.00  0.00    +0.246 C 
ATOM     14  O   UNL     1       4.291  -3.732   0.993  0.00  0.00    -0.270 OA
ATOM     15  N   UNL     1       4.307  -3.774  -1.227  0.00  0.00    -0.308 N 
ATOM     16  H   UNL     1       3.982  -3.318  -2.175  0.00  0.00    +0.149 HD
BRANCH  15  17
ATOM     17  C   UNL     1       5.149  -4.973  -1.242  0.00  0.00    +0.073 C 
ATOM     18  C   UNL     1       6.619  -4.566  -1.128  0.00  0.00    +0.022 C 
ATOM     19  C   UNL     1       7.497  -5.819  -1.144  0.00  0.00    +0.002 C 
ATOM     20  C   UNL     1       7.278  -6.580  -2.453  0.00  0.00    +0.000 C 
ATOM     21  C   UNL     1       5.808  -6.987  -2.566  0.00  0.00    +0.002 C 
ATOM     22  C   UNL     1       4.929  -5.734  -2.551  0.00  0.00    +0.022 C 
ENDBRANCH  15  17
ENDBRANCH   3  13
BRANCH   9  23
ATOM     23  C   UNL     1      -1.294   2.063   0.019  0.00  0.00    +0.243 C 
BRANCH  23  24
ATOM     24  C   UNL     1      -1.726   2.301   1.444  0.00  0.00    +0.235 C 
ATOM     25  O   UNL     1      -1.034   1.911   2.360  0.00  0.00    -0.274 OA
ATOM     26  N   UNL     1      -2.881   2.947   1.699  0.00  0.00    -0.314 N 
ATOM     27  H   UNL     1      -3.509   3.301   0.868  0.00  0.00    +0.149 HD
BRANCH  26  28
ATOM     28  C   UNL     1      -3.301   3.178   3.083  0.00  0.00    +0.102 C 
BRANCH  28  29
ATOM     29  C   UNL     1      -4.636   3.925   3.094  0.00  0.00    +0.000 C 
BRANCH  29  30
ATOM     30  C   UNL     1      -5.074   4.167   4.540  0.00  0.00    -0.077 C 
BRANCH  30  31
ATOM     31  N   UNL     1      -6.356   4.885   4.550  0.00  0.00    +0.380 N 
ATOM     32  C   UNL     1      -6.207   6.236   3.994  0.00  0.00    -0.076 C 
ATOM     33  C   UNL     1      -7.582   6.898   3.885  0.00  0.00    -0.031 C 
ATOM     34  C   UNL     1      -8.222   6.965   5.275  0.00  0.00    +0.003 C 
ATOM     35  C   UNL     1      -8.321   5.550   5.851  0.00  0.00    -0.031 C 
ATOM     36  C   UNL     1      -6.925   4.926   5.903  0.00  0.00    -0.076 C 
ATOM     37  C   UNL     1      -8.905   5.614   7.264  0.00  0.00    +0.005 C 
ATOM     38  C   UNL     1      -8.472   6.077   2.952  0.00  0.00    +0.005 C 
ATOM     39  H   UNL     1      -7.058   4.334   3.907  0.00  0.00    -0.082 HD
ENDBRANCH  30  31
ENDBRANCH  29  30
ENDBRANCH  28  29
ENDBRANCH  26  28
ENDBRANCH  23  24
ENDBRANCH   9  23
TORSDOF 8
