REMARK  Name = ZINC09130659
REMARK  9 active torsions:
REMARK  status: ('A' for Active; 'I' for Inactive)
REMARK    1  A    between atoms: C_1  and  O_2
REMARK    2  A    between atoms: O_2  and  C_3
REMARK    3  A    between atoms: C_6  and  C_9
REMARK    4  A    between atoms: C_10  and  C_19
REMARK    5  A    between atoms: C_14  and  C_15
REMARK    6  A    between atoms: C_22  and  O_26
REMARK    7  A    between atoms: C_24  and  O_25
REMARK    8  A    between atoms: O_26  and  C_27
REMARK    9  A    between atoms: C_27  and  C_28
REMARK                            x       y       z     vdW  Elec       q    Type
REMARK                         _______ _______ _______ _____ _____    ______ ____
ROOT
ATOM      1  C   UNL     1       2.666  -3.280  -4.185  0.00  0.00    +0.039 A 
ATOM      2  C   UNL     1       1.887  -3.395  -5.364  0.00  0.00    +0.104 A 
ATOM      3  N   UNL     1       2.637  -3.027  -6.380  0.00  0.00    -0.173 NA
ATOM      4  N   UNL     1       3.900  -2.672  -5.891  0.00  0.00    -0.272 N 
ATOM      5  H   UNL     1       4.649  -2.363  -6.426  0.00  0.00    +0.189 HD
ATOM      6  C   UNL     1       3.898  -2.827  -4.551  0.00  0.00    +0.147 A 
ENDROOT
BRANCH   1  10
ATOM      7  C   UNL     1       1.385  -4.169  -0.228  0.00  0.00    +0.120 A 
ATOM      8  C   UNL     1       1.659  -2.857  -0.588  0.00  0.00    +0.046 A 
ATOM      9  C   UNL     1       2.075  -2.566  -1.871  0.00  0.00    +0.012 A 
ATOM     10  C   UNL     1       2.220  -3.590  -2.805  0.00  0.00    -0.014 A 
ATOM     11  C   UNL     1       1.943  -4.906  -2.439  0.00  0.00    +0.012 A 
ATOM     12  C   UNL     1       1.533  -5.192  -1.154  0.00  0.00    +0.046 A 
BRANCH   7  14
ATOM     13  C   UNL     1       0.843  -3.353   1.939  0.00  0.00    +0.277 C 
ATOM     14  O   UNL     1       0.975  -4.453   1.037  0.00  0.00    -0.495 OA
ENDBRANCH   7  14
ENDBRANCH   1  10
BRANCH   2  15
ATOM     15  C   UNL     1       0.477  -3.848  -5.439  0.00  0.00    +0.044 A 
ATOM     16  C   UNL     1      -0.472  -3.323  -4.564  0.00  0.00    +0.017 A 
ATOM     17  C   UNL     1      -1.783  -3.746  -4.636  0.00  0.00    +0.046 A 
ATOM     18  C   UNL     1      -2.160  -4.696  -5.577  0.00  0.00    +0.124 A 
ATOM     19  C   UNL     1      -1.221  -5.223  -6.451  0.00  0.00    +0.091 A 
ATOM     20  C   UNL     1       0.096  -4.799  -6.390  0.00  0.00    +0.130 A 
BRANCH  20  21
ATOM     21  O   UNL     1       1.016  -5.311  -7.249  0.00  0.00    -0.506 OA
ATOM     22  H   UNL     1       1.460  -6.105  -6.922  0.00  0.00    +0.292 HD
ENDBRANCH  20  21
BRANCH  18  23
ATOM     23  O   UNL     1      -3.453  -5.110  -5.642  0.00  0.00    -0.487 OA
BRANCH  23  24
ATOM     24  C   UNL     1      -4.368  -4.526  -4.712  0.00  0.00    +0.267 C 
BRANCH  24  25
ATOM     25  C   UNL     1      -5.743  -5.102  -4.932  0.00  0.00    +0.025 A 
ATOM     26  C   UNL     1      -5.946  -6.051  -5.917  0.00  0.00    +0.010 A 
ATOM     27  C   UNL     1      -7.207  -6.579  -6.119  0.00  0.00    +0.001 A 
ATOM     28  C   UNL     1      -8.267  -6.160  -5.336  0.00  0.00    +0.003 A 
ATOM     29  C   UNL     1      -8.066  -5.212  -4.351  0.00  0.00    +0.039 A 
ATOM     30  C   UNL     1      -6.802  -4.686  -4.144  0.00  0.00    +0.130 A 
ATOM     31  F   UNL     1      -6.604  -3.762  -3.178  0.00  0.00    -0.205 F 
ENDBRANCH  24  25
ENDBRANCH  23  24
ENDBRANCH  18  23
ENDBRANCH   2  15
BRANCH   6  32
ATOM     32  C   UNL     1       5.053  -2.551  -3.624  0.00  0.00    +0.434 C 
ATOM     33  F   UNL     1       6.150  -2.099  -4.367  0.00  0.00    -0.164 F 
ATOM     34  F   UNL     1       4.683  -1.572  -2.696  0.00  0.00    -0.164 F 
ATOM     35  F   UNL     1       5.400  -3.726  -2.949  0.00  0.00    -0.164 F 
ENDBRANCH   6  32
TORSDOF 8
