REMARK  Name = ZINC65622356
REMARK  10 active torsions:
REMARK  status: ('A' for Active; 'I' for Inactive)
REMARK    1  A    between atoms: C_1  and  C_2
REMARK    2  A    between atoms: C_2  and  C_3
REMARK    3  A    between atoms: C_3  and  C_4
REMARK    4  A    between atoms: C_4  and  C_5
REMARK    5  A    between atoms: C_5  and  N_6
REMARK    6  A    between atoms: N_9  and  N_10
REMARK    7  A    between atoms: C_11  and  C_13
REMARK    8  A    between atoms: C_14  and  C_15
REMARK    9  A    between atoms: C_18  and  S_21
REMARK   10  A    between atoms: S_21  and  N_24
REMARK                            x       y       z     vdW  Elec       q    Type
REMARK                         _______ _______ _______ _____ _____    ______ ____
ROOT
ATOM      1  N   UNL     1      -2.745  -6.779  -0.008  0.00  0.00    -0.230 N 
ATOM      2  C   UNL     1      -2.727  -8.127  -0.015  0.00  0.00    +0.253 C 
ATOM      3  O   UNL     1      -3.772  -8.749  -0.009  0.00  0.00    -0.269 OA
ATOM      4  H   UNL     1      -1.912  -6.283  -0.013  0.00  0.00    +0.173 HD
ENDROOT
BRANCH   1   8
ATOM      5  N   UNL     1      -2.828  -4.058   0.007  0.00  0.00    -0.298 N 
ATOM      6  C   UNL     1      -3.986  -4.748   0.015  0.00  0.00    +0.316 C 
ATOM      7  O   UNL     1      -5.047  -4.154   0.028  0.00  0.00    -0.251 OA
ATOM      8  N   UNL     1      -3.968  -6.095   0.007  0.00  0.00    -0.218 N 
ATOM      9  H   UNL     1      -1.982  -4.531  -0.003  0.00  0.00    +0.150 HD
ATOM     10  H   UNL     1      -4.801  -6.592   0.013  0.00  0.00    +0.174 HD
BRANCH   5  11
ATOM     11  C   UNL     1      -2.848  -2.593   0.015  0.00  0.00    +0.106 C 
BRANCH  11  12
ATOM     12  C   UNL     1      -1.413  -2.063   0.004  0.00  0.00    +0.019 C 
BRANCH  12  13
ATOM     13  C   UNL     1      -1.433  -0.534   0.013  0.00  0.00    +0.001 C 
BRANCH  13  15
ATOM     14  C   UNL     1      -0.019   1.526   0.010  0.00  0.00    +0.004 C 
ATOM     15  C   UNL     1       0.002  -0.004   0.002  0.00  0.00    -0.003 C 
ENDBRANCH  13  15
ENDBRANCH  12  13
ENDBRANCH  11  12
ENDBRANCH   5  11
ENDBRANCH   1   8
BRANCH   2  16
ATOM     16  C   UNL     1      -1.449  -8.842  -0.032  0.00  0.00    +0.069 C 
ATOM     17  C   UNL     1      -1.431 -10.190  -0.039  0.00  0.00    +0.013 C 
BRANCH  17  18
ATOM     18  C   UNL     1      -0.146 -10.908  -0.055  0.00  0.00    -0.025 A 
ATOM     19  C   UNL     1       1.058 -10.196  -0.057  0.00  0.00    +0.010 A 
ATOM     20  C   UNL     1       2.257 -10.876  -0.072  0.00  0.00    +0.029 A 
ATOM     21  C   UNL     1       2.271 -12.260  -0.085  0.00  0.00    +0.105 A 
ATOM     22  C   UNL     1       1.084 -12.972  -0.083  0.00  0.00    +0.029 A 
ATOM     23  C   UNL     1      -0.123 -12.306  -0.063  0.00  0.00    +0.010 A 
BRANCH  21  24
ATOM     24  S   UNL     1       3.809 -13.120  -0.103  0.00  0.00    +0.056 S 
ATOM     25  O   UNL     1       3.552 -14.400  -0.664  0.00  0.00    -0.153 OA
ATOM     26  O   UNL     1       4.768 -12.227  -0.652  0.00  0.00    -0.153 OA
BRANCH  24  27
ATOM     27  N   UNL     1       4.247 -13.374   1.474  0.00  0.00    -0.204 NA
ATOM     28  H   UNL     1       4.776 -14.152   1.711  0.00  0.00    +0.144 HD
ATOM     29  H   UNL     1       3.976 -12.745   2.160  0.00  0.00    +0.144 HD
ENDBRANCH  24  27
ENDBRANCH  21  24
ENDBRANCH  17  18
ENDBRANCH   2  16
TORSDOF 9
