REMARK  Name = ZINC37361495
REMARK  9 active torsions:
REMARK  status: ('A' for Active; 'I' for Inactive)
REMARK    1  A    between atoms: C_1  and  N_2
REMARK    2  A    between atoms: N_2  and  C_3
REMARK    3  A    between atoms: N_2  and  C_4
REMARK    4  A    between atoms: C_4  and  C_5
REMARK    5  A    between atoms: C_5  and  N_6
REMARK    6  A    between atoms: C_9  and  C_24
REMARK    7  A    between atoms: C_11  and  N_23
REMARK    8  A    between atoms: N_12  and  C_16
REMARK    9  A    between atoms: C_16  and  C_17
REMARK                            x       y       z     vdW  Elec       q    Type
REMARK                         _______ _______ _______ _____ _____    ______ ____
ROOT
ATOM      1  N   UNL     1      -2.639  -2.729   0.759  0.00  0.00    -0.315 N 
ATOM      2  C   UNL     1      -2.923  -3.990   0.266  0.00  0.00    +0.218 A 
ATOM      3  N   UNL     1      -4.186  -4.407   0.297  0.00  0.00    -0.214 NA
ATOM      4  C   UNL     1      -4.546  -5.602  -0.155  0.00  0.00    +0.091 A 
ATOM      5  C   UNL     1      -3.544  -6.447  -0.684  0.00  0.00    +0.086 A 
ATOM      6  C   UNL     1      -3.507  -7.722  -1.236  0.00  0.00    +0.126 A 
ATOM      7  N   UNL     1      -2.229  -7.985  -1.560  0.00  0.00    -0.244 N 
ATOM      8  N   UNL     1      -1.418  -6.894  -1.228  0.00  0.00    -0.149 NA
ATOM      9  C   UNL     1      -2.158  -5.946  -0.699  0.00  0.00    +0.188 A 
ATOM     10  N   UNL     1      -1.930  -4.710  -0.213  0.00  0.00    -0.193 NA
ATOM     11  H   UNL     1      -3.351  -2.177   1.118  0.00  0.00    +0.149 HD
ENDROOT
BRANCH   4  12
ATOM     12  C   UNL     1      -5.959  -6.037  -0.107  0.00  0.00    +0.039 A 
ATOM     13  C   UNL     1      -6.307  -7.217   0.554  0.00  0.00    +0.013 A 
ATOM     14  C   UNL     1      -7.625  -7.618   0.597  0.00  0.00    +0.004 A 
ATOM     15  C   UNL     1      -8.606  -6.856  -0.013  0.00  0.00    +0.041 A 
ATOM     16  C   UNL     1      -8.272  -5.685  -0.671  0.00  0.00    +0.159 A 
ATOM     17  C   UNL     1      -6.952  -5.267  -0.716  0.00  0.00    +0.168 A 
ATOM     18  F   UNL     1      -6.625  -4.121  -1.353  0.00  0.00    -0.202 F 
ATOM     19  F   UNL     1      -9.234  -4.946  -1.265  0.00  0.00    -0.202 F 
ENDBRANCH   4  12
BRANCH   6  20
ATOM     20  N   UNL     1      -4.587  -8.566  -1.417  0.00  0.00    -0.343 N 
ATOM     21  H   UNL     1      -5.487  -8.241  -1.262  0.00  0.00    +0.144 HD
ATOM     22  H   UNL     1      -4.443  -9.483  -1.700  0.00  0.00    +0.144 HD
ENDBRANCH   6  20
BRANCH   1  23
ATOM     23  C   UNL     1      -1.263  -2.228   0.739  0.00  0.00    +0.086 C 
BRANCH  23  24
ATOM     24  C   UNL     1      -1.224  -0.820   1.336  0.00  0.00    -0.061 C 
BRANCH  24  26
ATOM     25  C   UNL     1       0.177   1.077   1.778  0.00  0.00    -0.097 C 
ATOM     26  N   UNL     1       0.157  -0.318   1.316  0.00  0.00    +0.377 N 
ATOM     27  C   UNL     1       0.990  -1.140   2.203  0.00  0.00    -0.097 C 
ATOM     28  H   UNL     1       0.518  -0.365   0.375  0.00  0.00    -0.083 HD
ENDBRANCH  24  26
ENDBRANCH  23  24
ENDBRANCH   1  23
BRANCH   7  29
ATOM     29  C   UNL     1      -1.756  -9.230  -2.171  0.00  0.00    +0.180 C 
BRANCH  29  30
ATOM     30  C   UNL     1      -1.808  -9.104  -3.672  0.00  0.00    -0.026 A 
ATOM     31  C   UNL     1      -2.953  -9.468  -4.357  0.00  0.00    +0.005 A 
ATOM     32  C   UNL     1      -3.001  -9.352  -5.734  0.00  0.00    +0.000 A 
ATOM     33  C   UNL     1      -1.904  -8.873  -6.426  0.00  0.00    +0.000 A 
ATOM     34  C   UNL     1      -0.760  -8.508  -5.741  0.00  0.00    +0.000 A 
ATOM     35  C   UNL     1      -0.714  -8.620  -4.364  0.00  0.00    +0.005 A 
ENDBRANCH  29  30
ENDBRANCH   7  29
TORSDOF 7
