REMARK  Name = ZINC36601739
REMARK  17 active torsions:
REMARK  status: ('A' for Active; 'I' for Inactive)
REMARK    1  A    between atoms: C_1  and  C_2
REMARK    2  A    between atoms: C_5  and  C_7
REMARK    3  A    between atoms: C_7  and  N_8
REMARK    4  A    between atoms: N_8  and  C_9
REMARK    5  A    between atoms: C_9  and  C_11
REMARK    6  A    between atoms: C_9  and  C_21
REMARK    7  A    between atoms: C_13  and  N_18
REMARK    8  A    between atoms: N_23  and  C_24
REMARK    9  A    between atoms: C_24  and  C_25
REMARK   10  A    between atoms: C_24  and  C_26
REMARK   11  A    between atoms: C_24  and  C_27
REMARK   12  A    between atoms: C_27  and  C_28
REMARK   13  A    between atoms: C_28  and  C_29
REMARK   14  A    between atoms: C_28  and  C_30
REMARK   15  A    between atoms: C_28  and  C_31
REMARK   16  A    between atoms: C_32  and  C_34
REMARK   17  A    between atoms: C_34  and  C_36
REMARK                            x       y       z     vdW  Elec       q    Type
REMARK                         _______ _______ _______ _____ _____    ______ ____
ROOT
ATOM      1  C   UNL     1       4.197  -2.407  -3.079  0.00  0.00    +0.194 C 
ENDROOT
BRANCH   1   2
ATOM      2  C   UNL     1       4.421  -3.452  -4.140  0.00  0.00    +0.002 A 
ATOM      3  C   UNL     1       3.592  -4.556  -4.210  0.00  0.00    +0.040 A 
ATOM      4  C   UNL     1       3.798  -5.516  -5.183  0.00  0.00    +0.127 A 
ATOM      5  C   UNL     1       4.834  -5.372  -6.088  0.00  0.00    +0.034 A 
ATOM      6  C   UNL     1       5.663  -4.269  -6.020  0.00  0.00    +0.022 A 
ATOM      7  C   UNL     1       5.453  -3.305  -5.049  0.00  0.00    +0.047 A 
ATOM      8 CL   UNL     1       6.490  -1.915  -4.968  0.00  0.00    -0.083 Cl
BRANCH   4   9
ATOM      9  N   UNL     1       2.911  -6.698  -5.256  0.00  0.00    +0.056 N 
ATOM     10  O   UNL     1       2.006  -6.824  -4.465  0.00  0.00    -0.126 OA
ATOM     11  O   UNL     1       3.091  -7.537  -6.107  0.00  0.00    -0.126 OA
ENDBRANCH   4   9
ENDBRANCH   1   2
BRANCH   1  12
ATOM     12  C   UNL     1       3.238  -1.365  -3.595  0.00  0.00    +0.239 C 
ATOM     13  O   UNL     1       2.244  -1.086  -2.958  0.00  0.00    -0.273 OA
ATOM     14  N   UNL     1       3.485  -0.742  -4.764  0.00  0.00    -0.308 N 
ATOM     15  H   UNL     1       4.253  -1.000  -5.298  0.00  0.00    +0.149 HD
BRANCH  14  16
ATOM     16  C   UNL     1       2.594   0.324  -5.229  0.00  0.00    +0.030 C 
ATOM     17  C   UNL     1       1.146  -0.169  -5.193  0.00  0.00    +0.031 C 
ATOM     18  C   UNL     1       2.740   1.544  -4.318  0.00  0.00    +0.031 C 
BRANCH  16  19
ATOM     19  C   UNL     1       2.966   0.710  -6.662  0.00  0.00    +0.031 C 
BRANCH  19  20
ATOM     20  C   UNL     1       4.261   1.524  -6.652  0.00  0.00    -0.036 C 
ATOM     21  C   UNL     1       5.179   1.007  -5.543  0.00  0.00    +0.010 C 
ATOM     22  C   UNL     1       4.964   1.382  -8.003  0.00  0.00    +0.010 C 
ATOM     23  C   UNL     1       3.936   2.998  -6.399  0.00  0.00    +0.010 C 
ENDBRANCH  19  20
ENDBRANCH  16  19
ENDBRANCH  14  16
ENDBRANCH   1  12
BRANCH   1  24
ATOM     24  N   UNL     1       3.634  -3.038  -1.883  0.00  0.00    -0.275 N 
ATOM     25  C   UNL     1       2.338  -3.410  -1.863  0.00  0.00    +0.243 C 
ATOM     26  O   UNL     1       1.906  -4.058  -0.929  0.00  0.00    -0.270 OA
BRANCH  25  27
ATOM     27  C   UNL     1       1.448  -3.032  -2.971  0.00  0.00    +0.004 C 
ATOM     28  C   UNL     1       0.132  -2.991  -2.783  0.00  0.00    +0.017 C 
ATOM     29  C   UNL     1       2.026  -2.690  -4.320  0.00  0.00    +0.048 C 
ENDBRANCH  25  27
BRANCH  24  30
ATOM     30  C   UNL     1       4.479  -3.266  -0.708  0.00  0.00    +0.183 C 
BRANCH  30  35
ATOM     31  C   UNL     1       5.284   1.088   1.709  0.00  0.00    +0.086 C 
ATOM     32  C   UNL     1       4.666  -0.227   1.309  0.00  0.00    +0.102 A 
ATOM     33  C   UNL     1       3.577  -0.787   1.867  0.00  0.00    +0.045 A 
ATOM     34  C   UNL     1       3.352  -2.007   1.189  0.00  0.00    +0.046 A 
ATOM     35  C   UNL     1       4.316  -2.120   0.258  0.00  0.00    +0.122 A 
ATOM     36  O   UNL     1       5.106  -1.036   0.331  0.00  0.00    -0.463 OA
ENDBRANCH  30  35
ENDBRANCH  24  30
ENDBRANCH   1  24
TORSDOF 10
