REMARK  Name = ZINC38892922
REMARK  11 active torsions:
REMARK  status: ('A' for Active; 'I' for Inactive)
REMARK    1  A    between atoms: C_1  and  O_2
REMARK    2  A    between atoms: O_2  and  C_3
REMARK    3  A    between atoms: C_6  and  C_9
REMARK    4  A    between atoms: C_11  and  C_14
REMARK    5  A    between atoms: C_14  and  N_15
REMARK    6  A    between atoms: C_19  and  C_22
REMARK    7  A    between atoms: N_24  and  C_25
REMARK    8  A    between atoms: C_25  and  C_26
REMARK    9  A    between atoms: C_26  and  C_27
REMARK   10  A    between atoms: C_27  and  S_28
REMARK   11  A    between atoms: S_28  and  C_29
REMARK                            x       y       z     vdW  Elec       q    Type
REMARK                         _______ _______ _______ _____ _____    ______ ____
ROOT
ATOM      1  N   UNL     1       5.006  -5.908   5.554  0.00  0.00    +0.386 N 
ATOM      2  C   UNL     1       4.919  -6.052   4.096  0.00  0.00    -0.078 C 
ATOM      3  C   UNL     1       6.297  -6.404   3.531  0.00  0.00    -0.018 C 
ATOM      4  C   UNL     1       6.773  -7.722   4.148  0.00  0.00    +0.009 C 
ATOM      5  C   UNL     1       6.789  -7.584   5.673  0.00  0.00    +0.058 C 
ATOM      6  C   UNL     1       5.393  -7.188   6.159  0.00  0.00    -0.065 C 
ATOM      7  H   UNL     1       5.696  -5.208   5.780  0.00  0.00    -0.081 HD
ENDROOT
BRANCH   5   8
ATOM      8  C   UNL     1       7.183  -8.900   6.294  0.00  0.00    +0.214 C 
ATOM      9  O   UNL     1       6.425  -9.464   7.053  0.00  0.00    -0.276 OA
ATOM     10  N   UNL     1       8.380  -9.449   6.005  0.00  0.00    -0.315 N 
ATOM     11  H   UNL     1       8.987  -8.998   5.398  0.00  0.00    +0.149 HD
BRANCH  10  12
ATOM     12  C   UNL     1       8.764 -10.728   6.608  0.00  0.00    +0.105 C 
BRANCH  12  13
ATOM     13  C   UNL     1      10.158 -11.125   6.118  0.00  0.00    +0.030 C 
BRANCH  13  14
ATOM     14  C   UNL     1      10.558 -12.460   6.747  0.00  0.00    +0.076 C 
BRANCH  14  15
ATOM     15  S   UNL     1      12.211 -12.931   6.167  0.00  0.00    -0.125 S 
BRANCH  15  16
ATOM     16  C   UNL     1      12.524 -14.468   6.970  0.00  0.00    +0.008 A 
ATOM     17  C   UNL     1      11.569 -15.018   7.817  0.00  0.00    +0.016 A 
ATOM     18  C   UNL     1      11.817 -16.222   8.445  0.00  0.00    +0.021 A 
ATOM     19  C   UNL     1      13.015 -16.882   8.232  0.00  0.00    +0.041 A 
ATOM     20  C   UNL     1      13.968 -16.337   7.389  0.00  0.00    +0.021 A 
ATOM     21  C   UNL     1      13.723 -15.135   6.754  0.00  0.00    +0.016 A 
ATOM     22 CL   UNL     1      13.323 -18.395   9.024  0.00  0.00    -0.084 Cl
ENDBRANCH  15  16
ENDBRANCH  14  15
ENDBRANCH  13  14
ENDBRANCH  12  13
ENDBRANCH  10  12
ENDBRANCH   5   8
BRANCH   1  23
ATOM     23  C   UNL     1       3.699  -5.494   6.082  0.00  0.00    +0.022 C 
BRANCH  23  26
ATOM     24  C   UNL     1       2.577  -2.541   4.295  0.00  0.00    +0.202 A 
ATOM     25  N   UNL     1       2.707  -3.870   4.457  0.00  0.00    -0.193 NA
ATOM     26  C   UNL     1       3.357  -4.123   5.557  0.00  0.00    +0.211 A 
ATOM     27  O   UNL     1       3.669  -2.960   6.144  0.00  0.00    -0.340 OA
ATOM     28  N   UNL     1       3.157  -1.937   5.303  0.00  0.00    -0.056 NA
BRANCH  24  32
ATOM     29  C   UNL     1       0.625  -0.618   1.041  0.00  0.00    +0.120 A 
ATOM     30  C   UNL     1       1.202   0.142   2.050  0.00  0.00    +0.046 A 
ATOM     31  C   UNL     1       1.835  -0.479   3.106  0.00  0.00    +0.015 A 
ATOM     32  C   UNL     1       1.896  -1.870   3.160  0.00  0.00    +0.023 A 
ATOM     33  C   UNL     1       1.317  -2.630   2.145  0.00  0.00    +0.015 A 
ATOM     34  C   UNL     1       0.680  -2.005   1.095  0.00  0.00    +0.046 A 
BRANCH  29  36
ATOM     35  C   UNL     1      -0.017   1.425   0.010  0.00  0.00    +0.277 C 
ATOM     36  O   UNL     1       0.002  -0.004   0.002  0.00  0.00    -0.495 OA
ENDBRANCH  29  36
ENDBRANCH  24  32
ENDBRANCH  23  26
ENDBRANCH   1  23
TORSDOF 10
