REMARK  Name = ZINC00830366
REMARK  3 active torsions:
REMARK  status: ('A' for Active; 'I' for Inactive)
REMARK    1  A    between atoms: C_6  and  N_7
REMARK    2  A    between atoms: N_10  and  C_11
REMARK    3  A    between atoms: C_12  and  C_20
REMARK                            x       y       z     vdW  Elec       q    Type
REMARK                         _______ _______ _______ _____ _____    ______ ____
ROOT
ATOM      1  N   UNL     1      -0.011   0.966   0.007  0.00  0.00    -0.269 N 
ATOM      2  C   UNL     1       1.123   1.694   0.006  0.00  0.00    +0.308 C 
ATOM      3  O   UNL     1       1.068   2.905  -0.076  0.00  0.00    -0.252 OA
ATOM      4  N   UNL     1       2.319   1.078   0.094  0.00  0.00    -0.263 N 
ATOM      5  H   UNL     1       0.034  -0.003   0.005  0.00  0.00    +0.156 HD
ATOM      6  H   UNL     1       2.363   0.112   0.159  0.00  0.00    +0.157 HD
ENDROOT
BRANCH   4   7
ATOM      7  C   UNL     1       3.486   1.827   0.092  0.00  0.00    +0.086 A 
ATOM      8  C   UNL     1       4.797   1.381   0.180  0.00  0.00    +0.068 A 
ATOM      9  C   UNL     1       5.850   2.382   0.152  0.00  0.00    -0.023 A 
ATOM     10  C   UNL     1       5.426   3.660   0.052  0.00  0.00    -0.004 A 
ATOM     11  S   UNL     1       3.661   3.548  -0.012  0.00  0.00    -0.077 S 
ATOM     12  C   UNL     1       6.276   4.892   0.007  0.00  0.00    +0.043 C 
ATOM     13  C   UNL     1       7.693   4.520   0.469  0.00  0.00    +0.005 C 
ATOM     14  C   UNL     1       8.136   3.254  -0.270  0.00  0.00    +0.005 C 
ATOM     15  C   UNL     1       7.336   2.051   0.234  0.00  0.00    +0.037 C 
BRANCH   8  16
ATOM     16  C   UNL     1       5.108  -0.047   0.293  0.00  0.00    +0.244 C 
ATOM     17  O   UNL     1       5.283  -0.713  -0.711  0.00  0.00    -0.270 OA
ATOM     18  N   UNL     1       5.200  -0.623   1.508  0.00  0.00    -0.325 N 
ATOM     19  H   UNL     1       5.060  -0.092   2.308  0.00  0.00    +0.145 HD
ATOM     20  H   UNL     1       5.406  -1.568   1.583  0.00  0.00    +0.145 HD
ENDBRANCH   8  16
ENDBRANCH   4   7
BRANCH   1  26
ATOM     21  C   UNL     1      -2.325   1.051   0.695  0.00  0.00    +0.025 A 
ATOM     22  C   UNL     1      -3.550   1.689   0.697  0.00  0.00    +0.023 A 
ATOM     23  C   UNL     1      -3.715   2.877   0.007  0.00  0.00    +0.059 A 
ATOM     24  C   UNL     1      -2.651   3.432  -0.684  0.00  0.00    +0.061 A 
ATOM     25  C   UNL     1      -1.422   2.800  -0.685  0.00  0.00    +0.044 A 
ATOM     26  C   UNL     1      -1.255   1.608   0.007  0.00  0.00    +0.036 A 
ATOM     27 CL   UNL     1      -2.861   4.923  -1.549  0.00  0.00    -0.082 Cl
ATOM     28 CL   UNL     1      -5.258   3.672   0.007  0.00  0.00    -0.082 Cl
ENDBRANCH   1  26
TORSDOF 3
