REMARK  Name = ZINC01740646
REMARK  4 active torsions:
REMARK  status: ('A' for Active; 'I' for Inactive)
REMARK    1  A    between atoms: C_2  and  C_8
REMARK    2  A    between atoms: C_6  and  O_7
REMARK    3  A    between atoms: C_8  and  S_9
REMARK    4  A    between atoms: S_9  and  C_10
REMARK                            x       y       z     vdW  Elec       q    Type
REMARK                         _______ _______ _______ _____ _____    ______ ____
ROOT
ATOM      1  C   UNL     1      -2.978  -2.482   1.567  0.00  0.00    +0.191 A 
ATOM      2  N   UNL     1      -3.421  -2.798   0.356  0.00  0.00    -0.207 NA
ATOM      3  C   UNL     1      -4.563  -3.437   0.170  0.00  0.00    +0.129 A 
ATOM      4  C   UNL     1      -5.349  -3.800   1.299  0.00  0.00    +0.051 A 
ATOM      5  C   UNL     1      -6.635  -4.501   1.333  0.00  0.00    -0.025 A 
ATOM      6  C   UNL     1      -7.177  -4.727   2.546  0.00  0.00    -0.004 A 
ATOM      7  S   UNL     1      -6.029  -4.031   3.703  0.00  0.00    -0.073 S 
ATOM      8  C   UNL     1      -4.818  -3.434   2.552  0.00  0.00    +0.115 A 
ATOM      9  N   UNL     1      -3.665  -2.801   2.656  0.00  0.00    -0.215 NA
ATOM     10  C   UNL     1      -8.473  -5.417   2.847  0.00  0.00    +0.043 C 
ATOM     11  C   UNL     1      -9.287  -5.508   1.548  0.00  0.00    +0.005 C 
ATOM     12  C   UNL     1      -8.375  -6.031   0.434  0.00  0.00    +0.005 C 
ATOM     13  C   UNL     1      -7.344  -4.964   0.063  0.00  0.00    +0.037 C 
ATOM     14  N   UNL     1      -4.991  -3.747  -1.108  0.00  0.00    -0.343 N 
ATOM     15  H   UNL     1      -4.365  -3.717  -1.849  0.00  0.00    +0.144 HD
ATOM     16  H   UNL     1      -5.915  -3.995  -1.264  0.00  0.00    +0.144 HD
ENDROOT
BRANCH   1  17
ATOM     17  S   UNL     1      -1.444  -1.631   1.732  0.00  0.00    -0.080 S 
BRANCH  17  18
ATOM     18  C   UNL     1      -0.877  -1.412   0.023  0.00  0.00    +0.132 C 
BRANCH  18  20
ATOM     19  C   UNL     1       0.616   0.654  -0.033  0.00  0.00    +0.092 A 
ATOM     20  C   UNL     1       0.444  -0.687   0.020  0.00  0.00    +0.050 A 
ATOM     21  N   UNL     1       1.665  -1.258   0.072  0.00  0.00    -0.277 N 
ATOM     22  N   UNL     1       2.623  -0.237   0.049  0.00  0.00    -0.136 NA
ATOM     23  H   UNL     1       1.847  -2.210   0.117  0.00  0.00    +0.189 HD
ATOM     24  C   UNL     1       1.995   0.912  -0.013  0.00  0.00    +0.231 A 
BRANCH  24  25
ATOM     25  O   UNL     1       2.578   2.140  -0.054  0.00  0.00    -0.491 OA
ATOM     26  H   UNL     1       2.727   2.533   0.817  0.00  0.00    +0.294 HD
ENDBRANCH  24  25
ENDBRANCH  18  20
ENDBRANCH  17  18
ENDBRANCH   1  17
TORSDOF 4
