REMARK  Name = ZINC20527839
REMARK  6 active torsions:
REMARK  status: ('A' for Active; 'I' for Inactive)
REMARK    1  A    between atoms: C_7  and  C_11
REMARK    2  A    between atoms: N_12  and  N_13
REMARK    3  A    between atoms: C_17  and  S_20
REMARK    4  A    between atoms: N_18  and  N_19
REMARK    5  A    between atoms: S_20  and  C_21
REMARK    6  A    between atoms: C_21  and  C_22
REMARK                            x       y       z     vdW  Elec       q    Type
REMARK                         _______ _______ _______ _____ _____    ______ ____
ROOT
ATOM      1  N   UNL     1      -4.832   1.765   0.030  0.00  0.00    -0.204 N 
ATOM      2  C   UNL     1      -5.878   2.677   0.039  0.00  0.00    +0.254 A 
ATOM      3  N   UNL     1      -5.762   3.983   0.052  0.00  0.00    -0.109 NA
ATOM      4  N   UNL     1      -7.051   4.532   0.054  0.00  0.00    -0.119 NA
ATOM      5  C   UNL     1      -7.912   3.543   0.052  0.00  0.00    +0.210 A 
ATOM      6  N   UNL     1      -7.210   2.371   0.043  0.00  0.00    -0.211 N 
ATOM      7  H   UNL     1      -5.044   0.686   0.025  0.00  0.00    +0.177 HD
ENDROOT
BRANCH   6   8
ATOM      8  N   UNL     1      -7.746   1.114   0.038  0.00  0.00    -0.294 N 
ATOM      9  H   UNL     1      -8.838   0.982   0.042  0.00  0.00    +0.163 HD
ATOM     10  H   UNL     1      -7.085   0.235   0.031  0.00  0.00    +0.163 HD
ENDBRANCH   6   8
BRANCH   1  12
ATOM     11  C   UNL     1      -2.528   1.366   0.019  0.00  0.00    +0.140 C 
ATOM     12  N   UNL     1      -3.507   2.220   0.028  0.00  0.00    -0.187 NA
BRANCH  11  19
ATOM     13  C   UNL     1      -0.622   5.634   0.038  0.00  0.00    +0.001 A 
ATOM     14  C   UNL     1       0.765   5.599   0.025  0.00  0.00    +0.002 A 
ATOM     15  C   UNL     1       1.437   4.396   0.012  0.00  0.00    +0.026 A 
ATOM     16  C   UNL     1       0.719   3.204   0.012  0.00  0.00    +0.047 A 
ATOM     17  C   UNL     1      -0.685   3.247   0.026  0.00  0.00    +0.008 A 
ATOM     18  C   UNL     1      -1.345   4.474   0.039  0.00  0.00    +0.010 A 
ATOM     19  C   UNL     1      -1.135   1.844   0.017  0.00  0.00    +0.020 A 
ATOM     20  C   UNL     1      -0.013   1.076   0.008  0.00  0.00    +0.093 A 
ATOM     21  N   UNL     1       1.093   1.877   0.002  0.00  0.00    -0.360 N 
ATOM     22  H   UNL     1       2.158   1.605  -0.010  0.00  0.00    +0.165 HD
ENDBRANCH  11  19
ENDBRANCH   1  12
BRANCH   5  23
ATOM     23  S   UNL     1      -9.668   3.699   0.058  0.00  0.00    -0.080 S 
BRANCH  23  24
ATOM     24  C   UNL     1      -9.949   5.491   0.070  0.00  0.00    +0.112 C 
BRANCH  24  25
ATOM     25  C   UNL     1     -11.430   5.767   0.076  0.00  0.00    -0.037 A 
ATOM     26  C   UNL     1     -12.112   5.906  -1.118  0.00  0.00    +0.007 A 
ATOM     27  C   UNL     1     -13.471   6.155  -1.114  0.00  0.00    +0.038 A 
ATOM     28  C   UNL     1     -14.149   6.274   0.088  0.00  0.00    +0.123 A 
ATOM     29  C   UNL     1     -13.464   6.140   1.284  0.00  0.00    +0.038 A 
ATOM     30  C   UNL     1     -12.105   5.887   1.277  0.00  0.00    +0.007 A 
ATOM     31  F   UNL     1     -15.477   6.522   0.094  0.00  0.00    -0.205 F 
ENDBRANCH  24  25
ENDBRANCH  23  24
ENDBRANCH   5  23
TORSDOF 6
