REMARK  Name = ZINC06193611
REMARK  11 active torsions:
REMARK  status: ('A' for Active; 'I' for Inactive)
REMARK    1  A    between atoms: C_1  and  C_2
REMARK    2  A    between atoms: C_2  and  N_66
REMARK    3  A    between atoms: C_3  and  C_4
REMARK    4  A    between atoms: C_3  and  N_66
REMARK    5  A    between atoms: C_10  and  C_12
REMARK    6  A    between atoms: C_10  and  C_26
REMARK    7  A    between atoms: C_10  and  N_66
REMARK    8  A    between atoms: C_16  and  C_25
REMARK    9  A    between atoms: C_18  and  C_24
REMARK   10  A    between atoms: N_30  and  C_31
REMARK   11  A    between atoms: C_31  and  C_32
REMARK                            x       y       z     vdW  Elec       q    Type
REMARK                         _______ _______ _______ _____ _____    ______ ____
ROOT
ATOM      1  C   UNL     1       2.341   6.679  -2.276  0.00  0.00    +0.039 C 
ENDROOT
BRANCH   1   2
ATOM      2  C   UNL     1       0.880   6.483  -2.590  0.00  0.00    +0.011 A 
ATOM      3  C   UNL     1      -0.025   6.423  -1.582  0.00  0.00    +0.017 A 
ATOM      4  C   UNL     1      -1.437   6.232  -1.921  0.00  0.00    -0.001 A 
ATOM      5  C   UNL     1      -2.417   6.162  -0.925  0.00  0.00    +0.013 A 
ATOM      6  C   UNL     1      -3.725   5.984  -1.274  0.00  0.00    -0.050 A 
ATOM      7  C   UNL     1      -4.092   5.871  -2.608  0.00  0.00    +0.008 A 
ATOM      8  C   UNL     1      -3.143   5.937  -3.606  0.00  0.00    -0.026 A 
ATOM      9  C   UNL     1      -1.804   6.118  -3.275  0.00  0.00    +0.052 A 
ATOM     10  N   UNL     1      -0.835   6.187  -4.252  0.00  0.00    -0.322 N 
ATOM     11  H   UNL     1      -1.097   6.101  -5.213  0.00  0.00    +0.169 HD
ATOM     12  C   UNL     1       0.458   6.368  -3.932  0.00  0.00    +0.251 A 
ATOM     13  O   UNL     1       1.288   6.430  -4.823  0.00  0.00    -0.268 OA
ATOM     14  C   UNL     1      -3.555   5.814  -5.050  0.00  0.00    +0.046 C 
ATOM     15  C   UNL     1      -4.781   5.910  -0.200  0.00  0.00    +0.044 C 
ENDBRANCH   1   2
BRANCH   1  16
ATOM     16  C   UNL     1       3.136   5.537  -2.854  0.00  0.00    +0.143 A 
ATOM     17  N   UNL     1       3.436   5.351  -4.116  0.00  0.00    -0.115 NA
ATOM     18  N   UNL     1       4.125   4.266  -4.207  0.00  0.00    -0.023 NA
ATOM     19  N   UNL     1       4.278   3.758  -3.034  0.00  0.00    -0.044 NA
ATOM     20  N   UNL     1       3.678   4.510  -2.173  0.00  0.00    -0.226 N 
BRANCH  20  21
ATOM     21  C   UNL     1       3.605   4.289  -0.727  0.00  0.00    +0.182 C 
BRANCH  21  22
ATOM     22  C   UNL     1       2.478   3.337  -0.420  0.00  0.00    -0.026 A 
ATOM     23  C   UNL     1       2.680   1.973  -0.514  0.00  0.00    +0.005 A 
ATOM     24  C   UNL     1       1.647   1.100  -0.233  0.00  0.00    +0.000 A 
ATOM     25  C   UNL     1       0.409   1.591   0.138  0.00  0.00    +0.000 A 
ATOM     26  C   UNL     1       0.208   2.955   0.238  0.00  0.00    +0.000 A 
ATOM     27  C   UNL     1       1.242   3.828  -0.043  0.00  0.00    +0.005 A 
ENDBRANCH  21  22
ENDBRANCH  20  21
ENDBRANCH   1  16
BRANCH   1  28
ATOM     28  N   UNL     1       2.802   7.941  -2.893  0.00  0.00    +0.392 N 
ATOM     29  H   UNL     1       2.785   7.839  -3.914  0.00  0.00    -0.080 HD
BRANCH  28  31
ATOM     30  C   UNL     1       0.690   9.042  -3.434  0.00  0.00    -0.017 C 
ATOM     31  C   UNL     1       1.905   9.050  -2.505  0.00  0.00    -0.080 C 
ENDBRANCH  28  31
BRANCH  28  32
ATOM     32  C   UNL     1       4.185   8.236  -2.463  0.00  0.00    -0.042 C 
BRANCH  32  33
ATOM     33  C   UNL     1       5.135   7.424  -3.305  0.00  0.00    -0.064 A 
ATOM     34  C   UNL     1       5.670   6.251  -2.808  0.00  0.00    +0.002 A 
ATOM     35  C   UNL     1       6.537   5.503  -3.582  0.00  0.00    +0.000 A 
ATOM     36  C   UNL     1       6.878   5.934  -4.850  0.00  0.00    +0.000 A 
ATOM     37  C   UNL     1       6.348   7.111  -5.346  0.00  0.00    +0.000 A 
ATOM     38  C   UNL     1       5.476   7.856  -4.574  0.00  0.00    +0.002 A 
ENDBRANCH  32  33
ENDBRANCH  28  32
ENDBRANCH   1  28
TORSDOF 8
