REMARK  Name = ZINC12833459
REMARK  11 active torsions:
REMARK  status: ('A' for Active; 'I' for Inactive)
REMARK    1  A    between atoms: C_1  and  O_2
REMARK    2  A    between atoms: O_2  and  C_3
REMARK    3  A    between atoms: C_6  and  C_9
REMARK    4  A    between atoms: C_9  and  N_10
REMARK    5  A    between atoms: C_11  and  C_15
REMARK    6  A    between atoms: C_15  and  N_68
REMARK    7  A    between atoms: C_16  and  C_17
REMARK    8  A    between atoms: C_16  and  N_68
REMARK    9  A    between atoms: C_21  and  O_29
REMARK   10  A    between atoms: O_29  and  C_30
REMARK   11  A    between atoms: C_31  and  N_68
REMARK                            x       y       z     vdW  Elec       q    Type
REMARK                         _______ _______ _______ _____ _____    ______ ____
ROOT
ATOM      1  N   UNL     1      -0.200   0.669  -2.787  0.00  0.00    +0.389 N 
ATOM      2  H   UNL     1      -0.008  -0.322  -2.974  0.00  0.00    -0.080 HD
ENDROOT
BRANCH   1   3
ATOM      3  C   UNL     1      -0.916   0.785  -1.499  0.00  0.00    -0.068 C 
ATOM      4  C   UNL     1      -0.140   0.010  -0.432  0.00  0.00    -0.015 C 
ATOM      5  C   UNL     1      -0.880   0.101   0.904  0.00  0.00    -0.002 C 
ATOM      6  C   UNL     1      -0.996   1.568   1.323  0.00  0.00    -0.000 C 
ATOM      7  C   UNL     1      -1.772   2.343   0.256  0.00  0.00    -0.002 C 
ATOM      8  C   UNL     1      -1.032   2.252  -1.080  0.00  0.00    -0.015 C 
ENDBRANCH   1   3
BRANCH   1   9
ATOM      9  C   UNL     1       1.082   1.402  -2.720  0.00  0.00    +0.001 C 
BRANCH   9  11
ATOM     10  N   UNL     1       2.074   1.614  -5.060  0.00  0.00    -0.227 N 
ATOM     11  C   UNL     1       1.943   0.978  -3.881  0.00  0.00    +0.135 A 
ATOM     12  N   UNL     1       2.707  -0.086  -3.941  0.00  0.00    -0.115 NA
ATOM     13  N   UNL     1       3.281  -0.099  -5.095  0.00  0.00    -0.023 NA
ATOM     14  N   UNL     1       2.903   0.928  -5.772  0.00  0.00    -0.044 NA
BRANCH  10  15
ATOM     15  C   UNL     1       1.403   2.854  -5.458  0.00  0.00    +0.182 C 
BRANCH  15  19
ATOM     16  C   UNL     1       3.955   6.181  -4.635  0.00  0.00    +0.120 A 
ATOM     17  C   UNL     1       3.994   5.567  -5.878  0.00  0.00    +0.046 A 
ATOM     18  C   UNL     1       3.167   4.492  -6.142  0.00  0.00    +0.009 A 
ATOM     19  C   UNL     1       2.303   4.027  -5.168  0.00  0.00    -0.026 A 
ATOM     20  C   UNL     1       2.259   4.641  -3.930  0.00  0.00    +0.009 A 
ATOM     21  C   UNL     1       3.087   5.713  -3.659  0.00  0.00    +0.046 A 
BRANCH  16  23
ATOM     22  C   UNL     1       4.673   7.822  -3.071  0.00  0.00    +0.277 C 
ATOM     23  O   UNL     1       4.767   7.239  -4.373  0.00  0.00    -0.495 OA
ENDBRANCH  16  23
ENDBRANCH  15  19
ENDBRANCH  10  15
ENDBRANCH   9  11
ENDBRANCH   1   9
BRANCH   1  24
ATOM     24  C   UNL     1      -1.035   1.211  -3.879  0.00  0.00    -0.037 C 
BRANCH  24  25
ATOM     25  C   UNL     1      -2.230   0.312  -4.069  0.00  0.00    +0.001 A 
ATOM     26  C   UNL     1      -3.405   0.614  -3.463  0.00  0.00    +0.017 A 
ATOM     27  C   UNL     1      -4.548  -0.277  -3.671  0.00  0.00    +0.002 A 
ATOM     28  C   UNL     1      -5.786  -0.014  -3.075  0.00  0.00    +0.055 A 
ATOM     29  C   UNL     1      -6.842  -0.877  -3.287  0.00  0.00    +0.121 A 
ATOM     30  C   UNL     1      -6.678  -2.004  -4.089  0.00  0.00    +0.047 A 
ATOM     31  C   UNL     1      -5.465  -2.274  -4.682  0.00  0.00    +0.030 A 
ATOM     32  C   UNL     1      -4.388  -1.417  -4.481  0.00  0.00    +0.049 A 
ATOM     33  N   UNL     1      -3.163  -1.670  -5.065  0.00  0.00    -0.322 N 
ATOM     34  H   UNL     1      -3.053  -2.455  -5.623  0.00  0.00    +0.169 HD
ATOM     35  C   UNL     1      -2.120  -0.843  -4.872  0.00  0.00    +0.251 A 
ATOM     36  O   UNL     1      -1.054  -1.098  -5.403  0.00  0.00    -0.268 OA
BRANCH  29  37
ATOM     37  O   UNL     1      -8.047  -0.627  -2.710  0.00  0.00    -0.495 OA
ATOM     38  C   UNL     1      -9.098  -1.560  -2.970  0.00  0.00    +0.277 C 
ENDBRANCH  29  37
ENDBRANCH  24  25
ENDBRANCH   1  24
TORSDOF 9
