REMARK  Name = ZINC38892258
REMARK  10 active torsions:
REMARK  status: ('A' for Active; 'I' for Inactive)
REMARK    1  A    between atoms: C_1  and  O_2
REMARK    2  A    between atoms: O_2  and  C_3
REMARK    3  A    between atoms: C_6  and  C_9
REMARK    4  A    between atoms: C_11  and  C_14
REMARK    5  A    between atoms: C_14  and  N_15
REMARK    6  A    between atoms: C_19  and  C_22
REMARK    7  A    between atoms: N_24  and  C_25
REMARK    8  A    between atoms: C_25  and  C_26
REMARK    9  A    between atoms: C_26  and  S_27
REMARK   10  A    between atoms: S_27  and  C_28
REMARK                            x       y       z     vdW  Elec       q    Type
REMARK                         _______ _______ _______ _____ _____    ______ ____
ROOT
ATOM      1  N   UNL     1       2.457  -5.873  -7.086  0.00  0.00    +0.386 N 
ATOM      2  C   UNL     1       2.363  -4.984  -8.251  0.00  0.00    -0.078 C 
ATOM      3  C   UNL     1       1.168  -5.394  -9.115  0.00  0.00    -0.018 C 
ATOM      4  C   UNL     1       1.358  -6.838  -9.587  0.00  0.00    +0.009 C 
ATOM      5  C   UNL     1       1.530  -7.746  -8.365  0.00  0.00    +0.058 C 
ATOM      6  C   UNL     1       2.711  -7.249  -7.529  0.00  0.00    -0.065 C 
ATOM      7  H   UNL     1       1.590  -5.841  -6.571  0.00  0.00    -0.081 HD
ENDROOT
BRANCH   5   8
ATOM      8  C   UNL     1       1.793  -9.158  -8.821  0.00  0.00    +0.214 C 
ATOM      9  O   UNL     1       2.823  -9.715  -8.505  0.00  0.00    -0.276 OA
ATOM     10  N   UNL     1       0.884  -9.802  -9.579  0.00  0.00    -0.314 N 
ATOM     11  H   UNL     1       0.060  -9.357  -9.832  0.00  0.00    +0.149 HD
BRANCH  10  12
ATOM     12  C   UNL     1       1.140 -11.175 -10.022  0.00  0.00    +0.115 C 
BRANCH  12  13
ATOM     13  C   UNL     1      -0.039 -11.669 -10.862  0.00  0.00    +0.093 C 
BRANCH  13  14
ATOM     14  S   UNL     1       0.278 -13.368 -11.410  0.00  0.00    -0.124 S 
BRANCH  14  15
ATOM     15  C   UNL     1      -1.152 -13.786 -12.352  0.00  0.00    +0.008 A 
ATOM     16  C   UNL     1      -2.174 -12.859 -12.514  0.00  0.00    +0.016 A 
ATOM     17  C   UNL     1      -3.293 -13.190 -13.253  0.00  0.00    +0.021 A 
ATOM     18  C   UNL     1      -3.397 -14.443 -13.831  0.00  0.00    +0.041 A 
ATOM     19  C   UNL     1      -2.381 -15.368 -13.671  0.00  0.00    +0.021 A 
ATOM     20  C   UNL     1      -1.256 -15.042 -12.938  0.00  0.00    +0.016 A 
ATOM     21 CL   UNL     1      -4.806 -14.855 -14.758  0.00  0.00    -0.084 Cl
ENDBRANCH  14  15
ENDBRANCH  13  14
ENDBRANCH  12  13
ENDBRANCH  10  12
ENDBRANCH   5   8
BRANCH   1  22
ATOM     22  C   UNL     1       3.557  -5.428  -6.220  0.00  0.00    +0.022 C 
BRANCH  22  25
ATOM     23  C   UNL     1       2.496  -2.494  -4.365  0.00  0.00    +0.202 A 
ATOM     24  N   UNL     1       2.605  -3.822  -4.554  0.00  0.00    -0.193 NA
ATOM     25  C   UNL     1       3.239  -4.063  -5.666  0.00  0.00    +0.211 A 
ATOM     26  O   UNL     1       3.562  -2.894  -6.234  0.00  0.00    -0.340 OA
ATOM     27  N   UNL     1       3.064  -1.879  -5.374  0.00  0.00    -0.056 NA
BRANCH  23  31
ATOM     28  C   UNL     1       0.606  -0.607  -1.055  0.00  0.00    +0.120 A 
ATOM     29  C   UNL     1       1.172   0.164  -2.061  0.00  0.00    +0.046 A 
ATOM     30  C   UNL     1       1.786  -0.445  -3.135  0.00  0.00    +0.015 A 
ATOM     31  C   UNL     1       1.837  -1.836  -3.211  0.00  0.00    +0.023 A 
ATOM     32  C   UNL     1       1.267  -2.607  -2.199  0.00  0.00    +0.015 A 
ATOM     33  C   UNL     1       0.659  -1.993  -1.125  0.00  0.00    +0.046 A 
BRANCH  28  35
ATOM     34  C   UNL     1      -0.017   1.425   0.010  0.00  0.00    +0.277 C 
ATOM     35  O   UNL     1       0.002  -0.004   0.002  0.00  0.00    -0.495 OA
ENDBRANCH  28  35
ENDBRANCH  23  31
ENDBRANCH  22  25
ENDBRANCH   1  22
TORSDOF 9
