REMARK  Name = ZINC39631372
REMARK  14 active torsions:
REMARK  status: ('A' for Active; 'I' for Inactive)
REMARK    1  A    between atoms: C_1  and  C_2
REMARK    2  A    between atoms: C_2  and  O_3
REMARK    3  A    between atoms: O_3  and  C_4
REMARK    4  A    between atoms: C_7  and  C_10
REMARK    5  A    between atoms: C_14  and  C_23
REMARK    6  A    between atoms: N_25  and  C_26
REMARK    7  A    between atoms: C_26  and  C_28
REMARK    8  A    between atoms: C_26  and  C_29
REMARK    9  A    between atoms: C_29  and  C_30
REMARK   10  A    between atoms: C_30  and  C_31
REMARK   11  A    between atoms: C_31  and  C_32
REMARK   12  A    between atoms: C_32  and  C_33
REMARK   13  A    between atoms: C_32  and  C_34
REMARK   14  A    between atoms: C_32  and  O_35
REMARK                            x       y       z     vdW  Elec       q    Type
REMARK                         _______ _______ _______ _____ _____    ______ ____
ROOT
ATOM      1  C   UNL     1      -0.999  -5.151   1.885  0.00  0.00    +0.247 C 
ATOM      2  O   UNL     1      -1.619  -5.940   1.198  0.00  0.00    -0.270 OA
ATOM      3  N   UNL     1       0.035  -5.578   2.636  0.00  0.00    -0.296 N 
ATOM      4  C   UNL     1       0.828  -4.799   3.616  0.00  0.00    +0.121 C 
ATOM      5  C   UNL     1       1.077  -5.779   4.784  0.00  0.00    +0.100 C 
ATOM      6  C   UNL     1       0.951  -7.177   4.157  0.00  0.00    -0.004 C 
ATOM      7  C   UNL     1       0.630  -6.935   2.675  0.00  0.00    +0.115 C 
ATOM      8  C   UNL     1      -0.187  -7.951   4.816  0.00  0.00    -0.010 C 
ATOM      9  C   UNL     1      -0.256  -9.358   4.216  0.00  0.00    -0.082 C 
ATOM     10  N   UNL     1       1.021 -10.048   4.432  0.00  0.00    +0.379 N 
ATOM     11  C   UNL     1       2.096  -9.348   3.718  0.00  0.00    -0.082 C 
ATOM     12  C   UNL     1       2.264  -7.940   4.297  0.00  0.00    -0.010 C 
ATOM     13  H   UNL     1       1.230 -10.064   5.419  0.00  0.00    -0.086 HD
ATOM     14  H   UNL     1       0.953 -10.994   4.090  0.00  0.00    -0.086 HD
ENDROOT
BRANCH   1  18
ATOM     15  C   UNL     1      -2.093  -1.047   1.913  0.00  0.00    +0.121 A 
ATOM     16  C   UNL     1      -2.995  -2.002   1.458  0.00  0.00    +0.046 A 
ATOM     17  C   UNL     1      -2.644  -3.333   1.448  0.00  0.00    +0.016 A 
ATOM     18  C   UNL     1      -1.379  -3.724   1.894  0.00  0.00    +0.037 A 
ATOM     19  C   UNL     1      -0.475  -2.762   2.350  0.00  0.00    +0.016 A 
ATOM     20  C   UNL     1      -0.832  -1.432   2.353  0.00  0.00    +0.046 A 
BRANCH  15  21
ATOM     21  O   UNL     1      -2.442   0.264   1.922  0.00  0.00    -0.492 OA
BRANCH  21  23
ATOM     22  C   UNL     1      -3.964   2.102   1.541  0.00  0.00    +0.048 C 
ATOM     23  C   UNL     1      -3.753   0.589   1.457  0.00  0.00    +0.225 C 
ENDBRANCH  21  23
ENDBRANCH  15  21
ENDBRANCH   1  18
BRANCH   5  24
ATOM     24  C   UNL     1       0.039  -5.588   5.860  0.00  0.00    +0.218 C 
ATOM     25  O   UNL     1      -1.086  -5.245   5.563  0.00  0.00    -0.275 OA
ATOM     26  N   UNL     1       0.360  -5.797   7.152  0.00  0.00    -0.312 N 
ATOM     27  H   UNL     1       1.236  -6.145   7.383  0.00  0.00    +0.149 HD
BRANCH  26  28
ATOM     28  C   UNL     1      -0.612  -5.500   8.206  0.00  0.00    +0.070 C 
ATOM     29  C   UNL     1      -1.515  -6.715   8.425  0.00  0.00    +0.028 C 
BRANCH  28  30
ATOM     30  C   UNL     1       0.128  -5.174   9.505  0.00  0.00    +0.022 C 
BRANCH  30  31
ATOM     31  C   UNL     1       0.980  -3.919   9.306  0.00  0.00    +0.005 C 
BRANCH  31  32
ATOM     32  C   UNL     1       1.808  -3.660  10.567  0.00  0.00    +0.034 C 
BRANCH  32  33
ATOM     33  C   UNL     1       2.560  -2.336  10.419  0.00  0.00    +0.061 C 
ATOM     34  C   UNL     1       3.331  -2.041  11.707  0.00  0.00    +0.041 C 
ATOM     35  C   UNL     1       3.541  -2.435   9.249  0.00  0.00    +0.041 C 
BRANCH  33  36
ATOM     36  O   UNL     1       1.627  -1.283  10.170  0.00  0.00    -0.389 OA
ATOM     37  H   UNL     1       0.973  -1.162  10.872  0.00  0.00    +0.210 HD
ENDBRANCH  33  36
ENDBRANCH  32  33
ENDBRANCH  31  32
ENDBRANCH  30  31
ENDBRANCH  28  30
ENDBRANCH  26  28
ENDBRANCH   5  24
TORSDOF 10
