REMARK  Name = ZINC41584605
REMARK  6 active torsions:
REMARK  status: ('A' for Active; 'I' for Inactive)
REMARK    1  A    between atoms: C_1  and  C_2
REMARK    2  A    between atoms: C_5  and  C_8
REMARK    3  A    between atoms: C_15  and  O_33
REMARK    4  A    between atoms: C_16  and  C_19
REMARK    5  A    between atoms: C_19  and  N_20
REMARK    6  A    between atoms: C_25  and  C_27
REMARK                            x       y       z     vdW  Elec       q    Type
REMARK                         _______ _______ _______ _____ _____    ______ ____
ROOT
ATOM      1  C   UNL     1       0.654  -2.622  -0.085  0.00  0.00    +0.058 C 
ATOM      2  C   UNL     1       0.798  -3.526   0.916  0.00  0.00    +0.176 C 
ATOM      3  C   UNL     1       1.128  -4.952   0.759  0.00  0.00    +0.231 C 
ATOM      4  O   UNL     1       1.326  -5.562  -0.277  0.00  0.00    -0.283 OA
ATOM      5  C   UNL     1       1.165  -5.476   2.136  0.00  0.00    +0.068 A 
ATOM      6  C   UNL     1       1.418  -6.740   2.669  0.00  0.00    +0.019 A 
ATOM      7  C   UNL     1       1.380  -6.929   4.022  0.00  0.00    +0.046 A 
ATOM      8  C   UNL     1       1.091  -5.862   4.869  0.00  0.00    +0.122 A 
ATOM      9  C   UNL     1       0.838  -4.601   4.353  0.00  0.00    +0.020 A 
ATOM     10  C   UNL     1       0.872  -4.393   2.980  0.00  0.00    +0.144 A 
ATOM     11  O   UNL     1       0.670  -3.280   2.241  0.00  0.00    -0.451 OA
ENDROOT
BRANCH   1  16
ATOM     12  C   UNL     1      -0.146   2.933   1.156  0.00  0.00    +0.044 C 
ATOM     13  C   UNL     1       0.064   1.476   0.831  0.00  0.00    -0.050 A 
ATOM     14  C   UNL     1       0.094   0.541   1.850  0.00  0.00    +0.004 A 
ATOM     15  C   UNL     1       0.285  -0.793   1.561  0.00  0.00    +0.008 A 
ATOM     16  C   UNL     1       0.449  -1.201   0.233  0.00  0.00    -0.021 A 
ATOM     17  C   UNL     1       0.417  -0.249  -0.792  0.00  0.00    +0.008 A 
ATOM     18  C   UNL     1       0.219   1.081  -0.487  0.00  0.00    +0.004 A 
ENDBRANCH   1  16
BRANCH   8  19
ATOM     19  O   UNL     1       1.056  -6.059   6.211  0.00  0.00    -0.506 OA
ATOM     20  H   UNL     1       1.906  -5.923   6.651  0.00  0.00    +0.292 HD
ENDBRANCH   8  19
BRANCH   9  21
ATOM     21  C   UNL     1       0.526  -3.456   5.282  0.00  0.00    -0.035 C 
BRANCH  21  22
ATOM     22  N   UNL     1      -0.898  -3.493   5.643  0.00  0.00    +0.387 N 
ATOM     23  C   UNL     1      -1.712  -3.263   4.444  0.00  0.00    -0.078 C 
ATOM     24  C   UNL     1      -3.195  -3.381   4.800  0.00  0.00    -0.019 C 
ATOM     25  C   UNL     1      -3.544  -2.336   5.863  0.00  0.00    -0.003 C 
ATOM     26  C   UNL     1      -2.638  -2.539   7.081  0.00  0.00    -0.011 C 
ATOM     27  C   UNL     1      -1.175  -2.452   6.641  0.00  0.00    -0.036 C 
ATOM     28  H   UNL     1      -1.122  -4.397   6.031  0.00  0.00    -0.080 HD
BRANCH  27  29
ATOM     29  C   UNL     1      -0.279  -2.651   7.836  0.00  0.00    -0.043 A 
ATOM     30  C   UNL     1       0.412  -1.580   8.381  0.00  0.00    +0.005 A 
ATOM     31  C   UNL     1       1.225  -1.810   9.480  0.00  0.00    +0.020 A 
ATOM     32  C   UNL     1       1.319  -3.090   9.992  0.00  0.00    +0.111 A 
ATOM     33  N   UNL     1       0.648  -4.085   9.448  0.00  0.00    -0.263 NA
ATOM     34  C   UNL     1      -0.140  -3.902   8.405  0.00  0.00    +0.112 A 
ENDBRANCH  27  29
ENDBRANCH  21  22
ENDBRANCH   9  21
TORSDOF 5
