REMARK  Name = ZINC14669083
REMARK  8 active torsions:
REMARK  status: ('A' for Active; 'I' for Inactive)
REMARK    1  A    between atoms: C_4  and  C_7
REMARK    2  A    between atoms: C_7  and  C_8
REMARK    3  A    between atoms: C_8  and  O_9
REMARK    4  A    between atoms: O_9  and  C_10
REMARK    5  A    between atoms: C_13  and  N_16
REMARK    6  A    between atoms: N_16  and  C_17
REMARK    7  A    between atoms: C_17  and  N_19
REMARK    8  A    between atoms: C_20  and  C_22
REMARK                            x       y       z     vdW  Elec       q    Type
REMARK                         _______ _______ _______ _____ _____    ______ ____
ROOT
ATOM      1  N   UNL     1      -4.697  -0.836   0.042  0.00  0.00    -0.297 N 
ATOM      2  H   UNL     1      -3.945  -0.964  -0.557  0.00  0.00    +0.154 HD
ENDROOT
BRANCH   1   6
ATOM      3  C   UNL     1      -7.737  -3.685   0.206  0.00  0.00    +0.121 A 
ATOM      4  C   UNL     1      -8.054  -2.337   0.140  0.00  0.00    +0.047 A 
ATOM      5  C   UNL     1      -7.048  -1.392   0.086  0.00  0.00    +0.027 A 
ATOM      6  C   UNL     1      -5.718  -1.794   0.097  0.00  0.00    +0.033 A 
ATOM      7  C   UNL     1      -5.402  -3.144   0.157  0.00  0.00    +0.027 A 
ATOM      8  C   UNL     1      -6.409  -4.087   0.216  0.00  0.00    +0.047 A 
BRANCH   3   9
ATOM      9  O   UNL     1      -8.729  -4.614   0.260  0.00  0.00    -0.492 OA
BRANCH   9  10
ATOM     10  C   UNL     1      -8.330  -5.985   0.326  0.00  0.00    +0.233 C 
BRANCH  10  11
ATOM     11  C   UNL     1      -9.573  -6.876   0.379  0.00  0.00    +0.076 C 
BRANCH  11  15
ATOM     12  C   UNL     1      -8.382 -10.973   0.577  0.00  0.00    +0.000 A 
ATOM     13  C   UNL     1      -8.566 -10.250   1.740  0.00  0.00    +0.000 A 
ATOM     14  C   UNL     1      -8.951  -8.924   1.676  0.00  0.00    +0.004 A 
ATOM     15  C   UNL     1      -9.153  -8.321   0.449  0.00  0.00    -0.044 A 
ATOM     16  C   UNL     1      -8.974  -9.046  -0.715  0.00  0.00    +0.004 A 
ATOM     17  C   UNL     1      -8.584 -10.370  -0.651  0.00  0.00    +0.000 A 
ENDBRANCH  11  15
ENDBRANCH  10  11
ENDBRANCH   9  10
ENDBRANCH   3   9
ENDBRANCH   1   6
BRANCH   1  18
ATOM     18  C   UNL     1      -4.760   0.262   0.820  0.00  0.00    +0.141 C 
ATOM     19  S   UNL     1      -6.139   0.542   1.796  0.00  0.00    -0.018 S 
BRANCH  18  20
ATOM     20  N   UNL     1      -3.738   1.140   0.831  0.00  0.00    -0.263 N 
ATOM     21  C   UNL     1      -3.801   2.239   1.609  0.00  0.00    +0.258 C 
ATOM     22  O   UNL     1      -4.781   2.437   2.303  0.00  0.00    -0.269 OA
ATOM     23  H   UNL     1      -2.957   0.982   0.278  0.00  0.00    +0.157 HD
BRANCH  21  24
ATOM     24  C   UNL     1      -2.688   3.195   1.621  0.00  0.00    +0.094 A 
ATOM     25  C   UNL     1      -2.569   4.349   2.333  0.00  0.00    +0.068 A 
ATOM     26  C   UNL     1      -1.409   5.135   2.203  0.00  0.00    +0.008 A 
ATOM     27  C   UNL     1      -1.099   6.358   2.854  0.00  0.00    +0.010 A 
ATOM     28  C   UNL     1       0.076   6.994   2.614  0.00  0.00    +0.001 A 
ATOM     29  C   UNL     1       1.016   6.479   1.730  0.00  0.00    +0.001 A 
ATOM     30  C   UNL     1       0.756   5.292   1.076  0.00  0.00    +0.016 A 
ATOM     31  C   UNL     1      -0.433   4.635   1.309  0.00  0.00    +0.021 A 
ATOM     32  S   UNL     1      -1.158   3.131   0.705  0.00  0.00    -0.082 S 
ATOM     33 CL   UNL     1      -3.844   4.849   3.399  0.00  0.00    -0.082 Cl
ENDBRANCH  21  24
ENDBRANCH  18  20
ENDBRANCH   1  18
TORSDOF 8
