REMARK  Name = ZINC39352447
REMARK  13 active torsions:
REMARK  status: ('A' for Active; 'I' for Inactive)
REMARK    1  A    between atoms: C_1  and  C_2
REMARK    2  A    between atoms: C_2  and  C_3
REMARK    3  A    between atoms: C_6  and  C_8
REMARK    4  A    between atoms: C_8  and  N_9
REMARK    5  A    between atoms: N_9  and  C_10
REMARK    6  A    between atoms: N_16  and  C_29
REMARK    7  A    between atoms: C_17  and  C_25
REMARK    8  A    between atoms: C_19  and  N_21
REMARK    9  A    between atoms: C_22  and  C_24
REMARK   10  A    between atoms: C_25  and  O_27
REMARK   11  A    between atoms: O_27  and  C_28
REMARK   12  A    between atoms: C_29  and  C_30
REMARK   13  A    between atoms: C_30  and  C_31
REMARK                            x       y       z     vdW  Elec       q    Type
REMARK                         _______ _______ _______ _____ _____    ______ ____
ROOT
ATOM      1  C   UNL     1       0.249  -3.578  -6.045  0.00  0.00    +0.044 A 
ATOM      2  C   UNL     1      -0.039  -4.939  -6.131  0.00  0.00    +0.033 A 
ATOM      3  C   UNL     1      -0.295  -5.481  -7.376  0.00  0.00    +0.015 A 
ATOM      4  C   UNL     1      -0.263  -4.674  -8.505  0.00  0.00    +0.105 A 
ATOM      5  N   UNL     1       0.016  -3.377  -8.378  0.00  0.00    -0.348 N 
ATOM      6  C   UNL     1       0.260  -2.824  -7.209  0.00  0.00    +0.107 A 
ATOM      7  N   UNL     1      -0.547  -5.400  -9.660  0.00  0.00    -0.301 N 
ATOM      8  C   UNL     1      -0.794  -6.805  -9.326  0.00  0.00    +0.208 C 
ATOM      9  C   UNL     1      -0.633  -6.891  -7.800  0.00  0.00    +0.138 C 
ATOM     10  H   UNL     1       0.036  -2.822  -9.173  0.00  0.00    +0.167 HD
ENDROOT
BRANCH   9  11
ATOM     11  N   UNL     1      -1.885  -7.327  -7.176  0.00  0.00    -0.306 N 
ATOM     12  C   UNL     1      -1.870  -7.879  -5.947  0.00  0.00    +0.210 C 
ATOM     13  O   UNL     1      -0.819  -8.015  -5.356  0.00  0.00    -0.276 OA
ATOM     14  C   UNL     1      -3.158  -8.327  -5.306  0.00  0.00    +0.109 C 
ATOM     15  H   UNL     1      -2.725  -7.218  -7.649  0.00  0.00    +0.149 HD
ENDBRANCH   9  11
BRANCH   1  16
ATOM     16  N   UNL     1       0.515  -2.982  -4.806  0.00  0.00    -0.336 N 
ATOM     17  H   UNL     1       0.505  -3.518  -3.998  0.00  0.00    +0.147 HD
BRANCH  16  18
ATOM     18  C   UNL     1       0.810  -1.549  -4.731  0.00  0.00    +0.176 C 
BRANCH  18  22
ATOM     19  C   UNL     1       0.707  -0.490  -1.238  0.00  0.00    +0.105 A 
ATOM     20  C   UNL     1       2.025  -0.739  -1.347  0.00  0.00    +0.045 A 
ATOM     21  C   UNL     1       2.251  -1.172  -2.674  0.00  0.00    +0.046 A 
ATOM     22  C   UNL     1       1.059  -1.162  -3.296  0.00  0.00    +0.122 A 
ATOM     23  O   UNL     1       0.127  -0.754  -2.420  0.00  0.00    -0.463 OA
BRANCH  19  25
ATOM     24  C   UNL     1      -0.019   1.526   0.010  0.00  0.00    +0.012 C 
ATOM     25  C   UNL     1       0.002  -0.004   0.002  0.00  0.00    +0.071 C 
ENDBRANCH  19  25
ENDBRANCH  18  22
ENDBRANCH  16  18
ENDBRANCH   1  16
BRANCH   8  26
ATOM     26  C   UNL     1      -2.191  -7.200  -9.730  0.00  0.00    +0.330 C 
ATOM     27  O   UNL     1      -3.025  -6.349  -9.930  0.00  0.00    -0.249 OA
BRANCH  26  28
ATOM     28  O   UNL     1      -2.510  -8.497  -9.866  0.00  0.00    -0.467 OA
ATOM     29  C   UNL     1      -3.852  -8.799 -10.250  0.00  0.00    +0.280 C 
ENDBRANCH  26  28
ENDBRANCH   8  26
BRANCH   7  30
ATOM     30  C   UNL     1      -0.592  -4.840 -11.013  0.00  0.00    +0.112 C 
BRANCH  30  31
ATOM     31  C   UNL     1       0.797  -4.931 -11.649  0.00  0.00    +0.056 C 
BRANCH  31  32
ATOM     32  C   UNL     1       0.751  -4.354 -13.041  0.00  0.00    -0.021 A 
ATOM     33  C   UNL     1       0.890  -2.942 -13.404  0.00  0.00    +0.003 A 
ATOM     34  C   UNL     1       1.092  -1.768 -12.675  0.00  0.00    +0.010 A 
ATOM     35  C   UNL     1       1.182  -0.571 -13.329  0.00  0.00    +0.001 A 
ATOM     36  C   UNL     1       1.074  -0.513 -14.711  0.00  0.00    +0.002 A 
ATOM     37  C   UNL     1       0.875  -1.659 -15.450  0.00  0.00    +0.026 A 
ATOM     38  C   UNL     1       0.780  -2.888 -14.805  0.00  0.00    +0.047 A 
ATOM     39  N   UNL     1       0.588  -4.178 -15.247  0.00  0.00    -0.360 N 
ATOM     40  C   UNL     1       0.579  -5.038 -14.183  0.00  0.00    +0.087 A 
ATOM     41  H   UNL     1       0.480  -4.439 -16.175  0.00  0.00    +0.165 HD
ENDBRANCH  31  32
ENDBRANCH  30  31
ENDBRANCH   7  30
TORSDOF 10
