REMARK  Name = ZINC02111552
REMARK  9 active torsions:
REMARK  status: ('A' for Active; 'I' for Inactive)
REMARK    1  A    between atoms: C_1  and  C_2
REMARK    2  A    between atoms: C_2  and  C_3
REMARK    3  A    between atoms: C_2  and  C_4
REMARK    4  A    between atoms: C_4  and  C_6
REMARK    5  A    between atoms: C_4  and  N_10
REMARK    6  A    between atoms: C_6  and  O_8
REMARK    7  A    between atoms: O_8  and  C_9
REMARK    8  A    between atoms: N_10  and  C_11
REMARK    9  A    between atoms: C_11  and  N_13
REMARK                            x       y       z     vdW  Elec       q    Type
REMARK                         _______ _______ _______ _____ _____    ______ ____
ROOT
ATOM      1  N   UNL     1      -3.462   1.567  -2.216  0.00  0.00    -0.312 N 
ATOM      2  C   UNL     1      -4.103   2.888  -2.225  0.00  0.00    +0.112 C 
ATOM      3  C   UNL     1      -3.777   3.623  -3.517  0.00  0.00    +0.027 C 
ATOM      4  C   UNL     1      -4.049   2.740  -4.736  0.00  0.00    +0.018 C 
ATOM      5  C   UNL     1      -3.185   1.482  -4.624  0.00  0.00    +0.054 C 
ATOM      6  C   UNL     1      -3.636   0.694  -3.387  0.00  0.00    +0.116 C 
ATOM      7  C   UNL     1      -1.738   1.873  -4.434  0.00  0.00    +0.027 A 
ATOM      8  C   UNL     1      -0.791   0.998  -4.867  0.00  0.00    +0.022 A 
ATOM      9  C   UNL     1       0.568   1.262  -4.665  0.00  0.00    +0.007 A 
ATOM     10  C   UNL     1       0.926   2.401  -4.004  0.00  0.00    +0.070 A 
ATOM     11  C   UNL     1      -0.075   3.280  -3.568  0.00  0.00    +0.251 A 
ATOM     12  O   UNL     1       0.230   4.269  -2.920  0.00  0.00    -0.268 OA
ATOM     13  N   UNL     1      -1.377   3.043  -3.859  0.00  0.00    -0.312 N 
ATOM     14  C   UNL     1      -2.336   4.098  -3.554  0.00  0.00    +0.130 C 
ENDROOT
BRANCH   1  15
ATOM     15  C   UNL     1      -2.727   1.166  -1.160  0.00  0.00    +0.134 C 
ATOM     16  S   UNL     1      -1.873  -0.317  -1.226  0.00  0.00    -0.019 S 
BRANCH  15  17
ATOM     17  N   UNL     1      -2.664   1.931  -0.053  0.00  0.00    -0.313 N 
ATOM     18  H   UNL     1      -3.079   2.808  -0.044  0.00  0.00    +0.149 HD
BRANCH  17  19
ATOM     19  C   UNL     1      -1.967   1.440   1.139  0.00  0.00    +0.184 C 
BRANCH  19  21
ATOM     20  C   UNL     1      -3.395  -0.611   1.127  0.00  0.00    +0.009 C 
ATOM     21  C   UNL     1      -2.921   0.577   1.967  0.00  0.00    +0.014 C 
ATOM     22  C   UNL     1      -2.194   0.063   3.212  0.00  0.00    +0.009 C 
ENDBRANCH  19  21
BRANCH  19  23
ATOM     23  C   UNL     1      -1.501   2.609   1.967  0.00  0.00    +0.328 C 
ATOM     24  O   UNL     1      -1.727   3.738   1.599  0.00  0.00    -0.249 OA
BRANCH  23  25
ATOM     25  O   UNL     1      -0.834   2.397   3.112  0.00  0.00    -0.467 OA
ATOM     26  C   UNL     1      -0.422   3.552   3.846  0.00  0.00    +0.280 C 
ENDBRANCH  23  25
ENDBRANCH  19  23
ENDBRANCH  17  19
ENDBRANCH  15  17
ENDBRANCH   1  15
TORSDOF 6
