REMARK  Name = ZINC35032913
REMARK  12 active torsions:
REMARK  status: ('A' for Active; 'I' for Inactive)
REMARK    1  A    between atoms: C_1  and  C_2
REMARK    2  A    between atoms: C_2  and  N_3
REMARK    3  A    between atoms: C_13  and  C_14
REMARK    4  A    between atoms: C_14  and  C_16
REMARK    5  A    between atoms: C_14  and  N_17
REMARK    6  A    between atoms: N_17  and  C_18
REMARK    7  A    between atoms: N_17  and  S_23
REMARK    8  A    between atoms: C_18  and  C_19
REMARK    9  A    between atoms: C_19  and  N_20
REMARK   10  A    between atoms: N_20  and  C_21
REMARK   11  A    between atoms: N_20  and  C_22
REMARK   12  A    between atoms: S_23  and  C_26
REMARK                            x       y       z     vdW  Elec       q    Type
REMARK                         _______ _______ _______ _____ _____    ______ ____
ROOT
ATOM      1  N   UNL     1      -2.844  -0.752  -3.207  0.00  0.00    -0.168 NA
ENDROOT
BRANCH   1   2
ATOM      2  S   UNL     1      -3.092  -1.975  -4.296  0.00  0.00    +0.063 S 
ATOM      3  O   UNL     1      -4.144  -1.550  -5.152  0.00  0.00    -0.153 OA
ATOM      4  O   UNL     1      -1.812  -2.346  -4.788  0.00  0.00    -0.153 OA
BRANCH   2   5
ATOM      5  C   UNL     1      -3.705  -3.359  -3.394  0.00  0.00    +0.125 A 
ATOM      6  C   UNL     1      -4.984  -3.827  -3.631  0.00  0.00    +0.050 A 
ATOM      7  C   UNL     1      -5.466  -4.914  -2.924  0.00  0.00    +0.043 A 
ATOM      8  C   UNL     1      -4.667  -5.533  -1.978  0.00  0.00    +0.021 A 
ATOM      9  C   UNL     1      -3.389  -5.065  -1.741  0.00  0.00    +0.023 A 
ATOM     10  C   UNL     1      -2.905  -3.982  -2.453  0.00  0.00    +0.067 A 
ATOM     11 CL   UNL     1      -1.296  -3.399  -2.160  0.00  0.00    -0.082 Cl
ATOM     12 CL   UNL     1      -7.072  -5.500  -3.221  0.00  0.00    -0.083 Cl
ENDBRANCH   2   5
ENDBRANCH   1   2
BRANCH   1  13
ATOM     13  C   UNL     1      -1.547  -0.617  -2.540  0.00  0.00    +0.143 C 
ATOM     14  C   UNL     1      -1.004   0.795  -2.763  0.00  0.00    +0.034 C 
BRANCH  13  25
ATOM     15  N   UNL     1      -0.602  -1.110  -0.321  0.00  0.00    -0.295 N 
ATOM     16  C   UNL     1      -0.697  -1.333   1.011  0.00  0.00    +0.262 A 
ATOM     17  O   UNL     1       0.291  -1.549   1.688  0.00  0.00    -0.267 OA
ATOM     18  C   UNL     1      -2.041  -1.302   1.608  0.00  0.00    +0.065 A 
ATOM     19  C   UNL     1      -2.248  -1.517   2.969  0.00  0.00    +0.015 A 
ATOM     20  C   UNL     1      -3.528  -1.476   3.475  0.00  0.00    +0.001 A 
ATOM     21  C   UNL     1      -4.610  -1.224   2.642  0.00  0.00    +0.002 A 
ATOM     22  C   UNL     1      -4.427  -1.008   1.294  0.00  0.00    +0.028 A 
ATOM     23  C   UNL     1      -3.138  -1.044   0.757  0.00  0.00    +0.078 A 
ATOM     24  N   UNL     1      -2.912  -0.837  -0.564  0.00  0.00    -0.232 NA
ATOM     25  C   UNL     1      -1.713  -0.864  -1.062  0.00  0.00    +0.132 A 
BRANCH  15  27
ATOM     26  C   UNL     1       1.413   0.211  -0.739  0.00  0.00    +0.027 C 
ATOM     27  C   UNL     1       0.713  -1.130  -0.968  0.00  0.00    +0.123 C 
ENDBRANCH  15  27
ENDBRANCH  13  25
ENDBRANCH   1  13
BRANCH   1  28
ATOM     28  C   UNL     1      -3.922   0.194  -2.910  0.00  0.00    +0.092 C 
BRANCH  28  29
ATOM     29  C   UNL     1      -3.784   1.423  -3.811  0.00  0.00    -0.062 C 
BRANCH  29  30
ATOM     30  N   UNL     1      -4.839   2.391  -3.483  0.00  0.00    +0.377 N 
ATOM     31  C   UNL     1      -4.636   3.619  -4.263  0.00  0.00    -0.097 C 
ATOM     32  C   UNL     1      -6.151   1.816  -3.809  0.00  0.00    -0.097 C 
ATOM     33  H   UNL     1      -4.803   2.608  -2.498  0.00  0.00    -0.083 HD
ENDBRANCH  29  30
ENDBRANCH  28  29
ENDBRANCH   1  28
TORSDOF 8
