REMARK  Name = ZINC39722546
REMARK  9 active torsions:
REMARK  status: ('A' for Active; 'I' for Inactive)
REMARK    1  A    between atoms: C_1  and  O_2
REMARK    2  A    between atoms: O_2  and  C_3
REMARK    3  A    between atoms: C_8  and  C_9
REMARK    4  A    between atoms: C_13  and  S_19
REMARK    5  A    between atoms: N_15  and  C_16
REMARK    6  A    between atoms: C_16  and  C_17
REMARK    7  A    between atoms: S_19  and  C_20
REMARK    8  A    between atoms: C_20  and  C_21
REMARK    9  A    between atoms: C_29  and  C_33
REMARK                            x       y       z     vdW  Elec       q    Type
REMARK                         _______ _______ _______ _____ _____    ______ ____
ROOT
ATOM      1  C   UNL     1       0.143  -2.796  -0.130  0.00  0.00    +0.053 C 
ATOM      2  N   UNL     1       0.444  -2.206   1.200  0.00  0.00    -0.266 NA
ATOM      3  N   UNL     1       0.203  -3.296   2.148  0.00  0.00    -0.262 NA
ATOM      4  C   UNL     1       0.344  -4.559   1.395  0.00  0.00    +0.078 C 
ATOM      5  N   UNL     1       0.660  -4.184  -0.005  0.00  0.00    +0.413 N 
ATOM      6  H   UNL     1       1.402  -1.891   1.247  0.00  0.00    +0.139 HD
ATOM      7  H   UNL     1      -0.715  -3.221   2.560  0.00  0.00    +0.140 HD
ATOM      8  H   UNL     1       1.657  -4.205  -0.158  0.00  0.00    -0.075 HD
ENDROOT
BRANCH   1  14
ATOM      9  C   UNL     1       0.247  -0.999  -1.876  0.00  0.00    +0.123 A 
ATOM     10  C   UNL     1       0.920  -0.312  -2.876  0.00  0.00    +0.046 A 
ATOM     11  C   UNL     1       2.205  -0.682  -3.222  0.00  0.00    +0.004 A 
ATOM     12  C   UNL     1       2.821  -1.736  -2.572  0.00  0.00    +0.000 A 
ATOM     13  C   UNL     1       2.152  -2.422  -1.575  0.00  0.00    +0.007 A 
ATOM     14  C   UNL     1       0.869  -2.052  -1.221  0.00  0.00    -0.004 A 
BRANCH   9  16
ATOM     15  C   UNL     1      -1.595   0.457  -2.249  0.00  0.00    +0.277 C 
ATOM     16  O   UNL     1      -1.018  -0.636  -1.534  0.00  0.00    -0.495 OA
ENDBRANCH   9  16
ENDBRANCH   1  14
BRANCH   5  17
ATOM     17  C   UNL     1      -0.026  -5.077  -0.949  0.00  0.00    -0.045 C 
BRANCH  17  18
ATOM     18  C   UNL     1       0.609  -6.442  -0.901  0.00  0.00    -0.053 C 
ATOM     19  C   UNL     1      -0.126  -7.499  -0.661  0.00  0.00    +0.002 C 
ENDBRANCH  17  18
ENDBRANCH   5  17
BRANCH   4  20
ATOM     20  S   UNL     1       1.689  -5.554   2.095  0.00  0.00    -0.152 S 
BRANCH  20  21
ATOM     21  C   UNL     1       3.145  -4.479   1.964  0.00  0.00    +0.143 C 
BRANCH  21  22
ATOM     22  C   UNL     1       4.349  -5.195   2.519  0.00  0.00    +0.120 A 
ATOM     23  N   UNL     1       5.543  -4.546   2.514  0.00  0.00    -0.310 N 
ATOM     24  H   UNL     1       5.599  -3.646   2.158  0.00  0.00    +0.170 HD
ATOM     25  C   UNL     1       6.654  -5.145   3.001  0.00  0.00    +0.259 A 
ATOM     26  O   UNL     1       7.730  -4.576   3.003  0.00  0.00    -0.267 OA
ATOM     27  C   UNL     1       6.512  -6.513   3.530  0.00  0.00    +0.065 A 
ATOM     28  C   UNL     1       7.596  -7.214   4.053  0.00  0.00    +0.016 A 
ATOM     29  C   UNL     1       7.419  -8.481   4.534  0.00  0.00    +0.016 A 
ATOM     30  C   UNL     1       6.155  -9.083   4.505  0.00  0.00    +0.065 A 
ATOM     31  C   UNL     1       5.060  -8.400   3.986  0.00  0.00    +0.043 A 
ATOM     32  C   UNL     1       5.230  -7.105   3.493  0.00  0.00    +0.079 A 
ATOM     33  N   UNL     1       4.192  -6.397   2.982  0.00  0.00    -0.233 NA
BRANCH  30  34
ATOM     34  C   UNL     1       5.983 -10.455   5.029  0.00  0.00    +0.387 C 
ATOM     35  O   UNL     1       6.942 -11.059   5.486  0.00  0.00    -0.241 OA
ATOM     36  O   UNL     1       4.881 -10.985   5.006  0.00  0.00    -0.241 OA
ENDBRANCH  30  34
ENDBRANCH  21  22
ENDBRANCH  20  21
ENDBRANCH   4  20
TORSDOF 8
