REMARK  Name = ZINC58570885
REMARK  8 active torsions:
REMARK  status: ('A' for Active; 'I' for Inactive)
REMARK    1  A    between atoms: C_1  and  C_2
REMARK    2  A    between atoms: C_4  and  C_25
REMARK    3  A    between atoms: C_5  and  C_9
REMARK    4  A    between atoms: C_7  and  C_8
REMARK    5  A    between atoms: C_10  and  C_11
REMARK    6  A    between atoms: N_13  and  C_14
REMARK    7  A    between atoms: C_14  and  C_15
REMARK    8  A    between atoms: C_19  and  N_21
REMARK                            x       y       z     vdW  Elec       q    Type
REMARK                         _______ _______ _______ _____ _____    ______ ____
ROOT
ATOM      1  C   UNL     1       0.206  -5.912   1.560  0.00  0.00    +0.237 C 
ATOM      2  O   UNL     1       0.144  -6.374   0.436  0.00  0.00    -0.271 OA
ATOM      3  N   UNL     1       0.203  -6.734   2.628  0.00  0.00    -0.308 N 
ATOM      4  H   UNL     1       0.252  -6.366   3.524  0.00  0.00    +0.149 HD
ENDROOT
BRANCH   1   6
ATOM      5  C   UNL     1       0.286  -3.640   0.685  0.00  0.00    +0.013 C 
ATOM      6  C   UNL     1       0.284  -4.462   1.753  0.00  0.00    +0.068 C 
BRANCH   5  11
ATOM      7  C   UNL     1       0.591   2.051   1.440  0.00  0.00    +0.044 C 
ATOM      8  C   UNL     1       0.511   0.560   1.242  0.00  0.00    -0.047 A 
ATOM      9  C   UNL     1       0.441   0.038  -0.038  0.00  0.00    +0.007 A 
ATOM     10  C   UNL     1       0.368  -1.326  -0.228  0.00  0.00    -0.043 A 
ATOM     11  C   UNL     1       0.365  -2.183   0.878  0.00  0.00    -0.022 A 
ATOM     12  C   UNL     1       0.436  -1.648   2.168  0.00  0.00    +0.011 A 
ATOM     13  C   UNL     1       0.514  -0.282   2.341  0.00  0.00    -0.047 A 
ATOM     14  C   UNL     1       0.597   0.297   3.730  0.00  0.00    +0.044 C 
ATOM     15  C   UNL     1       0.291  -1.892  -1.622  0.00  0.00    +0.044 C 
ENDBRANCH   5  11
ENDBRANCH   1   6
BRANCH   3  16
ATOM     16  C   UNL     1       0.125  -8.184   2.436  0.00  0.00    +0.140 C 
BRANCH  16  17
ATOM     17  C   UNL     1       0.138  -8.870   3.777  0.00  0.00    -0.029 A 
ATOM     18  C   UNL     1       1.341  -9.239   4.353  0.00  0.00    +0.005 A 
ATOM     19  C   UNL     1       1.357  -9.868   5.584  0.00  0.00    +0.002 A 
ATOM     20  C   UNL     1       0.172 -10.132   6.242  0.00  0.00    +0.023 A 
ATOM     21  C   UNL     1      -1.037  -9.764   5.667  0.00  0.00    +0.035 A 
ATOM     22  C   UNL     1      -1.050  -9.126   4.433  0.00  0.00    +0.028 A 
BRANCH  21  23
ATOM     23  N   UNL     1      -2.239 -10.029   6.332  0.00  0.00    -0.270 N 
ATOM     24  C   UNL     1      -3.350 -10.317   5.626  0.00  0.00    +0.301 C 
ATOM     25  O   UNL     1      -3.287 -10.442   4.418  0.00  0.00    -0.253 OA
ATOM     26  N   UNL     1      -4.531 -10.468   6.258  0.00  0.00    -0.313 N 
ATOM     27  H   UNL     1      -2.273 -10.005   7.301  0.00  0.00    +0.156 HD
ATOM     28  H   UNL     1      -4.581 -10.368   7.222  0.00  0.00    +0.146 HD
ATOM     29  H   UNL     1      -5.330 -10.675   5.750  0.00  0.00    +0.146 HD
ENDBRANCH  21  23
ENDBRANCH  16  17
ENDBRANCH   3  16
TORSDOF 5
