REMARK  Name = ZINC12480275
REMARK  11 active torsions:
REMARK  status: ('A' for Active; 'I' for Inactive)
REMARK    1  A    between atoms: C_1  and  C_2
REMARK    2  A    between atoms: C_2  and  C_3
REMARK    3  A    between atoms: C_6  and  N_9
REMARK    4  A    between atoms: N_9  and  C_10
REMARK    5  A    between atoms: C_10  and  C_12
REMARK    6  A    between atoms: C_10  and  C_18
REMARK    7  A    between atoms: N_16  and  C_17
REMARK    8  A    between atoms: N_20  and  C_21
REMARK    9  A    between atoms: C_21  and  C_22
REMARK   10  A    between atoms: C_28  and  C_30
REMARK   11  A    between atoms: C_30  and  N_31
REMARK                            x       y       z     vdW  Elec       q    Type
REMARK                         _______ _______ _______ _____ _____    ______ ____
ROOT
ATOM      1  N   UNL     1      -4.717   2.584   2.912  0.00  0.00    -0.252 N 
ATOM      2  C   UNL     1      -4.761   2.827   4.237  0.00  0.00    +0.242 C 
ATOM      3  O   UNL     1      -4.470   1.951   5.024  0.00  0.00    -0.273 OA
ENDROOT
BRANCH   1   7
ATOM      4  C   UNL     1      -4.931   5.745   0.207  0.00  0.00    -0.048 A 
ATOM      5  C   UNL     1      -4.721   6.000   1.550  0.00  0.00    +0.005 A 
ATOM      6  C   UNL     1      -4.650   4.954   2.450  0.00  0.00    +0.024 A 
ATOM      7  C   UNL     1      -4.790   3.646   2.004  0.00  0.00    +0.038 A 
ATOM      8  C   UNL     1      -4.996   3.394   0.654  0.00  0.00    +0.024 A 
ATOM      9  C   UNL     1      -5.071   4.444  -0.239  0.00  0.00    +0.005 A 
BRANCH   4  11
ATOM     10  C   UNL     1      -3.608   7.194  -1.310  0.00  0.00    +0.009 C 
ATOM     11  C   UNL     1      -5.008   6.889  -0.771  0.00  0.00    +0.032 C 
ENDBRANCH   4  11
ENDBRANCH   1   7
BRANCH   1  12
ATOM     12  C   UNL     1      -4.594   1.209   2.423  0.00  0.00    +0.213 C 
BRANCH  12  13
ATOM     13  C   UNL     1      -5.545   0.997   1.273  0.00  0.00    +0.049 A 
ATOM     14  C   UNL     1      -5.292   0.280   0.160  0.00  0.00    +0.025 A 
ATOM     15  C   UNL     1      -6.443   0.338  -0.650  0.00  0.00    +0.019 A 
ATOM     16  C   UNL     1      -7.353   1.096  -0.004  0.00  0.00    +0.085 A 
ATOM     17  N   UNL     1      -6.807   1.503   1.177  0.00  0.00    -0.352 N 
ATOM     18  C   UNL     1      -7.468   2.346   2.177  0.00  0.00    +0.148 C 
ENDBRANCH  12  13
BRANCH  12  19
ATOM     19  C   UNL     1      -3.181   0.966   1.958  0.00  0.00    +0.240 C 
ATOM     20  O   UNL     1      -2.364   1.861   2.009  0.00  0.00    -0.273 OA
ATOM     21  N   UNL     1      -2.826  -0.245   1.486  0.00  0.00    -0.311 N 
ATOM     22  H   UNL     1      -3.457  -0.982   1.516  0.00  0.00    +0.149 HD
BRANCH  21  23
ATOM     23  C   UNL     1      -1.488  -0.450   0.927  0.00  0.00    +0.135 C 
BRANCH  23  24
ATOM     24  C   UNL     1      -1.343  -1.902   0.467  0.00  0.00    +0.135 C 
ATOM     25  C   UNL     1       0.090  -2.164  -0.047  0.00  0.00    +0.035 C 
ATOM     26  C   UNL     1      -0.109  -3.124  -1.241  0.00  0.00    +0.031 C 
ATOM     27  C   UNL     1      -1.639  -3.329  -1.307  0.00  0.00    +0.160 C 
ATOM     28  O   UNL     1      -2.196  -2.158  -0.670  0.00  0.00    -0.375 OA
ENDBRANCH  23  24
ENDBRANCH  21  23
ENDBRANCH  12  19
ENDBRANCH   1  12
BRANCH   2  29
ATOM     29  C   UNL     1      -5.172   4.186   4.741  0.00  0.00    +0.242 C 
BRANCH  29  30
ATOM     30  N   UNL     1      -5.768   4.054   6.073  0.00  0.00    -0.235 N 
ATOM     31  C   UNL     1      -7.097   3.855   6.363  0.00  0.00    +0.090 A 
ATOM     32  C   UNL     1      -8.245   3.720   5.590  0.00  0.00    +0.029 A 
ATOM     33  C   UNL     1      -9.454   3.526   6.198  0.00  0.00    +0.002 A 
ATOM     34  C   UNL     1      -9.547   3.463   7.582  0.00  0.00    +0.002 A 
ATOM     35  C   UNL     1      -8.435   3.586   8.363  0.00  0.00    +0.032 A 
ATOM     36  C   UNL     1      -7.184   3.789   7.765  0.00  0.00    +0.113 A 
ATOM     37  N   UNL     1      -5.941   3.956   8.260  0.00  0.00    -0.129 NA
ATOM     38  N   UNL     1      -5.096   4.112   7.303  0.00  0.00    -0.064 NA
ENDBRANCH  29  30
ENDBRANCH   2  29
TORSDOF 9
