REMARK  Name = ZINC26531136
REMARK  6 active torsions:
REMARK  status: ('A' for Active; 'I' for Inactive)
REMARK    1  A    between atoms: C_3  and  N_35
REMARK    2  A    between atoms: C_5  and  C_7
REMARK    3  A    between atoms: C_13  and  C_17
REMARK    4  A    between atoms: C_19  and  N_23
REMARK    5  A    between atoms: C_27  and  C_28
REMARK    6  A    between atoms: C_30  and  N_34
REMARK                            x       y       z     vdW  Elec       q    Type
REMARK                         _______ _______ _______ _____ _____    ______ ____
ROOT
ATOM      1  C   UNL     1       1.079  -2.258  -0.463  0.00  0.00    +0.013 C 
ATOM      2  C   UNL     1      -0.011  -2.926  -0.053  0.00  0.00    -0.021 C 
ATOM      3  C   UNL     1      -0.072  -4.362   0.284  0.00  0.00    +0.071 A 
ATOM      4  N   UNL     1       0.893  -5.282   0.260  0.00  0.00    -0.247 NA
ATOM      5  C   UNL     1       0.680  -6.554   0.597  0.00  0.00    +0.071 A 
ATOM      6  C   UNL     1      -0.589  -6.968   0.992  0.00  0.00    -0.013 A 
ATOM      7  C   UNL     1      -1.631  -6.038   1.031  0.00  0.00    -0.007 A 
ATOM      8  C   UNL     1      -1.362  -4.715   0.671  0.00  0.00    -0.013 A 
ATOM      9  C   UNL     1      -2.264  -3.507   0.614  0.00  0.00    +0.042 C 
ATOM     10  C   UNL     1      -1.387  -2.337   0.148  0.00  0.00    +0.042 C 
ATOM     11  C   UNL     1      -0.571  -8.440   1.318  0.00  0.00    +0.042 C 
ATOM     12  C   UNL     1       0.870  -8.915   1.082  0.00  0.00    +0.042 C 
ATOM     13  C   UNL     1       1.624  -7.689   0.627  0.00  0.00    -0.021 C 
ATOM     14  C   UNL     1       2.926  -7.640   0.305  0.00  0.00    +0.013 C 
ENDROOT
BRANCH   1  19
ATOM     15  C   UNL     1       2.140   1.290  -1.078  0.00  0.00    +0.002 A 
ATOM     16  C   UNL     1       0.934   1.958  -0.969  0.00  0.00    +0.023 A 
ATOM     17  C   UNL     1      -0.234   1.255  -0.693  0.00  0.00    +0.025 A 
ATOM     18  C   UNL     1      -0.192  -0.121  -0.527  0.00  0.00    +0.030 A 
ATOM     19  C   UNL     1       1.026  -0.796  -0.638  0.00  0.00    -0.023 A 
ATOM     20  C   UNL     1       2.193  -0.079  -0.915  0.00  0.00    +0.008 A 
BRANCH  17  21
ATOM     21  N   UNL     1      -1.449   1.935  -0.582  0.00  0.00    -0.358 N 
ATOM     22  H   UNL     1      -1.478   2.897  -0.698  0.00  0.00    +0.142 HD
ATOM     23  H   UNL     1      -2.263   1.444  -0.390  0.00  0.00    +0.142 HD
ENDBRANCH  17  21
ENDBRANCH   1  19
BRANCH   7  24
ATOM     24  C   UNL     1      -2.995  -6.447   1.448  0.00  0.00    -0.015 A 
ATOM     25  C   UNL     1      -4.047  -6.401   0.536  0.00  0.00    +0.031 A 
ATOM     26  C   UNL     1      -5.319  -6.785   0.932  0.00  0.00    +0.025 A 
ATOM     27  C   UNL     1      -5.541  -7.213   2.235  0.00  0.00    +0.023 A 
ATOM     28  C   UNL     1      -4.497  -7.258   3.139  0.00  0.00    +0.002 A 
ATOM     29  C   UNL     1      -3.226  -6.883   2.751  0.00  0.00    +0.008 A 
BRANCH  26  30
ATOM     30  N   UNL     1      -6.377  -6.740   0.021  0.00  0.00    -0.358 N 
ATOM     31  H   UNL     1      -6.222  -6.440  -0.888  0.00  0.00    +0.142 HD
ATOM     32  H   UNL     1      -7.267  -7.008   0.298  0.00  0.00    +0.142 HD
ENDBRANCH  26  30
ENDBRANCH   7  24
BRANCH  14  33
ATOM     33  C   UNL     1       3.719  -8.882   0.246  0.00  0.00    -0.023 A 
ATOM     34  C   UNL     1       3.148 -10.054  -0.254  0.00  0.00    +0.030 A 
ATOM     35  C   UNL     1       3.900 -11.217  -0.306  0.00  0.00    +0.025 A 
ATOM     36  C   UNL     1       5.217 -11.214   0.139  0.00  0.00    +0.023 A 
ATOM     37  C   UNL     1       5.782 -10.054   0.635  0.00  0.00    +0.002 A 
ATOM     38  C   UNL     1       5.045  -8.889   0.686  0.00  0.00    +0.008 A 
BRANCH  35  39
ATOM     39  N   UNL     1       3.334 -12.393  -0.805  0.00  0.00    -0.358 N 
ATOM     40  H   UNL     1       2.416 -12.395  -1.116  0.00  0.00    +0.142 HD
ATOM     41  H   UNL     1       3.861 -13.207  -0.842  0.00  0.00    +0.142 HD
ENDBRANCH  35  39
ENDBRANCH  14  33
TORSDOF 6
