REMARK  Name = ZINC63886482
REMARK  13 active torsions:
REMARK  status: ('A' for Active; 'I' for Inactive)
REMARK    1  A    between atoms: C_1  and  O_2
REMARK    2  A    between atoms: O_2  and  C_3
REMARK    3  A    between atoms: C_5  and  C_13
REMARK    4  A    between atoms: C_7  and  O_11
REMARK    5  A    between atoms: C_8  and  O_9
REMARK    6  A    between atoms: O_9  and  C_10
REMARK    7  A    between atoms: O_11  and  C_12
REMARK    8  A    between atoms: N_15  and  C_16
REMARK    9  A    between atoms: C_16  and  C_17
REMARK   10  A    between atoms: N_19  and  C_20
REMARK   11  A    between atoms: C_20  and  C_21
REMARK   12  A    between atoms: C_21  and  C_23
REMARK   13  A    between atoms: C_21  and  C_30
REMARK                            x       y       z     vdW  Elec       q    Type
REMARK                         _______ _______ _______ _____ _____    ______ ____
ROOT
ATOM      1  C   UNL     1       4.191  -0.341  -7.374  0.00  0.00    +0.230 C 
ATOM      2  O   UNL     1       4.124  -1.545  -7.243  0.00  0.00    -0.274 OA
ATOM      3  N   UNL     1       4.801   0.187  -8.454  0.00  0.00    -0.313 N 
ATOM      4  H   UNL     1       4.854   1.150  -8.558  0.00  0.00    +0.149 HD
ENDROOT
BRANCH   1   5
ATOM      5  C   UNL     1       3.592   0.565  -6.329  0.00  0.00    +0.200 C 
BRANCH   5   8
ATOM      6  C   UNL     1       2.395   0.355  -4.217  0.00  0.00    +0.245 C 
ATOM      7  O   UNL     1       2.352   1.568  -4.154  0.00  0.00    -0.270 OA
ATOM      8  N   UNL     1       2.994  -0.245  -5.265  0.00  0.00    -0.303 N 
ATOM      9  H   UNL     1       3.028  -1.213  -5.315  0.00  0.00    +0.150 HD
BRANCH   6  12
ATOM     10  C   UNL     1       0.606  -0.608  -1.056  0.00  0.00    +0.166 A 
ATOM     11  C   UNL     1       1.171   0.159  -2.059  0.00  0.00    +0.062 A 
ATOM     12  C   UNL     1       1.792  -0.461  -3.145  0.00  0.00    +0.044 A 
ATOM     13  C   UNL     1       1.840  -1.856  -3.216  0.00  0.00    +0.062 A 
ATOM     14  C   UNL     1       1.274  -2.618  -2.212  0.00  0.00    +0.166 A 
ATOM     15  C   UNL     1       0.661  -1.997  -1.127  0.00  0.00    +0.204 A 
BRANCH  10  17
ATOM     16  C   UNL     1      -0.017   1.425   0.010  0.00  0.00    +0.277 C 
ATOM     17  O   UNL     1       0.002  -0.004   0.002  0.00  0.00    -0.491 OA
ENDBRANCH  10  17
BRANCH  15  18
ATOM     18  O   UNL     1       0.109  -2.748  -0.138  0.00  0.00    -0.488 OA
ATOM     19  C   UNL     1      -1.262  -3.119  -0.292  0.00  0.00    +0.277 C 
ENDBRANCH  15  18
BRANCH  14  20
ATOM     20  O   UNL     1       1.321  -3.975  -2.280  0.00  0.00    -0.491 OA
ATOM     21  C   UNL     1       1.970  -4.545  -3.419  0.00  0.00    +0.277 C 
ENDBRANCH  14  20
ENDBRANCH   6  12
ENDBRANCH   5   8
ENDBRANCH   1   5
BRANCH   3  22
ATOM     22  C   UNL     1       5.383  -0.694  -9.469  0.00  0.00    +0.116 C 
BRANCH  22  23
ATOM     23  C   UNL     1       6.008   0.152 -10.580  0.00  0.00    +0.066 C 
BRANCH  23  24
ATOM     24  C   UNL     1       6.713  -0.749 -11.561  0.00  0.00    -0.033 C 
ATOM     25  C   UNL     1       8.028  -0.734 -11.879  0.00  0.00    -0.000 A 
ATOM     26  C   UNL     1       9.152   0.094 -11.425  0.00  0.00    +0.010 A 
ATOM     27  C   UNL     1      10.383  -0.133 -11.937  0.00  0.00    +0.001 A 
ATOM     28  C   UNL     1      10.612  -1.136 -12.889  0.00  0.00    +0.002 A 
ATOM     29  C   UNL     1       9.630  -1.936 -13.355  0.00  0.00    +0.026 A 
ATOM     30  C   UNL     1       8.296  -1.787 -12.885  0.00  0.00    +0.043 A 
ATOM     31  N   UNL     1       7.190  -2.427 -13.178  0.00  0.00    -0.380 N 
ATOM     32  C   UNL     1       6.096  -1.856 -12.385  0.00  0.00    +0.145 C 
ATOM     33  H   UNL     1       7.110  -3.159 -13.809  0.00  0.00    +0.160 HD
ENDBRANCH  23  24
BRANCH  23  34
ATOM     34  C   UNL     1       4.928   0.923 -11.293  0.00  0.00    -0.020 A 
ATOM     35  C   UNL     1       3.897   0.249 -11.921  0.00  0.00    +0.006 A 
ATOM     36  C   UNL     1       2.905   0.956 -12.575  0.00  0.00    +0.000 A 
ATOM     37  C   UNL     1       2.944   2.338 -12.602  0.00  0.00    +0.001 A 
ATOM     38  C   UNL     1       3.974   3.013 -11.975  0.00  0.00    +0.020 A 
ATOM     39  C   UNL     1       4.964   2.306 -11.315  0.00  0.00    +0.045 A 
ATOM     40 CL   UNL     1       6.255   3.153 -10.522  0.00  0.00    -0.083 Cl
ENDBRANCH  23  34
ENDBRANCH  22  23
ENDBRANCH   3  22
TORSDOF 10
