REMARK  Name = ZINC27521341
REMARK  11 active torsions:
REMARK  status: ('A' for Active; 'I' for Inactive)
REMARK    1  A    between atoms: C_1  and  O_2
REMARK    2  A    between atoms: O_2  and  C_3
REMARK    3  A    between atoms: C_8  and  C_9
REMARK    4  A    between atoms: C_10  and  C_11
REMARK    5  A    between atoms: C_10  and  N_21
REMARK    6  A    between atoms: N_13  and  C_14
REMARK    7  A    between atoms: C_22  and  C_24
REMARK    8  A    between atoms: C_27  and  O_32
REMARK    9  A    between atoms: C_28  and  O_30
REMARK   10  A    between atoms: O_30  and  C_31
REMARK   11  A    between atoms: O_32  and  C_33
REMARK                            x       y       z     vdW  Elec       q    Type
REMARK                         _______ _______ _______ _____ _____    ______ ____
ROOT
ATOM      1  C   UNL     1       2.375   4.027  -0.169  0.00  0.00    +0.040 C 
ATOM      2  C   UNL     1       3.453   3.241   0.066  0.00  0.00    +0.097 C 
ENDROOT
BRANCH   1   8
ATOM      3  C   UNL     1      -0.102   4.100   0.080  0.00  0.00    +0.127 A 
ATOM      4  C   UNL     1      -1.347   3.518  -0.094  0.00  0.00    +0.046 A 
ATOM      5  C   UNL     1      -1.455   2.277  -0.690  0.00  0.00    +0.004 A 
ATOM      6  C   UNL     1      -0.322   1.599  -1.110  0.00  0.00    +0.001 A 
ATOM      7  C   UNL     1       0.925   2.162  -0.946  0.00  0.00    +0.011 A 
ATOM      8  C   UNL     1       1.049   3.421  -0.348  0.00  0.00    +0.019 A 
BRANCH   3  10
ATOM      9  C   UNL     1      -1.210   5.954   1.072  0.00  0.00    +0.277 C 
ATOM     10  O   UNL     1       0.004   5.322   0.662  0.00  0.00    -0.495 OA
ENDBRANCH   3  10
ENDBRANCH   1   8
BRANCH   2  11
ATOM     11  C   UNL     1       4.769   3.849   0.295  0.00  0.00    +0.262 C 
ATOM     12  O   UNL     1       5.738   3.143   0.506  0.00  0.00    -0.268 OA
ATOM     13  N   UNL     1       4.905   5.190   0.273  0.00  0.00    -0.279 N 
ATOM     14  H   UNL     1       4.049   5.825   0.001  0.00  0.00    +0.155 HD
BRANCH  13  15
ATOM     15  C   UNL     1       6.134   5.774   0.595  0.00  0.00    +0.052 A 
ATOM     16  C   UNL     1       7.047   5.085   1.383  0.00  0.00    +0.025 A 
ATOM     17  C   UNL     1       8.262   5.662   1.696  0.00  0.00    +0.002 A 
ATOM     18  C   UNL     1       8.567   6.930   1.233  0.00  0.00    +0.002 A 
ATOM     19  C   UNL     1       7.659   7.621   0.453  0.00  0.00    +0.022 A 
ATOM     20  C   UNL     1       6.443   7.048   0.132  0.00  0.00    +0.062 A 
ATOM     21 CL   UNL     1       5.303   7.917  -0.847  0.00  0.00    -0.082 Cl
ENDBRANCH  13  15
ENDBRANCH   2  11
BRANCH   2  22
ATOM     22  N   UNL     1       3.312   1.849   0.089  0.00  0.00    -0.277 N 
ATOM     23  C   UNL     1       4.031   1.085  -0.757  0.00  0.00    +0.248 C 
ATOM     24  O   UNL     1       4.870   1.595  -1.474  0.00  0.00    -0.270 OA
ATOM     25  H   UNL     1       2.615   1.379   0.798  0.00  0.00    +0.155 HD
BRANCH  23  26
ATOM     26  C   UNL     1       3.800  -0.372  -0.813  0.00  0.00    +0.041 A 
ATOM     27  C   UNL     1       2.767  -0.946  -0.067  0.00  0.00    +0.017 A 
ATOM     28  C   UNL     1       2.549  -2.305  -0.125  0.00  0.00    +0.050 A 
ATOM     29  C   UNL     1       3.360  -3.109  -0.915  0.00  0.00    +0.162 A 
ATOM     30  C   UNL     1       4.395  -2.543  -1.657  0.00  0.00    +0.162 A 
ATOM     31  C   UNL     1       4.616  -1.180  -1.608  0.00  0.00    +0.062 A 
BRANCH  30  32
ATOM     32  O   UNL     1       5.188  -3.333  -2.430  0.00  0.00    -0.491 OA
ATOM     33  C   UNL     1       6.229  -2.686  -3.165  0.00  0.00    +0.277 C 
ENDBRANCH  30  32
BRANCH  29  34
ATOM     34  O   UNL     1       3.144  -4.449  -0.964  0.00  0.00    -0.491 OA
ATOM     35  C   UNL     1       2.066  -4.962  -0.179  0.00  0.00    +0.277 C 
ENDBRANCH  29  34
ENDBRANCH  23  26
ENDBRANCH   2  22
TORSDOF 8
