REMARK  Name = ZINC26223417
REMARK  6 active torsions:
REMARK  status: ('A' for Active; 'I' for Inactive)
REMARK    1  A    between atoms: C_4  and  C_7
REMARK    2  A    between atoms: C_7  and  C_9
REMARK    3  A    between atoms: C_7  and  N_12
REMARK    4  A    between atoms: N_12  and  N_13
REMARK    5  A    between atoms: C_14  and  C_16
REMARK    6  A    between atoms: C_16  and  C_17
REMARK                            x       y       z     vdW  Elec       q    Type
REMARK                         _______ _______ _______ _____ _____    ______ ____
ROOT
ATOM      1  N   UNL     1      -0.711  -1.700  -1.439  0.00  0.00    -0.250 N 
ATOM      2  C   UNL     1      -1.558  -2.323  -2.283  0.00  0.00    +0.227 C 
ATOM      3  O   UNL     1      -2.630  -1.821  -2.546  0.00  0.00    -0.275 OA
ATOM      4  H   UNL     1       0.261  -2.155  -1.200  0.00  0.00    +0.169 HD
ENDROOT
BRANCH   1   5
ATOM      5  N   UNL     1      -1.061  -0.503  -0.881  0.00  0.00    -0.224 NA
ATOM      6  H   UNL     1      -1.288   0.175  -1.592  0.00  0.00    +0.145 HD
BRANCH   5   7
ATOM      7  C   UNL     1       0.002  -0.004   0.002  0.00  0.00    +0.188 C 
BRANCH   7  11
ATOM      8  C   UNL     1      -0.056   4.267   0.025  0.00  0.00    +0.000 A 
ATOM      9  C   UNL     1       1.151   3.592   0.010  0.00  0.00    +0.000 A 
ATOM     10  C   UNL     1       1.169   2.210   0.003  0.00  0.00    +0.006 A 
ATOM     11  C   UNL     1      -0.018   1.503   0.010  0.00  0.00    -0.020 A 
ATOM     12  C   UNL     1      -1.225   2.178   0.020  0.00  0.00    +0.006 A 
ATOM     13  C   UNL     1      -1.244   3.560   0.032  0.00  0.00    +0.000 A 
ENDBRANCH   7  11
BRANCH   7  14
ATOM     14  C   UNL     1      -0.224  -0.517   1.401  0.00  0.00    +0.234 C 
ATOM     15  O   UNL     1      -1.177  -1.229   1.639  0.00  0.00    -0.274 OA
ATOM     16  N   UNL     1       0.632  -0.185   2.387  0.00  0.00    -0.328 N 
ATOM     17  H   UNL     1       0.467  -0.560   3.408  0.00  0.00    +0.145 HD
ATOM     18  H   UNL     1       1.496   0.460   2.171  0.00  0.00    +0.145 HD
ENDBRANCH   7  14
ENDBRANCH   5   7
ENDBRANCH   1   5
BRANCH   2  19
ATOM     19  C   UNL     1      -1.173  -3.643  -2.899  0.00  0.00    +0.104 C 
BRANCH  19  20
ATOM     20  C   UNL     1      -2.301  -4.130  -3.809  0.00  0.00    -0.020 C 
ATOM     21  C   UNL     1      -3.580  -4.304  -2.988  0.00  0.00    +0.011 C 
ATOM     22  C   UNL     1      -4.709  -4.791  -3.898  0.00  0.00    -0.010 C 
ATOM     23  C   UNL     1      -4.318  -6.132  -4.524  0.00  0.00    +0.007 C 
ATOM     24  C   UNL     1      -3.039  -5.957  -5.345  0.00  0.00    -0.010 C 
ATOM     25  C   UNL     1      -1.910  -5.470  -4.435  0.00  0.00    +0.011 C 
ATOM     26  C   UNL     1      -3.280  -4.929  -6.452  0.00  0.00    +0.007 C 
ATOM     27  C   UNL     1      -3.672  -3.589  -5.827  0.00  0.00    -0.010 C 
ATOM     28  C   UNL     1      -4.951  -3.763  -5.005  0.00  0.00    +0.007 C 
ATOM     29  C   UNL     1      -2.543  -3.102  -4.917  0.00  0.00    +0.011 C 
ENDBRANCH  19  20
ENDBRANCH   2  19
TORSDOF 6
