REMARK  Name = ZINC03301734
REMARK  12 active torsions:
REMARK  status: ('A' for Active; 'I' for Inactive)
REMARK    1  A    between atoms: C_1  and  C_2
REMARK    2  A    between atoms: C_5  and  S_8
REMARK    3  A    between atoms: S_8  and  N_11
REMARK    4  A    between atoms: N_11  and  C_12
REMARK    5  A    between atoms: N_11  and  C_13
REMARK    6  A    between atoms: C_13  and  C_14
REMARK    7  A    between atoms: C_14  and  O_16
REMARK    8  A    between atoms: O_16  and  C_17
REMARK    9  A    between atoms: C_17  and  C_18
REMARK   10  A    between atoms: N_20  and  C_21
REMARK   11  A    between atoms: C_24  and  C_27
REMARK   12  A    between atoms: C_32  and  C_36
REMARK                            x       y       z     vdW  Elec       q    Type
REMARK                         _______ _______ _______ _____ _____    ______ ____
ROOT
ATOM      1  C   UNL     1      -0.027   1.206   0.178  0.00  0.00    +0.255 C 
ATOM      2  O   UNL     1      -0.029   0.002   0.329  0.00  0.00    -0.272 OA
ATOM      3  N   UNL     1      -1.191   1.867   0.018  0.00  0.00    -0.283 N 
ATOM      4  H   UNL     1      -1.196   2.836  -0.026  0.00  0.00    +0.155 HD
ENDROOT
BRANCH   3   5
ATOM      5  C   UNL     1      -2.389   1.156  -0.086  0.00  0.00    +0.034 A 
ATOM      6  C   UNL     1      -2.406  -0.088  -0.705  0.00  0.00    +0.024 A 
ATOM      7  C   UNL     1      -3.585  -0.794  -0.804  0.00  0.00    +0.012 A 
ATOM      8  C   UNL     1      -4.766  -0.252  -0.292  0.00  0.00    +0.007 A 
ATOM      9  C   UNL     1      -4.747   1.001   0.324  0.00  0.00    +0.012 A 
ATOM     10  C   UNL     1      -3.563   1.698   0.425  0.00  0.00    +0.024 A 
BRANCH   8  11
ATOM     11  C   UNL     1      -6.034  -1.003  -0.402  0.00  0.00    +0.109 A 
ATOM     12  N   UNL     1      -7.233  -0.664   0.019  0.00  0.00    -0.239 NA
ATOM     13  C   UNL     1      -8.312  -1.453  -0.155  0.00  0.00    +0.079 A 
ATOM     14  C   UNL     1      -9.648  -1.208   0.243  0.00  0.00    +0.029 A 
ATOM     15  C   UNL     1     -10.627  -2.118  -0.005  0.00  0.00    +0.005 A 
ATOM     16  C   UNL     1     -10.361  -3.316  -0.653  0.00  0.00    -0.049 A 
ATOM     17  C   UNL     1      -9.069  -3.595  -1.059  0.00  0.00    +0.020 A 
ATOM     18  C   UNL     1      -8.073  -2.683  -0.813  0.00  0.00    +0.040 A 
ATOM     19  S   UNL     1      -6.328  -2.607  -1.135  0.00  0.00    -0.067 S 
ATOM     20  C   UNL     1     -11.470  -4.304  -0.912  0.00  0.00    +0.044 C 
ENDBRANCH   8  11
ENDBRANCH   3   5
BRANCH   1  21
ATOM     21  C   UNL     1       1.277   1.961   0.165  0.00  0.00    +0.328 C 
BRANCH  21  22
ATOM     22  O   UNL     1       2.377   1.031   0.349  0.00  0.00    -0.454 OA
BRANCH  22  23
ATOM     23  C   UNL     1       3.616   1.547   0.362  0.00  0.00    +0.323 C 
ATOM     24  O   UNL     1       3.776   2.737   0.223  0.00  0.00    -0.249 OA
BRANCH  23  25
ATOM     25  C   UNL     1       4.807   0.643   0.549  0.00  0.00    +0.229 C 
BRANCH  25  26
ATOM     26  N   UNL     1       6.035   1.442   0.525  0.00  0.00    -0.169 NA
ATOM     27  C   UNL     1       6.511   2.090   1.750  0.00  0.00    +0.132 C 
BRANCH  26  28
ATOM     28  S   UNL     1       6.884   1.613  -0.886  0.00  0.00    +0.061 S 
ATOM     29  O   UNL     1       8.223   1.916  -0.520  0.00  0.00    -0.153 OA
ATOM     30  O   UNL     1       6.551   0.496  -1.699  0.00  0.00    -0.153 OA
BRANCH  28  35
ATOM     31  C   UNL     1       4.718   6.495  -3.693  0.00  0.00    +0.044 C 
ATOM     32  C   UNL     1       5.259   5.276  -2.993  0.00  0.00    -0.050 A 
ATOM     33  C   UNL     1       6.311   5.399  -2.104  0.00  0.00    +0.005 A 
ATOM     34  C   UNL     1       6.807   4.281  -1.461  0.00  0.00    +0.029 A 
ATOM     35  C   UNL     1       6.251   3.039  -1.706  0.00  0.00    +0.105 A 
ATOM     36  C   UNL     1       5.203   2.915  -2.598  0.00  0.00    +0.029 A 
ATOM     37  C   UNL     1       4.704   4.034  -3.238  0.00  0.00    +0.005 A 
ENDBRANCH  28  35
ENDBRANCH  26  28
ENDBRANCH  25  26
ENDBRANCH  23  25
ENDBRANCH  22  23
ENDBRANCH  21  22
ENDBRANCH   1  21
TORSDOF 9
