REMARK  Name = ZINC34750060
REMARK  9 active torsions:
REMARK  status: ('A' for Active; 'I' for Inactive)
REMARK    1  A    between atoms: C_1  and  C_2
REMARK    2  A    between atoms: C_2  and  C_3
REMARK    3  A    between atoms: C_2  and  C_4
REMARK    4  A    between atoms: C_4  and  S_5
REMARK    5  A    between atoms: S_5  and  C_6
REMARK    6  A    between atoms: C_17  and  C_19
REMARK    7  A    between atoms: C_17  and  C_20
REMARK    8  A    between atoms: N_24  and  C_27
REMARK    9  A    between atoms: C_27  and  C_28
REMARK                            x       y       z     vdW  Elec       q    Type
REMARK                         _______ _______ _______ _____ _____    ______ ____
ROOT
ATOM      1  C   UNL     1      -3.115  -2.792  -0.107  0.00  0.00    +0.191 A 
ATOM      2  N   UNL     1      -3.453  -4.073  -0.201  0.00  0.00    -0.206 NA
ATOM      3  C   UNL     1      -4.713  -4.470  -0.195  0.00  0.00    +0.134 A 
ATOM      4  C   UNL     1      -5.749  -3.499  -0.086  0.00  0.00    +0.051 A 
ATOM      5  C   UNL     1      -7.197  -3.702  -0.061  0.00  0.00    -0.020 A 
ATOM      6  C   UNL     1      -7.969  -2.600   0.051  0.00  0.00    +0.021 A 
ATOM      7  S   UNL     1      -6.833  -1.245   0.130  0.00  0.00    -0.071 S 
ATOM      8  C   UNL     1      -5.318  -2.160   0.010  0.00  0.00    +0.115 A 
ATOM      9  N   UNL     1      -4.037  -1.844   0.003  0.00  0.00    -0.215 NA
ATOM     10  C   UNL     1      -9.466  -2.569   0.095  0.00  0.00    +0.203 C 
ATOM     11  O   UNL     1      -9.947  -3.857  -0.320  0.00  0.00    -0.368 OA
ATOM     12  C   UNL     1      -9.298  -4.947   0.340  0.00  0.00    +0.068 C 
ATOM     13  C   UNL     1      -7.854  -5.077  -0.154  0.00  0.00    +0.071 C 
ATOM     14  C   UNL     1      -9.298  -4.699   1.849  0.00  0.00    +0.041 C 
ATOM     15  C   UNL     1     -10.054  -6.244   0.041  0.00  0.00    +0.041 C 
ATOM     16  N   UNL     1      -5.023  -5.814  -0.295  0.00  0.00    -0.318 N 
ATOM     17  C   UNL     1      -5.342  -6.422  -1.596  0.00  0.00    +0.088 C 
ATOM     18  C   UNL     1      -4.484  -7.681  -1.766  0.00  0.00    -0.059 C 
ATOM     19  N   UNL     1      -4.688  -8.570  -0.615  0.00  0.00    +0.384 N 
ATOM     20  C   UNL     1      -4.200  -7.923   0.609  0.00  0.00    -0.059 C 
ATOM     21  C   UNL     1      -5.038  -6.677   0.896  0.00  0.00    +0.088 C 
ATOM     22  H   UNL     1      -5.672  -8.773  -0.518  0.00  0.00    -0.081 HD
ENDROOT
BRANCH   1  23
ATOM     23  S   UNL     1      -1.411  -2.343  -0.121  0.00  0.00    -0.086 S 
BRANCH  23  24
ATOM     24  C   UNL     1      -1.433  -0.535   0.034  0.00  0.00    +0.080 C 
BRANCH  24  26
ATOM     25  C   UNL     1      -0.017   1.523   0.040  0.00  0.00    +0.008 C 
ATOM     26  C   UNL     1       0.003  -0.007   0.034  0.00  0.00    -0.007 C 
ATOM     27  C   UNL     1       0.732  -0.511   1.281  0.00  0.00    +0.008 C 
ENDBRANCH  24  26
ENDBRANCH  23  24
ENDBRANCH   1  23
BRANCH  19  28
ATOM     28  C   UNL     1      -3.952  -9.823  -0.831  0.00  0.00    -0.043 C 
BRANCH  28  29
ATOM     29  C   UNL     1      -4.258 -10.784   0.289  0.00  0.00    -0.064 A 
ATOM     30  C   UNL     1      -3.477 -10.786   1.430  0.00  0.00    +0.002 A 
ATOM     31  C   UNL     1      -3.757 -11.667   2.458  0.00  0.00    +0.000 A 
ATOM     32  C   UNL     1      -4.818 -12.546   2.344  0.00  0.00    +0.000 A 
ATOM     33  C   UNL     1      -5.599 -12.544   1.204  0.00  0.00    +0.000 A 
ATOM     34  C   UNL     1      -5.322 -11.659   0.178  0.00  0.00    +0.002 A 
ENDBRANCH  28  29
ENDBRANCH  19  28
TORSDOF 5
