REMARK  Name = ZINC22313814
REMARK  12 active torsions:
REMARK  status: ('A' for Active; 'I' for Inactive)
REMARK    1  A    between atoms: C_1  and  C_2
REMARK    2  A    between atoms: C_5  and  S_8
REMARK    3  A    between atoms: S_8  and  C_9
REMARK    4  A    between atoms: C_9  and  C_10
REMARK    5  A    between atoms: C_10  and  C_11
REMARK    6  A    between atoms: C_11  and  N_12
REMARK    7  A    between atoms: C_13  and  C_15
REMARK    8  A    between atoms: C_15  and  N_16
REMARK    9  A    between atoms: N_16  and  C_17
REMARK   10  A    between atoms: N_16  and  S_26
REMARK   11  A    between atoms: C_20  and  N_23
REMARK   12  A    between atoms: S_26  and  C_29
REMARK                            x       y       z     vdW  Elec       q    Type
REMARK                         _______ _______ _______ _____ _____    ______ ____
ROOT
ATOM      1  N   UNL     1       4.278  -1.182  -1.624  0.00  0.00    -0.194 N 
ENDROOT
BRANCH   1   2
ATOM      2  C   UNL     1       5.097  -0.328  -2.366  0.00  0.00    +0.052 A 
ATOM      3  C   UNL     1       5.282   0.987  -1.959  0.00  0.00    +0.027 A 
ATOM      4  C   UNL     1       6.098   1.826  -2.692  0.00  0.00    +0.034 A 
ATOM      5  C   UNL     1       6.721   1.362  -3.836  0.00  0.00    +0.126 A 
ATOM      6  C   UNL     1       6.534   0.055  -4.247  0.00  0.00    +0.034 A 
ATOM      7  C   UNL     1       5.724  -0.791  -3.516  0.00  0.00    +0.027 A 
BRANCH   5   8
ATOM      8  N   UNL     1       7.590   2.267  -4.622  0.00  0.00    +0.056 N 
ATOM      9  O   UNL     1       8.139   1.859  -5.630  0.00  0.00    -0.126 OA
ATOM     10  O   UNL     1       7.755   3.418  -4.261  0.00  0.00    -0.126 OA
ENDBRANCH   5   8
ENDBRANCH   1   2
BRANCH   1  11
ATOM     11  S   UNL     1       4.652  -1.526  -0.048  0.00  0.00    +0.075 S 
ATOM     12  O   UNL     1       6.057  -1.357   0.082  0.00  0.00    -0.150 OA
ATOM     13  O   UNL     1       3.999  -2.748   0.267  0.00  0.00    -0.150 OA
BRANCH  11  14
ATOM     14  C   UNL     1       3.901  -0.282   0.949  0.00  0.00    +0.109 A 
ATOM     15  C   UNL     1       2.582  -0.413   1.341  0.00  0.00    +0.029 A 
ATOM     16  C   UNL     1       1.992   0.563   2.122  0.00  0.00    +0.002 A 
ATOM     17  C   UNL     1       2.723   1.670   2.513  0.00  0.00    +0.000 A 
ATOM     18  C   UNL     1       4.042   1.800   2.122  0.00  0.00    +0.002 A 
ATOM     19  C   UNL     1       4.631   0.825   1.340  0.00  0.00    +0.029 A 
ENDBRANCH  11  14
ENDBRANCH   1  11
BRANCH   1  20
ATOM     20  C   UNL     1       3.087  -1.773  -2.240  0.00  0.00    +0.227 C 
BRANCH  20  22
ATOM     21  N   UNL     1       0.729  -1.140  -2.634  0.00  0.00    -0.314 N 
ATOM     22  C   UNL     1       1.934  -0.808  -2.132  0.00  0.00    +0.232 C 
ATOM     23  O   UNL     1       2.092   0.267  -1.594  0.00  0.00    -0.274 OA
ATOM     24  H   UNL     1       0.586  -2.116  -3.122  0.00  0.00    +0.149 HD
BRANCH  21  25
ATOM     25  C   UNL     1      -0.392  -0.203  -2.529  0.00  0.00    +0.105 C 
BRANCH  25  26
ATOM     26  C   UNL     1      -1.635  -0.820  -3.173  0.00  0.00    +0.030 C 
BRANCH  26  27
ATOM     27  C   UNL     1      -2.806   0.160  -3.063  0.00  0.00    +0.076 C 
BRANCH  27  28
ATOM     28  S   UNL     1      -4.280  -0.572  -3.826  0.00  0.00    -0.125 S 
BRANCH  28  33
ATOM     29  C   UNL     1      -8.536   3.651  -3.125  0.00  0.00    +0.044 C 
ATOM     30  C   UNL     1      -7.473   2.597  -3.301  0.00  0.00    -0.050 A 
ATOM     31  C   UNL     1      -7.780   1.407  -3.935  0.00  0.00    +0.004 A 
ATOM     32  C   UNL     1      -6.809   0.438  -4.097  0.00  0.00    +0.015 A 
ATOM     33  C   UNL     1      -5.522   0.661  -3.622  0.00  0.00    +0.008 A 
ATOM     34  C   UNL     1      -5.219   1.856  -2.980  0.00  0.00    +0.015 A 
ATOM     35  C   UNL     1      -6.193   2.822  -2.827  0.00  0.00    +0.004 A 
ENDBRANCH  28  33
ENDBRANCH  27  28
ENDBRANCH  26  27
ENDBRANCH  25  26
ENDBRANCH  21  25
ENDBRANCH  20  22
ENDBRANCH   1  20
TORSDOF 11
