REMARK  Name = ZINC07854221
REMARK  14 active torsions:
REMARK  status: ('A' for Active; 'I' for Inactive)
REMARK    1  A    between atoms: C_1  and  C_2
REMARK    2  A    between atoms: C_3  and  C_30
REMARK    3  A    between atoms: C_4  and  C_29
REMARK    4  A    between atoms: C_7  and  C_8
REMARK    5  A    between atoms: C_8  and  C_10
REMARK    6  A    between atoms: C_10  and  C_12
REMARK    7  A    between atoms: C_10  and  S_13
REMARK    8  A    between atoms: S_13  and  C_14
REMARK    9  A    between atoms: C_17  and  C_19
REMARK   10  A    between atoms: C_22  and  C_25
REMARK   11  A    between atoms: C_25  and  C_26
REMARK   12  A    between atoms: C_25  and  C_27
REMARK   13  A    between atoms: C_25  and  C_28
REMARK   14  A    between atoms: C_30  and  C_32
REMARK                            x       y       z     vdW  Elec       q    Type
REMARK                         _______ _______ _______ _____ _____    ______ ____
ROOT
ATOM      1  S   UNL     1      -8.106   3.183   2.439  0.00  0.00    -0.054 S 
ENDROOT
BRANCH   1   2
ATOM      2  C   UNL     1      -9.406   3.284   1.254  0.00  0.00    +0.278 A 
ATOM      3  N   UNL     1      -9.266   3.335  -0.051  0.00  0.00    -0.101 NA
ATOM      4  N   UNL     1     -10.426   3.400  -0.604  0.00  0.00    -0.106 NA
ATOM      5  C   UNL     1     -11.352   3.401   0.325  0.00  0.00    +0.249 A 
ATOM      6  O   UNL     1     -10.725   3.328   1.520  0.00  0.00    -0.411 OA
BRANCH   5   7
ATOM      7  C   UNL     1     -12.811   3.471   0.104  0.00  0.00    +0.039 A 
ATOM      8  C   UNL     1     -13.686   3.459   1.193  0.00  0.00    +0.013 A 
ATOM      9  C   UNL     1     -15.047   3.530   0.980  0.00  0.00    +0.005 A 
ATOM     10  C   UNL     1     -15.546   3.602  -0.308  0.00  0.00    -0.042 A 
ATOM     11  C   UNL     1     -14.685   3.609  -1.391  0.00  0.00    +0.005 A 
ATOM     12  C   UNL     1     -13.322   3.544  -1.193  0.00  0.00    +0.013 A 
BRANCH  10  13
ATOM     13  C   UNL     1     -17.035   3.673  -0.532  0.00  0.00    -0.013 C 
ATOM     14  C   UNL     1     -17.482   2.474  -1.370  0.00  0.00    +0.015 C 
ATOM     15  C   UNL     1     -17.756   3.650   0.817  0.00  0.00    +0.015 C 
ATOM     16  C   UNL     1     -17.378   4.968  -1.272  0.00  0.00    +0.015 C 
ENDBRANCH  10  13
ENDBRANCH   5   7
ENDBRANCH   1   2
BRANCH   1  17
ATOM     17  C   UNL     1      -6.673   3.167   1.333  0.00  0.00    +0.125 C 
ATOM     18  C   UNL     1      -6.587   4.502   0.591  0.00  0.00    +0.028 C 
BRANCH  17  19
ATOM     19  C   UNL     1      -5.418   2.959   2.140  0.00  0.00    +0.192 C 
ATOM     20  O   UNL     1      -5.389   3.278   3.311  0.00  0.00    -0.289 OA
BRANCH  19  27
ATOM     21  C   UNL     1      -2.721   2.433   3.591  0.00  0.00    +0.047 C 
ATOM     22  C   UNL     1      -3.065   2.149   2.152  0.00  0.00    -0.012 A 
ATOM     23  C   UNL     1      -2.213   1.582   1.177  0.00  0.00    +0.041 A 
ATOM     24  C   UNL     1      -2.936   1.508  -0.004  0.00  0.00    +0.024 A 
ATOM     25  N   UNL     1      -4.168   1.988   0.217  0.00  0.00    -0.355 N 
ATOM     26  H   UNL     1      -4.874   2.048  -0.446  0.00  0.00    +0.166 HD
ATOM     27  C   UNL     1      -4.271   2.393   1.532  0.00  0.00    +0.087 A 
ATOM     28  C   UNL     1      -2.424   0.973  -1.317  0.00  0.00    +0.064 C 
BRANCH  23  29
ATOM     29  C   UNL     1      -0.823   1.157   1.376  0.00  0.00    +0.162 C 
ATOM     30  O   UNL     1       0.085   1.932   1.158  0.00  0.00    -0.292 OA
ATOM     31  C   UNL     1      -0.523  -0.241   1.850  0.00  0.00    +0.091 C 
ENDBRANCH  23  29
ENDBRANCH  19  27
ENDBRANCH  17  19
ENDBRANCH   1  17
TORSDOF 7
