REMARK  Name = ZINC40686196
REMARK  6 active torsions:
REMARK  status: ('A' for Active; 'I' for Inactive)
REMARK    1  A    between atoms: C_6  and  C_7
REMARK    2  A    between atoms: N_9  and  N_10
REMARK    3  A    between atoms: C_12  and  N_28
REMARK    4  A    between atoms: C_13  and  N_17
REMARK    5  A    between atoms: N_17  and  C_18
REMARK    6  A    between atoms: C_18  and  C_19
REMARK                            x       y       z     vdW  Elec       q    Type
REMARK                         _______ _______ _______ _____ _____    ______ ____
ROOT
ATOM      1  N   UNL     1      -2.446  -2.830   0.011  0.00  0.00    -0.247 N 
ATOM      2  C   UNL     1      -2.425  -4.220   0.004  0.00  0.00    +0.161 A 
ATOM      3  C   UNL     1      -3.616  -4.948   0.006  0.00  0.00    +0.107 A 
ATOM      4  C   UNL     1      -3.537  -6.341  -0.003  0.00  0.00    +0.145 A 
ATOM      5  N   UNL     1      -2.338  -6.919  -0.013  0.00  0.00    -0.219 NA
ATOM      6  C   UNL     1      -1.237  -6.195  -0.014  0.00  0.00    +0.225 A 
ATOM      7  N   UNL     1      -1.268  -4.877  -0.011  0.00  0.00    -0.217 NA
ATOM      8  H   UNL     1      -3.294  -2.359   0.022  0.00  0.00    +0.172 HD
ENDROOT
BRANCH   1  11
ATOM      9  C   UNL     1      -1.266  -0.763   0.011  0.00  0.00    +0.260 C 
ATOM     10  O   UNL     1      -2.328  -0.172   0.024  0.00  0.00    -0.269 OA
ATOM     11  N   UNL     1      -1.244  -2.111   0.003  0.00  0.00    -0.231 N 
ATOM     12  H   UNL     1      -0.397  -2.582  -0.008  0.00  0.00    +0.173 HD
BRANCH   9  18
ATOM     13  C   UNL     1      -0.017   1.392   0.010  0.00  0.00    +0.014 A 
ATOM     14  C   UNL     1       1.169   2.095   0.002  0.00  0.00    +0.021 A 
ATOM     15  C   UNL     1       2.378   1.419  -0.013  0.00  0.00    +0.041 A 
ATOM     16  C   UNL     1       2.403   0.034  -0.022  0.00  0.00    +0.021 A 
ATOM     17  C   UNL     1       1.224  -0.680  -0.014  0.00  0.00    +0.014 A 
ATOM     18  C   UNL     1       0.002  -0.004   0.002  0.00  0.00    +0.038 A 
ATOM     19 CL   UNL     1       3.868   2.310  -0.024  0.00  0.00    -0.084 Cl
ENDBRANCH   9  18
ENDBRANCH   1  11
BRANCH   3  20
ATOM     20  N   UNL     1      -4.860  -4.296   0.016  0.00  0.00    -0.353 N 
ATOM     21  H   UNL     1      -4.899  -3.327   0.022  0.00  0.00    +0.143 HD
ATOM     22  H   UNL     1      -5.679  -4.814   0.018  0.00  0.00    +0.143 HD
ENDBRANCH   3  20
BRANCH   4  23
ATOM     23  N   UNL     1      -4.692  -7.114  -0.001  0.00  0.00    -0.323 N 
ATOM     24  H   UNL     1      -5.562  -6.685   0.006  0.00  0.00    +0.148 HD
BRANCH  23  25
ATOM     25  C   UNL     1      -4.596  -8.575  -0.010  0.00  0.00    +0.138 C 
BRANCH  25  26
ATOM     26  C   UNL     1      -5.981  -9.170  -0.005  0.00  0.00    -0.027 A 
ATOM     27  C   UNL     1      -6.611  -9.444   1.195  0.00  0.00    +0.009 A 
ATOM     28  C   UNL     1      -7.881  -9.988   1.204  0.00  0.00    +0.050 A 
ATOM     29  C   UNL     1      -8.527 -10.262   0.009  0.00  0.00    +0.166 A 
ATOM     30  C   UNL     1      -7.893  -9.986  -1.200  0.00  0.00    +0.167 A 
ATOM     31  C   UNL     1      -6.622  -9.435  -1.201  0.00  0.00    +0.054 A 
ATOM     32  O   UNL     1      -8.727 -10.341  -2.221  0.00  0.00    -0.453 OA
ATOM     33  C   UNL     1      -9.709 -11.213  -1.629  0.00  0.00    +0.466 C 
ATOM     34  O   UNL     1      -9.758 -10.790  -0.254  0.00  0.00    -0.453 OA
ENDBRANCH  25  26
ENDBRANCH  23  25
ENDBRANCH   4  23
TORSDOF 6
