REMARK  Name = ZINC53035687
REMARK  6 active torsions:
REMARK  status: ('A' for Active; 'I' for Inactive)
REMARK    1  A    between atoms: C_1  and  C_2
REMARK    2  A    between atoms: C_5  and  C_7
REMARK    3  A    between atoms: C_7  and  N_8
REMARK    4  A    between atoms: N_8  and  S_9
REMARK    5  A    between atoms: S_9  and  C_12
REMARK    6  A    between atoms: C_15  and  N_19
REMARK                            x       y       z     vdW  Elec       q    Type
REMARK                         _______ _______ _______ _____ _____    ______ ____
ROOT
ATOM      1  S   UNL     1       3.260  -4.621  -1.737  0.00  0.00    +0.061 S 
ATOM      2  O   UNL     1       3.271  -4.815  -3.144  0.00  0.00    -0.153 OA
ATOM      3  O   UNL     1       4.377  -4.100  -1.030  0.00  0.00    -0.153 OA
ENDROOT
BRANCH   1   4
ATOM      4  C   UNL     1       2.893  -6.187  -1.016  0.00  0.00    +0.133 A 
ATOM      5  C   UNL     1       3.277  -6.454   0.286  0.00  0.00    +0.047 A 
ATOM      6  C   UNL     1       2.992  -7.681   0.854  0.00  0.00    +0.040 A 
ATOM      7  C   UNL     1       2.318  -8.647   0.116  0.00  0.00    +0.027 A 
ATOM      8  C   UNL     1       1.934  -8.375  -1.190  0.00  0.00    +0.040 A 
ATOM      9  C   UNL     1       2.217  -7.144  -1.751  0.00  0.00    +0.047 A 
ATOM     10 BR   UNL     1       1.688  -6.771  -3.528  0.00  0.00    -0.048 Br
ATOM     11 BR   UNL     1       4.194  -5.139   1.290  0.00  0.00    -0.048 Br
BRANCH   7  12
ATOM     12  N   UNL     1       2.029  -9.888   0.687  0.00  0.00    -0.358 N 
ATOM     13  H   UNL     1       2.298 -10.077   1.600  0.00  0.00    +0.142 HD
ATOM     14  H   UNL     1       1.558 -10.561   0.172  0.00  0.00    +0.142 HD
ENDBRANCH   7  12
ENDBRANCH   1   4
BRANCH   1  15
ATOM     15  N   UNL     1       1.983  -3.620  -1.407  0.00  0.00    -0.183 NA
ATOM     16  H   UNL     1       1.433  -3.281  -2.131  0.00  0.00    +0.148 HD
BRANCH  15  17
ATOM     17  C   UNL     1       1.684  -3.245  -0.023  0.00  0.00    +0.180 C 
BRANCH  17  22
ATOM     18  C   UNL     1      -0.018   1.503   0.010  0.00  0.00    +0.086 C 
ATOM     19  C   UNL     1       0.002  -0.004   0.002  0.00  0.00    +0.102 A 
ATOM     20  C   UNL     1      -1.078  -0.805   0.003  0.00  0.00    +0.044 A 
ATOM     21  C   UNL     1      -0.601  -2.136  -0.007  0.00  0.00    +0.046 A 
ATOM     22  C   UNL     1       0.742  -2.069  -0.013  0.00  0.00    +0.121 A 
ATOM     23  O   UNL     1       1.102  -0.775  -0.013  0.00  0.00    -0.464 OA
ENDBRANCH  17  22
ENDBRANCH  15  17
ENDBRANCH   1  15
TORSDOF 5
