REMARK  Name = ZINC37944051
REMARK  4 active torsions:
REMARK  status: ('A' for Active; 'I' for Inactive)
REMARK    1  A    between atoms: C_5  and  N_7
REMARK    2  A    between atoms: N_7  and  C_8
REMARK    3  A    between atoms: C_8  and  C_10
REMARK    4  A    between atoms: C_8  and  C_18
REMARK                            x       y       z     vdW  Elec       q    Type
REMARK                         _______ _______ _______ _____ _____    ______ ____
ROOT
ATOM      1  C   UNL     1      -0.019  -2.831  -0.013  0.00  0.00    +0.187 C 
ENDROOT
BRANCH   1   2
ATOM      2  C   UNL     1       0.217  -4.197   0.577  0.00  0.00    -0.017 A 
ATOM      3  C   UNL     1       1.374  -4.890   0.273  0.00  0.00    +0.007 A 
ATOM      4  C   UNL     1       1.593  -6.143   0.813  0.00  0.00    +0.022 A 
ATOM      5  C   UNL     1       0.653  -6.705   1.660  0.00  0.00    +0.059 A 
ATOM      6  C   UNL     1      -0.505  -6.010   1.965  0.00  0.00    +0.060 A 
ATOM      7  C   UNL     1      -0.719  -4.754   1.427  0.00  0.00    +0.027 A 
ATOM      8 CL   UNL     1      -1.685  -6.714   3.026  0.00  0.00    -0.082 Cl
ATOM      9 CL   UNL     1       0.926  -8.279   2.338  0.00  0.00    -0.082 Cl
ENDBRANCH   1   2
BRANCH   1  10
ATOM     10  C   UNL     1      -0.528  -2.974  -1.424  0.00  0.00    +0.235 C 
ATOM     11  O   UNL     1       0.097  -2.495  -2.346  0.00  0.00    -0.274 OA
ATOM     12  N   UNL     1      -1.679  -3.635  -1.662  0.00  0.00    -0.328 N 
ATOM     13  H   UNL     1      -2.179  -4.019  -0.924  0.00  0.00    +0.145 HD
ATOM     14  H   UNL     1      -2.006  -3.728  -2.570  0.00  0.00    +0.145 HD
ENDBRANCH   1  10
BRANCH   1  15
ATOM     15  N   UNL     1       1.237  -2.078  -0.021  0.00  0.00    -0.329 N 
ATOM     16  H   UNL     1       2.085  -2.549  -0.033  0.00  0.00    +0.147 HD
BRANCH  15  21
ATOM     17  C   UNL     1      -0.017   1.377   0.010  0.00  0.00    +0.002 A 
ATOM     18  C   UNL     1       1.170   2.086   0.002  0.00  0.00    +0.001 A 
ATOM     19  C   UNL     1       2.380   1.417  -0.013  0.00  0.00    +0.017 A 
ATOM     20  C   UNL     1       2.406   0.035  -0.021  0.00  0.00    +0.039 A 
ATOM     21  C   UNL     1       1.215  -0.681  -0.013  0.00  0.00    +0.042 A 
ATOM     22  C   UNL     1       0.002  -0.004   0.002  0.00  0.00    +0.024 A 
ATOM     23 BR   UNL     1       4.061  -0.880  -0.043  0.00  0.00    -0.048 Br
ENDBRANCH  15  21
ENDBRANCH   1  15
TORSDOF 4
