REMARK  Name = ZINC40758738
REMARK  4 active torsions:
REMARK  status: ('A' for Active; 'I' for Inactive)
REMARK    1  A    between atoms: C_1  and  C_2
REMARK    2  A    between atoms: C_9  and  N_12
REMARK    3  A    between atoms: C_14  and  N_31
REMARK    4  A    between atoms: C_15  and  N_19
REMARK                            x       y       z     vdW  Elec       q    Type
REMARK                         _______ _______ _______ _____ _____    ______ ____
ROOT
ATOM      1  N   UNL     1       0.074  -1.956   3.631  0.00  0.00    -0.296 N 
ATOM      2  C   UNL     1      -0.025  -2.640   4.838  0.00  0.00    +0.149 A 
ATOM      3  C   UNL     1      -0.142  -1.941   6.041  0.00  0.00    +0.106 A 
ATOM      4  C   UNL     1      -0.238  -2.677   7.224  0.00  0.00    +0.147 A 
ATOM      5  N   UNL     1      -0.216  -4.006   7.160  0.00  0.00    -0.219 NA
ATOM      6  C   UNL     1      -0.104  -4.627   6.003  0.00  0.00    +0.225 A 
ATOM      7  N   UNL     1      -0.016  -3.971   4.863  0.00  0.00    -0.219 NA
ATOM      8  H   UNL     1       0.152  -0.989   3.627  0.00  0.00    +0.154 HD
ENDROOT
BRANCH   4   9
ATOM      9  N   UNL     1      -0.355  -2.032   8.449  0.00  0.00    -0.311 N 
ATOM     10  C   UNL     1      -1.671  -1.608   8.948  0.00  0.00    +0.125 C 
ATOM     11  C   UNL     1      -1.886  -2.216  10.340  0.00  0.00    +0.125 C 
ATOM     12  N   UNL     1      -0.697  -1.945  11.159  0.00  0.00    -0.314 N 
ATOM     13  C   UNL     1       0.619  -2.369  10.660  0.00  0.00    +0.125 C 
ATOM     14  C   UNL     1       0.833  -1.766   9.271  0.00  0.00    +0.125 C 
ATOM     15  C   UNL     1      -0.814  -1.300  12.385  0.00  0.00    +0.099 A 
ATOM     16  C   UNL     1      -2.076  -1.013  12.895  0.00  0.00    +0.042 A 
ATOM     17  C   UNL     1      -2.179  -0.370  14.115  0.00  0.00    +0.005 A 
ATOM     18  C   UNL     1      -1.010  -0.034  14.787  0.00  0.00    +0.018 A 
ATOM     19  C   UNL     1       0.209  -0.349  14.222  0.00  0.00    +0.084 A 
ATOM     20  N   UNL     1       0.276  -0.968  13.059  0.00  0.00    -0.350 N 
ATOM     21  H   UNL     1       1.146  -1.181  12.686  0.00  0.00    +0.166 HD
ENDBRANCH   4   9
BRANCH   1  30
ATOM     22  C   UNL     1       2.455   0.965   0.338  0.00  0.00    +0.065 C 
ATOM     23  C   UNL     1       1.806  -0.391   0.242  0.00  0.00    +0.039 A 
ATOM     24  C   UNL     1       1.814  -1.062  -0.979  0.00  0.00    +0.023 A 
ATOM     25  C   UNL     1       1.230  -2.292  -1.084  0.00  0.00    +0.012 A 
ATOM     26  C   UNL     1       0.633  -2.845   0.065  0.00  0.00    +0.002 A 
ATOM     27  C   UNL     1       0.015  -4.105   0.031  0.00  0.00    +0.010 A 
ATOM     28  C   UNL     1      -0.554  -4.613   1.159  0.00  0.00    +0.003 A 
ATOM     29  C   UNL     1      -0.535  -3.900   2.355  0.00  0.00    +0.025 A 
ATOM     30  C   UNL     1       0.062  -2.660   2.428  0.00  0.00    +0.059 A 
ATOM     31  C   UNL     1       0.661  -2.108   1.274  0.00  0.00    +0.092 A 
ATOM     32  N   UNL     1       1.252  -0.911   1.310  0.00  0.00    -0.250 NA
ENDBRANCH   1  30
BRANCH   3  33
ATOM     33  N   UNL     1      -0.161  -0.538   6.061  0.00  0.00    -0.353 N 
ATOM     34  H   UNL     1      -0.166  -0.041   5.228  0.00  0.00    +0.143 HD
ATOM     35  H   UNL     1      -0.169  -0.065   6.908  0.00  0.00    +0.143 HD
ENDBRANCH   3  33
TORSDOF 3
