REMARK  Name = ZINC46735425
REMARK  10 active torsions:
REMARK  status: ('A' for Active; 'I' for Inactive)
REMARK    1  A    between atoms: C_1  and  N_2
REMARK    2  A    between atoms: N_2  and  C_3
REMARK    3  A    between atoms: N_2  and  C_31
REMARK    4  A    between atoms: C_3  and  C_4
REMARK    5  A    between atoms: C_9  and  N_10
REMARK    6  A    between atoms: C_11  and  C_13
REMARK    7  A    between atoms: N_18  and  S_20
REMARK    8  A    between atoms: S_20  and  C_23
REMARK    9  A    between atoms: C_26  and  O_29
REMARK   10  A    between atoms: O_29  and  C_30
REMARK                            x       y       z     vdW  Elec       q    Type
REMARK                         _______ _______ _______ _____ _____    ______ ____
ROOT
ATOM      1  N   UNL     1      -1.552  -1.973   2.069  0.00  0.00    -0.285 N 
ATOM      2  C   UNL     1      -2.556  -2.760   2.505  0.00  0.00    +0.222 C 
ATOM      3  O   UNL     1      -3.178  -2.455   3.500  0.00  0.00    -0.275 OA
ATOM      4  H   UNL     1      -1.108  -2.174   1.231  0.00  0.00    +0.155 HD
ENDROOT
BRANCH   1  10
ATOM      5  C   UNL     1      -0.524   0.207   2.211  0.00  0.00    -0.043 A 
ATOM      6  C   UNL     1      -0.135   1.300   2.961  0.00  0.00    +0.003 A 
ATOM      7  C   UNL     1      -0.364   1.323   4.324  0.00  0.00    +0.000 A 
ATOM      8  C   UNL     1      -0.985   0.252   4.941  0.00  0.00    +0.002 A 
ATOM      9  C   UNL     1      -1.377  -0.844   4.197  0.00  0.00    +0.023 A 
ATOM     10  C   UNL     1      -1.152  -0.867   2.827  0.00  0.00    +0.035 A 
BRANCH   5  11
ATOM     11  C   UNL     1      -0.273   0.184   0.725  0.00  0.00    -0.041 C 
BRANCH  11  13
ATOM     12  C   UNL     1      -1.862   1.936   0.326  0.00  0.00    -0.095 C 
ATOM     13  N   UNL     1      -1.506   0.545   0.014  0.00  0.00    +0.382 N 
ATOM     14  H   UNL     1      -2.254  -0.067   0.306  0.00  0.00    -0.081 HD
BRANCH  13  15
ATOM     15  C   UNL     1      -1.296   0.406  -1.433  0.00  0.00    -0.069 C 
ATOM     16  C   UNL     1      -2.581   0.783  -2.173  0.00  0.00    -0.015 C 
ATOM     17  C   UNL     1      -2.362   0.638  -3.681  0.00  0.00    -0.002 C 
ATOM     18  C   UNL     1      -1.992  -0.810  -4.006  0.00  0.00    -0.000 C 
ATOM     19  C   UNL     1      -0.707  -1.186  -3.265  0.00  0.00    -0.002 C 
ATOM     20  C   UNL     1      -0.926  -1.042  -1.758  0.00  0.00    -0.015 C 
ENDBRANCH  13  15
ENDBRANCH  11  13
ENDBRANCH   5  11
ENDBRANCH   1  10
BRANCH   2  21
ATOM     21  C   UNL     1      -2.905  -4.020   1.755  0.00  0.00    +0.091 C 
ATOM     22  C   UNL     1      -1.692  -4.952   1.728  0.00  0.00    +0.015 C 
ATOM     23  C   UNL     1      -2.035  -6.217   0.939  0.00  0.00    +0.018 C 
ATOM     24  C   UNL     1      -3.191  -6.948   1.630  0.00  0.00    +0.109 C 
ATOM     25  N   UNL     1      -4.313  -6.013   1.790  0.00  0.00    -0.176 NA
ATOM     26  C   UNL     1      -4.071  -4.725   2.455  0.00  0.00    +0.122 C 
BRANCH  25  27
ATOM     27  S   UNL     1      -5.822  -6.403   1.230  0.00  0.00    +0.061 S 
ATOM     28  O   UNL     1      -6.504  -5.176   1.013  0.00  0.00    -0.153 OA
ATOM     29  O   UNL     1      -5.637  -7.365   0.201  0.00  0.00    -0.153 OA
BRANCH  27  30
ATOM     30  C   UNL     1      -6.667  -7.224   2.541  0.00  0.00    +0.106 A 
ATOM     31  C   UNL     1      -6.576  -8.598   2.666  0.00  0.00    +0.032 A 
ATOM     32  C   UNL     1      -7.238  -9.244   3.692  0.00  0.00    +0.047 A 
ATOM     33  C   UNL     1      -7.994  -8.513   4.597  0.00  0.00    +0.120 A 
ATOM     34  C   UNL     1      -8.083  -7.135   4.469  0.00  0.00    +0.047 A 
ATOM     35  C   UNL     1      -7.415  -6.493   3.444  0.00  0.00    +0.032 A 
BRANCH  33  36
ATOM     36  O   UNL     1      -8.647  -9.147   5.607  0.00  0.00    -0.495 OA
ATOM     37  C   UNL     1      -9.406  -8.331   6.501  0.00  0.00    +0.277 C 
ENDBRANCH  33  36
ENDBRANCH  27  30
ENDBRANCH  25  27
ENDBRANCH   2  21
TORSDOF 8
