REMARK  Name = ZINC37385119
REMARK  10 active torsions:
REMARK  status: ('A' for Active; 'I' for Inactive)
REMARK    1  A    between atoms: C_1  and  C_2
REMARK    2  A    between atoms: C_2  and  O_3
REMARK    3  A    between atoms: O_3  and  C_4
REMARK    4  A    between atoms: C_6  and  C_26
REMARK    5  A    between atoms: N_7  and  C_9
REMARK    6  A    between atoms: C_12  and  N_15
REMARK    7  A    between atoms: N_15  and  S_16
REMARK    8  A    between atoms: S_16  and  C_19
REMARK    9  A    between atoms: C_22  and  C_25
REMARK   10  A    between atoms: C_29  and  C_32
REMARK                            x       y       z     vdW  Elec       q    Type
REMARK                         _______ _______ _______ _____ _____    ______ ____
ROOT
ATOM      1  C   UNL     1       0.627  -2.187   2.561  0.00  0.00    +0.337 A 
ATOM      2  N   UNL     1       1.913  -2.143   2.213  0.00  0.00    -0.174 NA
ATOM      3  C   UNL     1       2.286  -3.315   1.737  0.00  0.00    +0.167 A 
ATOM      4  N   UNL     1       1.213  -4.140   1.778  0.00  0.00    -0.209 N 
ATOM      5  N   UNL     1       0.158  -3.389   2.320  0.00  0.00    -0.108 NA
ENDROOT
BRANCH   4   6
ATOM      6  C   UNL     1       1.167  -5.479   1.368  0.00  0.00    +0.068 A 
ATOM      7  C   UNL     1       2.194  -6.348   1.714  0.00  0.00    +0.030 A 
ATOM      8  C   UNL     1       2.149  -7.667   1.310  0.00  0.00    +0.026 A 
ATOM      9  C   UNL     1       1.075  -8.126   0.557  0.00  0.00    +0.048 A 
ATOM     10  C   UNL     1       0.048  -7.258   0.211  0.00  0.00    +0.026 A 
ATOM     11  C   UNL     1       0.091  -5.940   0.620  0.00  0.00    +0.030 A 
BRANCH   9  12
ATOM     12  N   UNL     1       1.029  -9.462   0.148  0.00  0.00    -0.216 N 
ATOM     13  H   UNL     1       1.819  -9.881  -0.230  0.00  0.00    +0.174 HD
BRANCH  12  14
ATOM     14  S   UNL     1      -0.372 -10.329   0.307  0.00  0.00    +0.072 S 
ATOM     15  O   UNL     1      -1.401  -9.551  -0.289  0.00  0.00    -0.150 OA
ATOM     16  O   UNL     1      -0.080 -11.655  -0.113  0.00  0.00    -0.150 OA
BRANCH  14  17
ATOM     17  C   UNL     1      -0.739 -10.415   2.028  0.00  0.00    +0.109 A 
ATOM     18  C   UNL     1      -0.155 -11.393   2.811  0.00  0.00    +0.029 A 
ATOM     19  C   UNL     1      -0.443 -11.460   4.162  0.00  0.00    +0.005 A 
ATOM     20  C   UNL     1      -1.315 -10.549   4.729  0.00  0.00    -0.050 A 
ATOM     21  C   UNL     1      -1.898  -9.571   3.946  0.00  0.00    +0.005 A 
ATOM     22  C   UNL     1      -1.607  -9.501   2.596  0.00  0.00    +0.029 A 
ATOM     23  C   UNL     1      -1.629 -10.623   6.201  0.00  0.00    +0.044 C 
ENDBRANCH  14  17
ENDBRANCH  12  14
ENDBRANCH   9  12
ENDBRANCH   4   6
BRANCH   3  24
ATOM     24  C   UNL     1       3.636  -3.665   1.245  0.00  0.00    +0.019 A 
ATOM     25  C   UNL     1       3.794  -4.663   0.282  0.00  0.00    +0.012 A 
ATOM     26  C   UNL     1       5.056  -4.985  -0.172  0.00  0.00    +0.013 A 
ATOM     27  C   UNL     1       6.164  -4.321   0.324  0.00  0.00    +0.055 A 
ATOM     28  C   UNL     1       6.014  -3.331   1.279  0.00  0.00    +0.013 A 
ATOM     29  C   UNL     1       4.757  -2.995   1.737  0.00  0.00    +0.012 A 
BRANCH  27  30
ATOM     30  C   UNL     1       7.539  -4.679  -0.176  0.00  0.00    +0.417 C 
ATOM     31  F   UNL     1       7.852  -3.886  -1.286  0.00  0.00    -0.166 F 
ATOM     32  F   UNL     1       8.477  -4.454   0.837  0.00  0.00    -0.166 F 
ATOM     33  F   UNL     1       7.566  -6.028  -0.545  0.00  0.00    -0.166 F 
ENDBRANCH  27  30
ENDBRANCH   3  24
BRANCH   1  34
ATOM     34  O   UNL     1      -0.083  -1.156   3.088  0.00  0.00    -0.462 OA
BRANCH  34  36
ATOM     35  C   UNL     1      -2.084  -0.137   3.981  0.00  0.00    +0.048 C 
ATOM     36  C   UNL     1      -1.454  -1.405   3.403  0.00  0.00    +0.229 C 
ENDBRANCH  34  36
ENDBRANCH   1  34
TORSDOF 8
