REMARK  Name = ZINC36548583
REMARK  11 active torsions:
REMARK  status: ('A' for Active; 'I' for Inactive)
REMARK    1  A    between atoms: C_1  and  C_2
REMARK    2  A    between atoms: C_2  and  C_3
REMARK    3  A    between atoms: C_2  and  C_4
REMARK    4  A    between atoms: C_2  and  N_5
REMARK    5  A    between atoms: C_6  and  C_8
REMARK    6  A    between atoms: C_8  and  C_10
REMARK    7  A    between atoms: C_8  and  N_17
REMARK    8  A    between atoms: C_14  and  O_16
REMARK    9  A    between atoms: N_17  and  C_18
REMARK   10  A    between atoms: C_25  and  C_27
REMARK   11  A    between atoms: C_31  and  N_33
REMARK                            x       y       z     vdW  Elec       q    Type
REMARK                         _______ _______ _______ _____ _____    ______ ____
ROOT
ATOM      1  N   UNL     1       4.025   0.056  -3.148  0.00  0.00    -0.250 N 
ATOM      2  C   UNL     1       3.940   1.312  -3.629  0.00  0.00    +0.252 C 
ATOM      3  O   UNL     1       2.999   2.018  -3.323  0.00  0.00    -0.270 OA
ENDROOT
BRANCH   1   4
ATOM      4  C   UNL     1       5.144  -0.731  -3.440  0.00  0.00    +0.056 A 
ATOM      5  C   UNL     1       5.043  -1.771  -4.355  0.00  0.00    +0.025 A 
ATOM      6  C   UNL     1       6.149  -2.547  -4.642  0.00  0.00    +0.002 A 
ATOM      7  C   UNL     1       7.357  -2.289  -4.019  0.00  0.00    +0.002 A 
ATOM      8  C   UNL     1       7.462  -1.254  -3.107  0.00  0.00    +0.022 A 
ATOM      9  C   UNL     1       6.360  -0.471  -2.820  0.00  0.00    +0.062 A 
ATOM     10 CL   UNL     1       6.493   0.833  -1.681  0.00  0.00    -0.082 Cl
ENDBRANCH   1   4
BRANCH   2  11
ATOM     11  C   UNL     1       4.992   1.831  -4.529  0.00  0.00    +0.039 A 
ATOM     12  C   UNL     1       5.586   0.990  -5.472  0.00  0.00    +0.013 A 
ATOM     13  C   UNL     1       6.566   1.481  -6.308  0.00  0.00    +0.003 A 
ATOM     14  C   UNL     1       6.963   2.803  -6.214  0.00  0.00    +0.033 A 
ATOM     15  C   UNL     1       6.379   3.642  -5.281  0.00  0.00    +0.127 A 
ATOM     16  C   UNL     1       5.392   3.166  -4.443  0.00  0.00    +0.045 A 
BRANCH  15  17
ATOM     17  N   UNL     1       6.810   5.055  -5.187  0.00  0.00    +0.056 N 
ATOM     18  O   UNL     1       7.671   5.475  -5.924  0.00  0.00    -0.126 OA
ATOM     19  O   UNL     1       6.300   5.789  -4.372  0.00  0.00    -0.126 OA
ENDBRANCH  15  17
ENDBRANCH   2  11
BRANCH   1  20
ATOM     20  C   UNL     1       2.945  -0.485  -2.319  0.00  0.00    +0.198 C 
BRANCH  20  21
ATOM     21  C   UNL     1       3.214  -1.939  -2.029  0.00  0.00    -0.014 A 
ATOM     22  C   UNL     1       4.366  -2.308  -1.358  0.00  0.00    +0.006 A 
ATOM     23  C   UNL     1       4.616  -3.640  -1.091  0.00  0.00    +0.004 A 
ATOM     24  C   UNL     1       3.716  -4.608  -1.493  0.00  0.00    +0.045 A 
ATOM     25  C   UNL     1       2.560  -4.241  -2.166  0.00  0.00    +0.117 A 
ATOM     26  C   UNL     1       2.308  -2.902  -2.428  0.00  0.00    +0.051 A 
BRANCH  25  27
ATOM     27  O   UNL     1       1.673  -5.191  -2.563  0.00  0.00    -0.507 OA
ATOM     28  H   UNL     1       0.991  -5.391  -1.907  0.00  0.00    +0.292 HD
ENDBRANCH  25  27
ENDBRANCH  20  21
BRANCH  20  30
ATOM     29  N   UNL     1       1.804   0.141  -0.215  0.00  0.00    -0.309 N 
ATOM     30  C   UNL     1       2.874   0.281  -1.024  0.00  0.00    +0.239 C 
ATOM     31  O   UNL     1       3.779   1.024  -0.708  0.00  0.00    -0.273 OA
ATOM     32  H   UNL     1       1.080  -0.453  -0.468  0.00  0.00    +0.149 HD
BRANCH  29  34
ATOM     33  C   UNL     1       1.784   2.387   0.752  0.00  0.00    +0.031 C 
ATOM     34  C   UNL     1       1.735   0.886   1.044  0.00  0.00    +0.026 C 
ATOM     35  C   UNL     1       2.921   0.500   1.931  0.00  0.00    +0.031 C 
ATOM     36  C   UNL     1       0.429   0.548   1.765  0.00  0.00    +0.031 C 
ENDBRANCH  29  34
ENDBRANCH  20  30
ENDBRANCH   1  20
TORSDOF 8
