REMARK  Name = ZINC07142257
REMARK  3 active torsions:
REMARK  status: ('A' for Active; 'I' for Inactive)
REMARK    1  A    between atoms: C_3  and  O_9
REMARK    2  A    between atoms: O_9  and  C_10
REMARK    3  A    between atoms: C_10  and  C_11
REMARK                            x       y       z     vdW  Elec       q    Type
REMARK                         _______ _______ _______ _____ _____    ______ ____
ROOT
ATOM      1  C   UNL     1      -3.684  -0.961   0.013  0.00  0.00    +0.173 A 
ATOM      2  N   UNL     1      -4.282  -1.232   1.159  0.00  0.00    -0.196 NA
ATOM      3  C   UNL     1      -5.508  -1.752   1.166  0.00  0.00    +0.217 A 
ATOM      4  N   UNL     1      -6.125  -2.007   0.018  0.00  0.00    -0.181 NA
ATOM      5  C   UNL     1      -5.518  -1.738  -1.133  0.00  0.00    +0.217 A 
ATOM      6  N   UNL     1      -4.295  -1.213  -1.131  0.00  0.00    -0.196 NA
ATOM      7  N   UNL     1      -6.155  -2.002  -2.328  0.00  0.00    -0.327 N 
ATOM      8  N   UNL     1      -6.134  -2.030   2.364  0.00  0.00    -0.327 N 
ATOM      9  H   UNL     1      -5.711  -1.805  -3.168  0.00  0.00    +0.145 HD
ATOM     10  H   UNL     1      -7.047  -2.384  -2.329  0.00  0.00    +0.145 HD
ATOM     11  H   UNL     1      -7.025  -2.412   2.368  0.00  0.00    +0.145 HD
ATOM     12  H   UNL     1      -5.682  -1.843   3.202  0.00  0.00    +0.145 HD
ENDROOT
BRANCH   1  13
ATOM     13  C   UNL     1      -2.299  -0.367   0.010  0.00  0.00    +0.305 C 
BRANCH  13  14
ATOM     14  O   UNL     1      -2.391   1.059   0.019  0.00  0.00    -0.483 OA
BRANCH  14  17
ATOM     15  C   UNL     1       1.174   1.783   0.000  0.00  0.00    +0.023 A 
ATOM     16  C   UNL     1      -0.013   1.076   0.008  0.00  0.00    +0.048 A 
ATOM     17  C   UNL     1      -1.222   1.753   0.017  0.00  0.00    +0.135 A 
ATOM     18  C   UNL     1      -1.239   3.141   0.031  0.00  0.00    +0.061 A 
ATOM     19  C   UNL     1      -0.049   3.845   0.023  0.00  0.00    +0.039 A 
ATOM     20  C   UNL     1       1.157   3.167   0.008  0.00  0.00    +0.042 A 
ATOM     21 CL   UNL     1       2.650   4.053  -0.003  0.00  0.00    -0.084 Cl
ATOM     22 BR   UNL     1      -2.887   4.068   0.053  0.00  0.00    -0.046 Br
ENDBRANCH  14  17
ENDBRANCH  13  14
ENDBRANCH   1  13
TORSDOF 3
