REMARK  Name = ZINC12661273
REMARK  10 active torsions:
REMARK  status: ('A' for Active; 'I' for Inactive)
REMARK    1  A    between atoms: C_1  and  C_2
REMARK    2  A    between atoms: C_15  and  O_33
REMARK    3  A    between atoms: C_18  and  C_32
REMARK    4  A    between atoms: C_23  and  C_24
REMARK    5  A    between atoms: C_23  and  O_31
REMARK    6  A    between atoms: C_24  and  C_26
REMARK    7  A    between atoms: C_26  and  S_27
REMARK    8  A    between atoms: S_27  and  C_28
REMARK    9  A    between atoms: C_28  and  C_29
REMARK   10  A    between atoms: C_29  and  O_30
REMARK                            x       y       z     vdW  Elec       q    Type
REMARK                         _______ _______ _______ _____ _____    ______ ____
ROOT
ATOM      1  C   UNL     1       0.514   4.106  -1.993  0.00  0.00    +0.016 C 
ATOM      2  C   UNL     1       0.044   4.173  -0.539  0.00  0.00    -0.005 C 
ATOM      3  C   UNL     1       1.118   3.530   0.353  0.00  0.00    +0.019 C 
ATOM      4  C   UNL     1       1.383   2.094  -0.092  0.00  0.00    +0.080 C 
ATOM      5  C   UNL     1       0.086   1.339  -0.227  0.00  0.00    +0.156 C 
ATOM      6  O   UNL     1       0.098   0.126  -0.288  0.00  0.00    -0.293 OA
ATOM      7  C   UNL     1      -1.186   2.054  -0.265  0.00  0.00    +0.046 C 
ATOM      8  C   UNL     1      -1.227   3.377  -0.393  0.00  0.00    -0.060 C 
ATOM      9  C   UNL     1      -2.545   4.105  -0.369  0.00  0.00    +0.032 C 
ATOM     10  C   UNL     1      -2.539   5.093   0.791  0.00  0.00    +0.008 C 
ATOM     11  C   UNL     1      -1.196   5.740   1.023  0.00  0.00    -0.001 C 
ATOM     12  C   UNL     1      -0.174   5.610  -0.096  0.00  0.00    +0.031 C 
ATOM     13  C   UNL     1      -0.310   6.612  -1.218  0.00  0.00    +0.119 C 
ATOM     14  C   UNL     1      -0.421   8.057  -0.702  0.00  0.00    +0.041 C 
ATOM     15  C   UNL     1      -1.534   8.159   0.310  0.00  0.00    +0.009 C 
ATOM     16  C   UNL     1      -1.274   7.174   1.467  0.00  0.00    +0.002 C 
ATOM     17  C   UNL     1      -2.385   7.566   2.451  0.00  0.00    +0.008 C 
ATOM     18  C   UNL     1      -2.288   9.120   2.426  0.00  0.00    +0.043 C 
ATOM     19  C   UNL     1      -1.624   9.493   1.075  0.00  0.00    +0.130 C 
ATOM     20  C   UNL     1      -2.887   7.965  -0.370  0.00  0.00    +0.015 C 
ENDROOT
BRANCH  19  21
ATOM     21  C   UNL     1      -2.489  10.459   0.313  0.00  0.00    +0.175 C 
ATOM     22  O   UNL     1      -3.678  10.501   0.523  0.00  0.00    -0.293 OA
BRANCH  21  23
ATOM     23  C   UNL     1      -1.873  11.375  -0.713  0.00  0.00    +0.146 C 
BRANCH  23  24
ATOM     24  S   UNL     1      -3.166  12.410  -1.453  0.00  0.00    -0.151 S 
BRANCH  24  25
ATOM     25  C   UNL     1      -2.272  13.440  -2.650  0.00  0.00    +0.097 C 
BRANCH  25  26
ATOM     26  C   UNL     1      -3.257  14.374  -3.355  0.00  0.00    +0.166 C 
BRANCH  26  27
ATOM     27  O   UNL     1      -2.553  15.185  -4.298  0.00  0.00    -0.394 OA
ATOM     28  H   UNL     1      -3.116  15.803  -4.784  0.00  0.00    +0.209 HD
ENDBRANCH  26  27
ENDBRANCH  25  26
ENDBRANCH  24  25
ENDBRANCH  23  24
ENDBRANCH  21  23
ENDBRANCH  19  21
BRANCH  19  29
ATOM     29  O   UNL     1      -0.321  10.030   1.283  0.00  0.00    -0.380 OA
ATOM     30  H   UNL     1      -0.310  10.844   1.806  0.00  0.00    +0.211 HD
ENDBRANCH  19  29
BRANCH  13  31
ATOM     31  O   UNL     1      -1.395   6.304  -2.084  0.00  0.00    -0.391 OA
ATOM     32  H   UNL     1      -1.448   6.871  -2.865  0.00  0.00    +0.210 HD
ENDBRANCH  13  31
TORSDOF 8
