REMARK  Name = ZINC56135184
REMARK  4 active torsions:
REMARK  status: ('A' for Active; 'I' for Inactive)
REMARK    1  A    between atoms: C_6  and  N_7
REMARK    2  A    between atoms: C_10  and  C_14
REMARK    3  A    between atoms: N_20  and  C_22
REMARK    4  A    between atoms: C_22  and  C_23
REMARK                            x       y       z     vdW  Elec       q    Type
REMARK                         _______ _______ _______ _____ _____    ______ ____
ROOT
ATOM      1  C   UNL     1      -4.614  -0.821  -0.832  0.00  0.00    +0.230 C 
ATOM      2  O   UNL     1      -4.835  -1.453  -1.844  0.00  0.00    -0.275 OA
ATOM      3  N   UNL     1      -5.377   0.246  -0.524  0.00  0.00    -0.268 N 
ATOM      4  C   UNL     1      -6.426   0.626  -1.373  0.00  0.00    +0.147 A 
ATOM      5  C   UNL     1      -6.794  -0.015  -2.567  0.00  0.00    +0.065 A 
ATOM      6  C   UNL     1      -7.847   0.654  -3.089  0.00  0.00    +0.111 A 
ATOM      7  N   UNL     1      -8.138   1.679  -2.261  0.00  0.00    -0.261 N 
ATOM      8  N   UNL     1      -7.238   1.640  -1.189  0.00  0.00    -0.156 NA
ATOM      9  H   UNL     1      -5.201   0.752   0.284  0.00  0.00    +0.156 HD
ENDROOT
BRANCH   1  13
ATOM     10  N   UNL     1      -1.200  -0.721   0.010  0.00  0.00    -0.271 N 
ATOM     11  C   UNL     1      -1.293  -2.182  -0.097  0.00  0.00    +0.115 C 
ATOM     12  C   UNL     1      -2.761  -2.475  -0.480  0.00  0.00    +0.041 C 
ATOM     13  C   UNL     1      -3.487  -1.230   0.081  0.00  0.00    +0.163 C 
ATOM     14  C   UNL     1      -2.417  -0.161   0.122  0.00  0.00    +0.232 C 
ATOM     15  O   UNL     1      -2.626   1.028   0.238  0.00  0.00    -0.274 OA
BRANCH  10  21
ATOM     16  C   UNL     1      -0.017   1.384  -0.006  0.00  0.00    +0.025 A 
ATOM     17  C   UNL     1       1.170   2.091  -0.013  0.00  0.00    +0.023 A 
ATOM     18  C   UNL     1       2.378   1.416  -0.013  0.00  0.00    +0.059 A 
ATOM     19  C   UNL     1       2.400   0.031  -0.005  0.00  0.00    +0.061 A 
ATOM     20  C   UNL     1       1.215  -0.680   0.002  0.00  0.00    +0.045 A 
ATOM     21  C   UNL     1       0.002  -0.004   0.002  0.00  0.00    +0.038 A 
ATOM     22 CL   UNL     1       3.918  -0.812  -0.005  0.00  0.00    -0.082 Cl
ATOM     23 CL   UNL     1       3.868   2.307  -0.023  0.00  0.00    -0.082 Cl
ENDBRANCH  10  21
ENDBRANCH   1  13
BRANCH   7  24
ATOM     24  C   UNL     1      -9.212   2.658  -2.448  0.00  0.00    +0.238 C 
BRANCH  24  25
ATOM     25  C   UNL     1     -10.093   2.678  -1.226  0.00  0.00    +0.232 C 
ATOM     26  O   UNL     1      -9.848   1.946  -0.290  0.00  0.00    -0.274 OA
ATOM     27  N   UNL     1     -11.153   3.509  -1.172  0.00  0.00    -0.328 N 
ATOM     28  H   UNL     1     -11.348   4.094  -1.920  0.00  0.00    +0.145 HD
ATOM     29  H   UNL     1     -11.720   3.522  -0.385  0.00  0.00    +0.145 HD
ENDBRANCH  24  25
ENDBRANCH   7  24
TORSDOF 4
