REMARK  Name = ZINC06977199
REMARK  8 active torsions:
REMARK  status: ('A' for Active; 'I' for Inactive)
REMARK    1  A    between atoms: C_1  and  C_2
REMARK    2  A    between atoms: C_2  and  N_3
REMARK    3  A    between atoms: C_7  and  S_23
REMARK    4  A    between atoms: C_11  and  S_12
REMARK    5  A    between atoms: S_12  and  C_13
REMARK    6  A    between atoms: C_13  and  C_14
REMARK    7  A    between atoms: C_14  and  C_16
REMARK    8  A    between atoms: S_23  and  N_26
REMARK                            x       y       z     vdW  Elec       q    Type
REMARK                         _______ _______ _______ _____ _____    ______ ____
ROOT
ATOM      1  N   UNL     1      -0.749   3.044   1.275  0.00  0.00    -0.319 N 
ATOM      2  C   UNL     1       0.208   3.876   1.833  0.00  0.00    +0.070 A 
ATOM      3  C   UNL     1       1.398   3.654   2.509  0.00  0.00    +0.030 A 
ATOM      4  C   UNL     1       2.147   4.725   2.951  0.00  0.00    +0.030 A 
ATOM      5  C   UNL     1       1.718   6.024   2.724  0.00  0.00    +0.107 A 
ATOM      6  C   UNL     1       0.543   6.263   2.046  0.00  0.00    +0.058 A 
ATOM      7  C   UNL     1      -0.229   5.189   1.596  0.00  0.00    +0.092 A 
ATOM      8  N   UNL     1      -1.410   5.104   0.929  0.00  0.00    -0.222 NA
ATOM      9  C   UNL     1      -1.718   3.844   0.739  0.00  0.00    +0.170 A 
ENDROOT
BRANCH   5  10
ATOM     10  S   UNL     1       2.689   7.379   3.296  0.00  0.00    +0.056 S 
ATOM     11  O   UNL     1       1.804   8.481   3.439  0.00  0.00    -0.153 OA
ATOM     12  O   UNL     1       3.476   6.888   4.373  0.00  0.00    -0.153 OA
BRANCH  10  13
ATOM     13  N   UNL     1       3.743   7.773   2.081  0.00  0.00    -0.204 NA
ATOM     14  H   UNL     1       4.046   8.689   1.980  0.00  0.00    +0.144 HD
ATOM     15  H   UNL     1       4.057   7.088   1.470  0.00  0.00    +0.144 HD
ENDBRANCH  10  13
ENDBRANCH   5  10
BRANCH   1  17
ATOM     16  C   UNL     1      -0.013   1.086   0.008  0.00  0.00    +0.027 C 
ATOM     17  C   UNL     1      -0.729   1.579   1.267  0.00  0.00    +0.121 C 
ENDBRANCH   1  17
BRANCH   9  18
ATOM     18  S   UNL     1      -3.164   3.269  -0.086  0.00  0.00    -0.080 S 
BRANCH  18  19
ATOM     19  C   UNL     1      -3.939   4.851  -0.502  0.00  0.00    +0.157 C 
BRANCH  19  20
ATOM     20  C   UNL     1      -5.232   4.600  -1.235  0.00  0.00    +0.173 C 
ATOM     21  O   UNL     1      -5.593   3.464  -1.455  0.00  0.00    -0.291 OA
BRANCH  20  22
ATOM     22  C   UNL     1      -6.055   5.734  -1.684  0.00  0.00    +0.018 A 
ATOM     23  C   UNL     1      -5.644   7.046  -1.427  0.00  0.00    +0.013 A 
ATOM     24  C   UNL     1      -6.417   8.103  -1.856  0.00  0.00    +0.020 A 
ATOM     25  C   UNL     1      -7.605   7.868  -2.529  0.00  0.00    +0.041 A 
ATOM     26  C   UNL     1      -8.021   6.571  -2.782  0.00  0.00    +0.020 A 
ATOM     27  C   UNL     1      -7.255   5.504  -2.365  0.00  0.00    +0.013 A 
ATOM     28 CL   UNL     1      -8.576   9.206  -3.059  0.00  0.00    -0.084 Cl
ENDBRANCH  20  22
ENDBRANCH  19  20
ENDBRANCH  18  19
ENDBRANCH   9  18
TORSDOF 7
