REMARK  Name = ZINC04655122
REMARK  8 active torsions:
REMARK  status: ('A' for Active; 'I' for Inactive)
REMARK    1  A    between atoms: C_1  and  C_2
REMARK    2  A    between atoms: C_18  and  C_33
REMARK    3  A    between atoms: C_20  and  O_31
REMARK    4  A    between atoms: C_23  and  C_30
REMARK    5  A    between atoms: C_24  and  C_25
REMARK    6  A    between atoms: C_24  and  O_29
REMARK    7  A    between atoms: C_25  and  C_27
REMARK    8  A    between atoms: C_27  and  O_28
REMARK                            x       y       z     vdW  Elec       q    Type
REMARK                         _______ _______ _______ _____ _____    ______ ____
ROOT
ATOM      1  C   UNL     1       5.254   0.811  -1.452  0.00  0.00    +0.011 C 
ATOM      2  C   UNL     1       3.897   1.174  -2.050  0.00  0.00    +0.026 C 
ATOM      3  C   UNL     1       3.094   2.054  -1.053  0.00  0.00    +0.011 C 
ATOM      4  C   UNL     1       1.971   1.120  -0.568  0.00  0.00    +0.005 C 
ATOM      5  C   UNL     1       0.771   1.823   0.046  0.00  0.00    +0.037 C 
ATOM      6  C   UNL     1       1.108   1.992   1.530  0.00  0.00    +0.048 C 
ATOM      7  C   UNL     1      -0.076   2.431   2.389  0.00  0.00    +0.194 C 
ATOM      8  C   UNL     1      -1.173   1.410   2.144  0.00  0.00    -0.020 C 
ATOM      9  C   UNL     1      -1.671   0.701   3.145  0.00  0.00    +0.054 C 
ATOM     10  C   UNL     1      -2.788  -0.231   2.902  0.00  0.00    +0.179 C 
ATOM     11  O   UNL     1      -3.253  -0.896   3.809  0.00  0.00    -0.288 OA
ATOM     12  C   UNL     1      -3.337  -0.342   1.538  0.00  0.00    +0.047 C 
ATOM     13  C   UNL     1      -2.788   0.353   0.550  0.00  0.00    -0.009 C 
ATOM     14  C   UNL     1      -1.629   1.270   0.732  0.00  0.00    +0.047 C 
ATOM     15  C   UNL     1      -0.485   1.004  -0.222  0.00  0.00    +0.153 C 
ATOM     16  C   UNL     1      -0.161  -0.484  -0.330  0.00  0.00    +0.154 C 
ATOM     17  C   UNL     1       0.635  -0.757  -1.619  0.00  0.00    +0.044 C 
ATOM     18  C   UNL     1       1.642   0.335  -1.846  0.00  0.00    +0.010 C 
ATOM     19  C   UNL     1       3.055  -0.107  -2.280  0.00  0.00    +0.134 C 
ATOM     20  C   UNL     1       1.154   1.275  -2.964  0.00  0.00    +0.015 C 
ATOM     21  F   UNL     1      -1.007   1.403  -1.474  0.00  0.00    -0.238 F 
ATOM     22  C   UNL     1      -2.178   2.647   0.329  0.00  0.00    +0.023 C 
ATOM     23  F   UNL     1       0.286   2.424   3.744  0.00  0.00    -0.241 F 
ENDROOT
BRANCH  19  24
ATOM     24  C   UNL     1       3.580  -1.239  -1.451  0.00  0.00    +0.190 C 
ATOM     25  O   UNL     1       3.167  -1.407  -0.329  0.00  0.00    -0.292 OA
BRANCH  24  26
ATOM     26  C   UNL     1       4.623  -2.167  -2.018  0.00  0.00    +0.233 C 
BRANCH  26  27
ATOM     27  O   UNL     1       4.959  -3.157  -1.044  0.00  0.00    -0.387 OA
ATOM     28  H   UNL     1       5.627  -3.790  -1.341  0.00  0.00    +0.210 HD
ENDBRANCH  26  27
ENDBRANCH  24  26
ENDBRANCH  19  24
BRANCH  19  29
ATOM     29  O   UNL     1       3.043  -0.450  -3.667  0.00  0.00    -0.380 OA
ATOM     30  H   UNL     1       3.901  -0.737  -4.008  0.00  0.00    +0.211 HD
ENDBRANCH  19  29
BRANCH  16  31
ATOM     31  O   UNL     1       0.580  -0.920   0.811  0.00  0.00    -0.389 OA
ATOM     32  H   UNL     1       0.812  -1.859   0.793  0.00  0.00    +0.210 HD
ENDBRANCH  16  31
TORSDOF 5
