REMARK  Name = ZINC41019721
REMARK  9 active torsions:
REMARK  status: ('A' for Active; 'I' for Inactive)
REMARK    1  A    between atoms: C_1  and  C_2
REMARK    2  A    between atoms: C_2  and  C_3
REMARK    3  A    between atoms: C_3  and  S_4
REMARK    4  A    between atoms: S_4  and  C_5
REMARK    5  A    between atoms: C_10  and  C_26
REMARK    6  A    between atoms: C_12  and  C_16
REMARK    7  A    between atoms: C_13  and  C_15
REMARK    8  A    between atoms: N_18  and  C_19
REMARK    9  A    between atoms: C_23  and  C_25
REMARK                            x       y       z     vdW  Elec       q    Type
REMARK                         _______ _______ _______ _____ _____    ______ ____
ROOT
ATOM      1  C   UNL     1       1.645  -2.855   2.672  0.00  0.00    +0.210 A 
ATOM      2  N   UNL     1       2.151  -1.952   3.525  0.00  0.00    -0.187 NA
ATOM      3  C   UNL     1       2.733  -2.568   4.518  0.00  0.00    +0.219 A 
ATOM      4  N   UNL     1       2.614  -3.904   4.314  0.00  0.00    -0.220 N 
ATOM      5  N   UNL     1       1.903  -4.064   3.125  0.00  0.00    -0.141 NA
ATOM      6  C   UNL     1       3.157  -4.912   5.220  0.00  0.00    +0.180 C 
ATOM      7  C   UNL     1       3.577  -4.254   6.507  0.00  0.00    +0.060 C 
ATOM      8  C   UNL     1       3.674  -2.925   6.652  0.00  0.00    +0.018 C 
ATOM      9  N   UNL     1       3.384  -2.054   5.631  0.00  0.00    -0.287 N 
ATOM     10  C   UNL     1       4.116  -2.367   7.981  0.00  0.00    +0.061 C 
ATOM     11  H   UNL     1       3.625  -1.116   5.685  0.00  0.00    +0.155 HD
ENDROOT
BRANCH   6  12
ATOM     12  C   UNL     1       4.351  -5.572   4.580  0.00  0.00    +0.018 A 
ATOM     13  C   UNL     1       5.455  -4.815   4.230  0.00  0.00    +0.048 A 
ATOM     14  C   UNL     1       6.550  -5.422   3.642  0.00  0.00    +0.020 A 
ATOM     15  C   UNL     1       6.542  -6.784   3.405  0.00  0.00    +0.003 A 
ATOM     16  C   UNL     1       5.440  -7.540   3.754  0.00  0.00    +0.020 A 
ATOM     17  C   UNL     1       4.346  -6.936   4.348  0.00  0.00    +0.048 A 
ATOM     18 CL   UNL     1       2.964  -7.887   4.794  0.00  0.00    -0.083 Cl
ATOM     19 CL   UNL     1       5.465  -3.105   4.527  0.00  0.00    -0.083 Cl
ENDBRANCH   6  12
BRANCH   7  20
ATOM     20  C   UNL     1       3.883  -5.077   7.616  0.00  0.00    +0.248 C 
ATOM     21  O   UNL     1       2.986  -5.542   8.296  0.00  0.00    -0.270 OA
ATOM     22  N   UNL     1       5.168  -5.348   7.921  0.00  0.00    -0.282 N 
ATOM     23  H   UNL     1       5.884  -4.912   7.433  0.00  0.00    +0.155 HD
BRANCH  22  24
ATOM     24  C   UNL     1       5.469  -6.257   8.940  0.00  0.00    +0.034 A 
ATOM     25  C   UNL     1       4.566  -7.261   9.265  0.00  0.00    +0.023 A 
ATOM     26  C   UNL     1       4.866  -8.157  10.272  0.00  0.00    +0.002 A 
ATOM     27  C   UNL     1       6.064  -8.056  10.956  0.00  0.00    +0.003 A 
ATOM     28  C   UNL     1       6.965  -7.058  10.634  0.00  0.00    -0.049 A 
ATOM     29  C   UNL     1       6.673  -6.161   9.624  0.00  0.00    +0.026 A 
ATOM     30  C   UNL     1       8.269  -6.951  11.382  0.00  0.00    +0.044 C 
ENDBRANCH  22  24
ENDBRANCH   7  20
BRANCH   1  31
ATOM     31  S   UNL     1       0.770  -2.483   1.189  0.00  0.00    -0.084 S 
BRANCH  31  32
ATOM     32  C   UNL     1       0.752  -0.670   1.133  0.00  0.00    +0.077 C 
BRANCH  32  34
ATOM     33  C   UNL     1      -0.003   1.323  -0.171  0.00  0.00    +0.004 C 
ATOM     34  C   UNL     1       0.012  -0.206  -0.123  0.00  0.00    +0.008 C 
ENDBRANCH  32  34
ENDBRANCH  31  32
ENDBRANCH   1  31
TORSDOF 6
