REMARK  Name = ZINC02771794
REMARK  15 active torsions:
REMARK  status: ('A' for Active; 'I' for Inactive)
REMARK    1  A    between atoms: C_1  and  C_2
REMARK    2  A    between atoms: C_2  and  O_3
REMARK    3  A    between atoms: O_3  and  C_4
REMARK    4  A    between atoms: C_4  and  C_5
REMARK    5  A    between atoms: C_5  and  O_6
REMARK    6  A    between atoms: O_6  and  C_7
REMARK    7  A    between atoms: C_7  and  C_9
REMARK    8  A    between atoms: C_10  and  C_39
REMARK    9  A    between atoms: C_14  and  C_16
REMARK   10  A    between atoms: C_19  and  O_22
REMARK   11  A    between atoms: O_22  and  C_23
REMARK   12  A    between atoms: C_23  and  C_24
REMARK   13  A    between atoms: C_28  and  C_31
REMARK   14  A    between atoms: C_34  and  O_37
REMARK   15  A    between atoms: O_37  and  C_38
REMARK                            x       y       z     vdW  Elec       q    Type
REMARK                         _______ _______ _______ _____ _____    ______ ____
ROOT
ATOM      1  C   UNL     1       2.011  -2.833   1.458  0.00  0.00    +0.065 C 
ATOM      2  C   UNL     1       3.009  -2.109   1.994  0.00  0.00    +0.016 C 
ATOM      3  N   UNL     1       3.159  -0.790   1.667  0.00  0.00    -0.321 N 
ATOM      4  C   UNL     1       2.118  -0.081   1.131  0.00  0.00    +0.016 C 
ATOM      5  C   UNL     1       1.078  -0.720   0.555  0.00  0.00    +0.024 C 
ATOM      6  C   UNL     1       1.043  -2.226   0.485  0.00  0.00    +0.092 C 
ATOM      7  C   UNL     1       0.002  -0.004   0.002  0.00  0.00    +0.162 C 
ATOM      8  O   UNL     1      -0.928  -0.611  -0.492  0.00  0.00    -0.292 OA
ATOM      9  C   UNL     1      -0.018   1.500   0.010  0.00  0.00    +0.088 C 
ATOM     10  C   UNL     1       1.424   2.018  -0.001  0.00  0.00    +0.032 C 
ATOM     11  C   UNL     1       2.161   1.425   1.202  0.00  0.00    +0.059 C 
ATOM     12  C   UNL     1       3.967  -2.755   2.960  0.00  0.00    +0.061 C 
ATOM     13  H   UNL     1       4.124  -0.289   1.834  0.00  0.00    +0.152 HD
ENDROOT
BRANCH   6  14
ATOM     14  C   UNL     1       1.404  -2.665  -0.911  0.00  0.00    -0.035 A 
ATOM     15  C   UNL     1       2.633  -2.325  -1.446  0.00  0.00    +0.008 A 
ATOM     16  C   UNL     1       2.968  -2.731  -2.723  0.00  0.00    +0.046 A 
ATOM     17  C   UNL     1       2.066  -3.471  -3.473  0.00  0.00    +0.121 A 
ATOM     18  C   UNL     1       0.831  -3.807  -2.936  0.00  0.00    +0.046 A 
ATOM     19  C   UNL     1       0.503  -3.403  -1.656  0.00  0.00    +0.008 A 
BRANCH  17  20
ATOM     20  O   UNL     1       2.391  -3.866  -4.732  0.00  0.00    -0.492 OA
BRANCH  20  21
ATOM     21  C   UNL     1       3.679  -3.485  -5.220  0.00  0.00    +0.225 C 
ATOM     22  C   UNL     1       3.863  -4.015  -6.643  0.00  0.00    +0.048 C 
ENDBRANCH  20  21
ENDBRANCH  17  20
ENDBRANCH   6  14
BRANCH  10  23
ATOM     23  C   UNL     1       1.422   3.522   0.097  0.00  0.00    -0.043 A 
ATOM     24  C   UNL     1       0.850   4.142   1.192  0.00  0.00    +0.007 A 
ATOM     25  C   UNL     1       0.853   5.520   1.287  0.00  0.00    +0.046 A 
ATOM     26  C   UNL     1       1.420   6.283   0.276  0.00  0.00    +0.120 A 
ATOM     27  C   UNL     1       1.989   5.658  -0.825  0.00  0.00    +0.046 A 
ATOM     28  C   UNL     1       1.989   4.279  -0.912  0.00  0.00    +0.007 A 
BRANCH  26  29
ATOM     29  O   UNL     1       1.419   7.639   0.364  0.00  0.00    -0.495 OA
ATOM     30  C   UNL     1       0.816   8.213   1.526  0.00  0.00    +0.277 C 
ENDBRANCH  26  29
ENDBRANCH  10  23
BRANCH   1  31
ATOM     31  C   UNL     1       1.871  -4.194   1.819  0.00  0.00    +0.338 C 
ATOM     32  O   UNL     1       2.649  -4.698   2.607  0.00  0.00    -0.245 OA
BRANCH  31  33
ATOM     33  O   UNL     1       0.874  -4.933   1.289  0.00  0.00    -0.459 OA
BRANCH  33  34
ATOM     34  C   UNL     1       0.792  -6.300   1.697  0.00  0.00    +0.260 C 
BRANCH  34  35
ATOM     35  C   UNL     1      -0.391  -6.972   0.997  0.00  0.00    +0.201 C 
BRANCH  35  36
ATOM     36  O   UNL     1      -0.151  -7.012  -0.411  0.00  0.00    -0.377 OA
BRANCH  36  38
ATOM     37  C   UNL     1      -0.840  -7.611  -2.649  0.00  0.00    +0.034 C 
ATOM     38  C   UNL     1      -1.202  -7.623  -1.162  0.00  0.00    +0.156 C 
ENDBRANCH  36  38
ENDBRANCH  35  36
ENDBRANCH  34  35
ENDBRANCH  33  34
ENDBRANCH  31  33
ENDBRANCH   1  31
TORSDOF 11
