REMARK  Name = ZINC08431524
REMARK  12 active torsions:
REMARK  status: ('A' for Active; 'I' for Inactive)
REMARK    1  A    between atoms: C_1  and  C_2
REMARK    2  A    between atoms: C_6  and  C_38
REMARK    3  A    between atoms: C_8  and  O_11
REMARK    4  A    between atoms: O_11  and  C_12
REMARK    5  A    between atoms: C_12  and  C_13
REMARK    6  A    between atoms: C_13  and  C_15
REMARK    7  A    between atoms: C_13  and  O_37
REMARK    8  A    between atoms: C_15  and  N_79
REMARK    9  A    between atoms: C_18  and  C_21
REMARK   10  A    between atoms: C_21  and  N_22
REMARK   11  A    between atoms: C_38  and  C_39
REMARK   12  A    between atoms: C_38  and  C_40
REMARK                            x       y       z     vdW  Elec       q    Type
REMARK                         _______ _______ _______ _____ _____    ______ ____
ROOT
ATOM      1  C   UNL     1      -9.303   0.931  -0.460  0.00  0.00    -0.078 C 
ATOM      2  C   UNL     1     -10.693   0.314  -0.285  0.00  0.00    -0.014 C 
ATOM      3  C   UNL     1     -11.053   0.293   1.203  0.00  0.00    +0.003 C 
ATOM      4  C   UNL     1      -9.986  -0.495   1.968  0.00  0.00    -0.014 C 
ATOM      5  C   UNL     1      -8.617   0.146   1.728  0.00  0.00    -0.078 C 
ATOM      6  N   UNL     1      -8.319   0.113   0.280  0.00  0.00    +0.381 N 
ATOM      7  H   UNL     1      -8.377  -0.857  -0.050  0.00  0.00    -0.082 HD
ENDROOT
BRANCH   6   8
ATOM      8  C   UNL     1      -6.954   0.622   0.034  0.00  0.00    -0.045 C 
BRANCH   8   9
ATOM      9  C   UNL     1      -5.951  -0.477   0.390  0.00  0.00    +0.124 C 
BRANCH   9  10
ATOM     10  O   UNL     1      -6.199  -1.629  -0.418  0.00  0.00    -0.391 OA
ATOM     11  H   UNL     1      -6.120  -1.467  -1.368  0.00  0.00    +0.210 HD
ENDBRANCH   9  10
BRANCH   9  12
ATOM     12  C   UNL     1      -4.529   0.028   0.135  0.00  0.00    +0.189 C 
BRANCH  12  13
ATOM     13  O   UNL     1      -3.589  -0.954   0.576  0.00  0.00    -0.374 OA
BRANCH  13  19
ATOM     14  C   UNL     1      -0.165   0.872  -1.117  0.00  0.00    +0.007 C 
ATOM     15  C   UNL     1      -0.294  -0.650  -1.204  0.00  0.00    -0.012 C 
ATOM     16  C   UNL     1       0.572  -1.298  -0.122  0.00  0.00    +0.004 C 
ATOM     17  C   UNL     1       0.104  -0.826   1.256  0.00  0.00    +0.006 C 
ATOM     18  C   UNL     1      -1.358  -1.227   1.464  0.00  0.00    +0.020 C 
ATOM     19  C   UNL     1      -2.223  -0.579   0.382  0.00  0.00    +0.122 C 
ATOM     20  C   UNL     1      -1.756  -1.052  -0.996  0.00  0.00    +0.035 C 
BRANCH  18  21
ATOM     21  C   UNL     1      -1.825  -0.754   2.842  0.00  0.00    -0.012 C 
ATOM     22  C   UNL     1      -1.069  -1.521   3.928  0.00  0.00    +0.007 C 
ATOM     23  C   UNL     1      -1.549   0.744   2.988  0.00  0.00    +0.007 C 
ENDBRANCH  18  21
ENDBRANCH  13  19
ENDBRANCH  12  13
ENDBRANCH   9  12
ENDBRANCH   8   9
ENDBRANCH   6   8
BRANCH   3  24
ATOM     24  C   UNL     1     -12.416  -0.378   1.389  0.00  0.00    +0.120 C 
BRANCH  24  25
ATOM     25  N   UNL     1     -13.454   0.440   0.758  0.00  0.00    -0.234 N 
ATOM     26  C   UNL     1     -14.069   1.387   1.492  0.00  0.00    +0.254 C 
ATOM     27  O   UNL     1     -13.756   1.548   2.656  0.00  0.00    -0.270 OA
ATOM     28  C   UNL     1     -15.113   2.231   0.892  0.00  0.00    +0.046 A 
ATOM     29  C   UNL     1     -15.767   3.222   1.609  0.00  0.00    +0.014 A 
ATOM     30  C   UNL     1     -16.750   3.991   0.999  0.00  0.00    +0.001 A 
ATOM     31  C   UNL     1     -17.100   3.801  -0.307  0.00  0.00    +0.008 A 
ATOM     32  C   UNL     1     -16.460   2.808  -1.069  0.00  0.00    -0.016 A 
ATOM     33  C   UNL     1     -15.460   2.020  -0.461  0.00  0.00    +0.006 A 
ATOM     34  C   UNL     1     -14.799   1.014  -1.201  0.00  0.00    +0.046 A 
ATOM     35  C   UNL     1     -15.147   0.815  -2.529  0.00  0.00    +0.014 A 
ATOM     36  C   UNL     1     -16.134   1.598  -3.116  0.00  0.00    +0.001 A 
ATOM     37  C   UNL     1     -16.783   2.575  -2.417  0.00  0.00    +0.008 A 
ATOM     38  C   UNL     1     -13.762   0.214  -0.533  0.00  0.00    +0.254 C 
ATOM     39  O   UNL     1     -13.180  -0.658  -1.150  0.00  0.00    -0.270 OA
ENDBRANCH  24  25
ENDBRANCH   3  24
TORSDOF 9
