REMARK  Name = ZINC53990836
REMARK  7 active torsions:
REMARK  status: ('A' for Active; 'I' for Inactive)
REMARK    1  A    between atoms: C_5  and  C_7
REMARK    2  A    between atoms: C_7  and  N_8
REMARK    3  A    between atoms: C_11  and  N_14
REMARK    4  A    between atoms: C_15  and  C_17
REMARK    5  A    between atoms: C_17  and  C_18
REMARK    6  A    between atoms: C_18  and  C_20
REMARK    7  A    between atoms: C_18  and  N_25
REMARK                            x       y       z     vdW  Elec       q    Type
REMARK                         _______ _______ _______ _____ _____    ______ ____
ROOT
ATOM      1  N   UNL     1       0.730  -4.617  -5.077  0.00  0.00    -0.313 N 
ATOM      2  C   UNL     1       0.431  -5.871  -5.470  0.00  0.00    +0.215 C 
ATOM      3  O   UNL     1      -0.022  -6.665  -4.673  0.00  0.00    -0.276 OA
ATOM      4  H   UNL     1       1.093  -3.983  -5.715  0.00  0.00    +0.149 HD
ENDROOT
BRANCH   1   8
ATOM      5  N   UNL     1       1.368  -2.646  -1.407  0.00  0.00    +0.383 N 
ATOM      6  C   UNL     1       0.164  -2.271  -2.157  0.00  0.00    -0.077 C 
ATOM      7  C   UNL     1       0.315  -2.696  -3.619  0.00  0.00    +0.003 C 
ATOM      8  C   UNL     1       0.508  -4.213  -3.687  0.00  0.00    +0.069 C 
ATOM      9  C   UNL     1       1.724  -4.602  -2.840  0.00  0.00    +0.003 C 
ATOM     10  C   UNL     1       1.520  -4.106  -1.407  0.00  0.00    -0.077 C 
ATOM     11  H   UNL     1       2.176  -2.225  -1.840  0.00  0.00    -0.081 HD
BRANCH   5  12
ATOM     12  C   UNL     1       1.250  -2.168  -0.023  0.00  0.00    -0.022 C 
BRANCH  12  17
ATOM     13  C   UNL     1      -0.017   1.382   0.010  0.00  0.00    +0.003 A 
ATOM     14  C   UNL     1       1.194   2.059   0.002  0.00  0.00    +0.020 A 
ATOM     15  C   UNL     1       2.370   1.334  -0.013  0.00  0.00    +0.111 A 
ATOM     16  N   UNL     1       2.350   0.015  -0.021  0.00  0.00    -0.262 NA
ATOM     17  C   UNL     1       1.218  -0.661  -0.014  0.00  0.00    +0.025 A 
ATOM     18  C   UNL     1       0.002  -0.004   0.002  0.00  0.00    +0.021 A 
ENDBRANCH  12  17
ENDBRANCH   5  12
ENDBRANCH   1   8
BRANCH   2  19
ATOM     19  C   UNL     1       0.659  -6.287  -6.901  0.00  0.00    +0.123 C 
BRANCH  19  20
ATOM     20  C   UNL     1       0.240  -7.748  -7.080  0.00  0.00    +0.120 C 
BRANCH  20  21
ATOM     21  N   UNL     1      -1.204  -7.871  -6.867  0.00  0.00    -0.292 N 
ATOM     22  C   UNL     1      -1.729  -9.049  -6.474  0.00  0.00    +0.298 C 
ATOM     23  O   UNL     1      -1.004 -10.009  -6.298  0.00  0.00    -0.253 OA
ATOM     24  N   UNL     1      -3.057  -9.163  -6.278  0.00  0.00    -0.313 N 
ATOM     25  H   UNL     1      -1.782  -7.105  -7.007  0.00  0.00    +0.151 HD
ATOM     26  H   UNL     1      -3.636  -8.397  -6.418  0.00  0.00    +0.146 HD
ATOM     27  H   UNL     1      -3.435 -10.011  -5.995  0.00  0.00    +0.146 HD
ENDBRANCH  20  21
BRANCH  20  28
ATOM     28  C   UNL     1       0.582  -8.200  -8.477  0.00  0.00    +0.010 A 
ATOM     29  C   UNL     1       1.638  -8.935  -8.901  0.00  0.00    +0.013 A 
ATOM     30  C   UNL     1       1.749  -9.235 -10.246  0.00  0.00    +0.008 A 
ATOM     31  C   UNL     1       0.798  -8.785 -11.101  0.00  0.00    +0.045 A 
ATOM     32  S   UNL     1      -0.305  -7.914 -10.000  0.00  0.00    -0.100 S 
ENDBRANCH  20  28
ENDBRANCH  19  20
ENDBRANCH   2  19
TORSDOF 7
