REMARK  Name = ZINC42412895
REMARK  9 active torsions:
REMARK  status: ('A' for Active; 'I' for Inactive)
REMARK    1  A    between atoms: C_1  and  C_2
REMARK    2  A    between atoms: C_2  and  C_3
REMARK    3  A    between atoms: C_3  and  C_5
REMARK    4  A    between atoms: C_3  and  N_19
REMARK    5  A    between atoms: C_5  and  C_6
REMARK    6  A    between atoms: C_11  and  O_12
REMARK    7  A    between atoms: O_12  and  C_13
REMARK    8  A    between atoms: C_13  and  C_14
REMARK    9  A    between atoms: C_14  and  C_15
REMARK                            x       y       z     vdW  Elec       q    Type
REMARK                         _______ _______ _______ _____ _____    ______ ____
ROOT
ATOM      1  C   UNL     1       1.227  -2.500  -2.628  0.00  0.00    -0.006 A 
ATOM      2  C   UNL     1       0.413  -2.726  -3.721  0.00  0.00    +0.007 A 
ATOM      3  C   UNL     1       0.959  -3.164  -4.913  0.00  0.00    +0.002 A 
ATOM      4  C   UNL     1       2.322  -3.376  -5.015  0.00  0.00    +0.019 A 
ATOM      5  C   UNL     1       3.141  -3.151  -3.925  0.00  0.00    +0.060 A 
ATOM      6  C   UNL     1       2.595  -2.707  -2.728  0.00  0.00    +0.137 A 
ATOM      7 BR   UNL     1       5.004  -3.442  -4.065  0.00  0.00    -0.047 Br
ENDROOT
BRANCH   1   8
ATOM      8  C   UNL     1       0.630  -2.023  -1.329  0.00  0.00    +0.022 C 
BRANCH   8   9
ATOM      9  C   UNL     1       0.718  -0.497  -1.257  0.00  0.00    -0.071 C 
BRANCH   9  10
ATOM     10  N   UNL     1       2.129  -0.090  -1.209  0.00  0.00    +0.380 N 
ATOM     11  H   UNL     1       2.567  -0.491  -0.394  0.00  0.00    -0.090 HD
ATOM     12  H   UNL     1       2.601  -0.415  -2.039  0.00  0.00    -0.090 HD
ATOM     13  H   UNL     1       2.187   0.916  -1.162  0.00  0.00    -0.090 HD
ENDBRANCH   9  10
BRANCH   9  15
ATOM     14  C   UNL     1      -0.019   1.526   0.010  0.00  0.00    +0.002 C 
ATOM     15  C   UNL     1       0.002  -0.004   0.002  0.00  0.00    -0.019 C 
ENDBRANCH   9  15
ENDBRANCH   8   9
ENDBRANCH   1   8
BRANCH   6  16
ATOM     16  O   UNL     1       3.398  -2.480  -1.656  0.00  0.00    -0.490 OA
BRANCH  16  17
ATOM     17  C   UNL     1       3.627  -3.580  -0.772  0.00  0.00    +0.238 C 
BRANCH  17  18
ATOM     18  C   UNL     1       4.548  -3.136   0.366  0.00  0.00    +0.136 C 
BRANCH  18  19
ATOM     19  C   UNL     1       4.788  -4.296   1.298  0.00  0.00    +0.214 C 
ATOM     20  O   UNL     1       4.274  -5.371   1.074  0.00  0.00    -0.276 OA
ATOM     21  N   UNL     1       5.576  -4.138   2.381  0.00  0.00    -0.329 N 
ATOM     22  H   UNL     1       5.987  -3.278   2.560  0.00  0.00    +0.145 HD
ATOM     23  H   UNL     1       5.731  -4.884   2.981  0.00  0.00    +0.145 HD
ENDBRANCH  18  19
ENDBRANCH  17  18
ENDBRANCH  16  17
ENDBRANCH   6  16
TORSDOF 8
