REMARK  Name = ZINC24352159
REMARK  9 active torsions:
REMARK  status: ('A' for Active; 'I' for Inactive)
REMARK    1  A    between atoms: C_1  and  C_2
REMARK    2  A    between atoms: C_2  and  C_3
REMARK    3  A    between atoms: C_2  and  C_4
REMARK    4  A    between atoms: C_2  and  C_5
REMARK    5  A    between atoms: C_12  and  C_14
REMARK    6  A    between atoms: N_16  and  N_17
REMARK    7  A    between atoms: C_18  and  C_20
REMARK    8  A    between atoms: C_20  and  C_21
REMARK    9  A    between atoms: C_21  and  N_22
REMARK                            x       y       z     vdW  Elec       q    Type
REMARK                         _______ _______ _______ _____ _____    ______ ____
ROOT
ATOM      1  C   UNL     1       2.548   1.320  -0.014  0.00  0.00    +0.267 C 
ATOM      2  O   UNL     1       2.776   0.124  -0.022  0.00  0.00    -0.268 OA
ATOM      3  N   UNL     1       3.568   2.200  -0.019  0.00  0.00    -0.230 N 
ATOM      4  H   UNL     1       3.363   3.281  -0.013  0.00  0.00    +0.173 HD
ENDROOT
BRANCH   1  11
ATOM      5  C   UNL     1      -3.628   2.069   0.511  0.00  0.00    -0.001 C 
ATOM      6  C   UNL     1      -3.555   3.350  -0.324  0.00  0.00    +0.009 C 
ATOM      7  C   UNL     1      -2.270   4.106   0.043  0.00  0.00    +0.043 C 
ATOM      8  C   UNL     1      -1.130   3.135   0.029  0.00  0.00    -0.006 A 
ATOM      9  C   UNL     1      -1.211   1.771   0.017  0.00  0.00    -0.036 A 
ATOM     10  C   UNL     1      -0.013   1.076   0.008  0.00  0.00    +0.024 A 
ATOM     11  C   UNL     1       1.164   1.802   0.001  0.00  0.00    +0.076 A 
ATOM     12  S   UNL     1       0.557   3.481   0.015  0.00  0.00    -0.088 S 
ATOM     13  C   UNL     1      -2.569   1.075   0.035  0.00  0.00    +0.040 C 
BRANCH   5  15
ATOM     14  C   UNL     1      -5.269   1.109  -1.110  0.00  0.00    +0.011 C 
ATOM     15  C   UNL     1      -5.016   1.444   0.362  0.00  0.00    -0.035 C 
ATOM     16  C   UNL     1      -5.091   0.163   1.196  0.00  0.00    +0.011 C 
ATOM     17  C   UNL     1      -6.077   2.433   0.850  0.00  0.00    +0.011 C 
ENDBRANCH   5  15
ENDBRANCH   1  11
BRANCH   3  18
ATOM     18  N   UNL     1       4.891   1.739  -0.034  0.00  0.00    -0.234 N 
ATOM     19  C   UNL     1       5.912   2.620  -0.039  0.00  0.00    +0.231 C 
ATOM     20  O   UNL     1       5.685   3.811  -0.031  0.00  0.00    -0.274 OA
ATOM     21  H   UNL     1       5.097   0.659  -0.041  0.00  0.00    +0.173 HD
BRANCH  19  22
ATOM     22  C   UNL     1       7.335   2.124  -0.054  0.00  0.00    +0.116 C 
BRANCH  22  23
ATOM     23  C   UNL     1       8.291   3.318  -0.057  0.00  0.00    +0.118 C 
BRANCH  23  24
ATOM     24  N   UNL     1       9.674   2.836  -0.072  0.00  0.00    -0.291 N 
ATOM     25  C   UNL     1      10.361   2.601   1.177  0.00  0.00    +0.119 C 
ATOM     26  C   UNL     1      11.805   2.092   0.992  0.00  0.00    +0.098 C 
ATOM     27  S   UNL     1      11.926   2.054  -0.837  0.00  0.00    -0.066 S 
ATOM     28  C   UNL     1      10.289   2.624  -1.245  0.00  0.00    +0.275 C 
ATOM     29  O   UNL     1       9.824   2.789  -2.357  0.00  0.00    -0.263 OA
ENDBRANCH  23  24
ENDBRANCH  22  23
ENDBRANCH  19  22
ENDBRANCH   3  18
TORSDOF 6
