REMARK  Name = ZINC09557124
REMARK  12 active torsions:
REMARK  status: ('A' for Active; 'I' for Inactive)
REMARK    1  A    between atoms: C_1  and  C_2
REMARK    2  A    between atoms: C_2  and  C_3
REMARK    3  A    between atoms: C_3  and  C_4
REMARK    4  A    between atoms: C_4  and  N_5
REMARK    5  A    between atoms: C_15  and  C_28
REMARK    6  A    between atoms: C_16  and  O_27
REMARK    7  A    between atoms: N_19  and  C_20
REMARK    8  A    between atoms: C_20  and  C_21
REMARK    9  A    between atoms: C_28  and  C_30
REMARK   10  A    between atoms: C_33  and  O_36
REMARK   11  A    between atoms: O_36  and  C_37
REMARK   12  A    between atoms: C_37  and  C_38
REMARK                            x       y       z     vdW  Elec       q    Type
REMARK                         _______ _______ _______ _____ _____    ______ ____
ROOT
ATOM      1  N   UNL     1       4.173  -1.691   0.469  0.00  0.00    -0.269 N 
ATOM      2  C   UNL     1       3.085  -2.464   0.059  0.00  0.00    +0.042 A 
ATOM      3  C   UNL     1       2.704  -3.758   0.408  0.00  0.00    +0.024 A 
ATOM      4  C   UNL     1       1.568  -4.317  -0.139  0.00  0.00    +0.002 A 
ATOM      5  C   UNL     1       0.799  -3.601  -1.037  0.00  0.00    +0.000 A 
ATOM      6  C   UNL     1       1.171  -2.315  -1.389  0.00  0.00    +0.008 A 
ATOM      7  C   UNL     1       2.303  -1.753  -0.845  0.00  0.00    +0.011 A 
ATOM      8  C   UNL     1       2.971  -0.413  -1.008  0.00  0.00    +0.174 C 
ATOM      9  C   UNL     1       4.181  -0.476  -0.111  0.00  0.00    +0.253 C 
ATOM     10  O   UNL     1       5.003   0.399   0.057  0.00  0.00    -0.272 OA
ATOM     11  C   UNL     1       3.365  -0.173  -2.440  0.00  0.00    +0.083 C 
ATOM     12  C   UNL     1       2.746   0.972  -2.821  0.00  0.00    +0.189 C 
ATOM     13  C   UNL     1       1.951   1.493  -1.688  0.00  0.00    +0.283 C 
ATOM     14  O   UNL     1       1.281   2.507  -1.714  0.00  0.00    -0.267 OA
ATOM     15  N   UNL     1       2.080   0.678  -0.623  0.00  0.00    -0.271 N 
ENDROOT
BRANCH  12  16
ATOM     16  O   UNL     1       2.842   1.546  -4.042  0.00  0.00    -0.502 OA
ATOM     17  H   UNL     1       2.290   2.380  -4.063  0.00  0.00    +0.292 HD
ENDBRANCH  12  16
BRANCH  11  18
ATOM     18  C   UNL     1       4.248  -1.008  -3.260  0.00  0.00    +0.196 C 
ATOM     19  O   UNL     1       3.842  -2.064  -3.709  0.00  0.00    -0.287 OA
BRANCH  18  20
ATOM     20  C   UNL     1       5.628  -0.569  -3.541  0.00  0.00    +0.022 A 
ATOM     21  C   UNL     1       6.060   0.694  -3.125  0.00  0.00    +0.015 A 
ATOM     22  C   UNL     1       7.351   1.098  -3.384  0.00  0.00    +0.046 A 
ATOM     23  C   UNL     1       8.220   0.257  -4.069  0.00  0.00    +0.121 A 
ATOM     24  C   UNL     1       7.793  -0.998  -4.489  0.00  0.00    +0.046 A 
ATOM     25  C   UNL     1       6.506  -1.412  -4.229  0.00  0.00    +0.015 A 
BRANCH  23  26
ATOM     26  O   UNL     1       9.490   0.661  -4.326  0.00  0.00    -0.488 OA
BRANCH  26  27
ATOM     27  C   UNL     1       9.863   1.961  -3.866  0.00  0.00    +0.256 C 
BRANCH  27  28
ATOM     28  C   UNL     1      11.297   2.234  -4.240  0.00  0.00    +0.006 C 
ATOM     29  C   UNL     1      11.631   3.392  -4.755  0.00  0.00    +0.007 C 
ENDBRANCH  27  28
ENDBRANCH  26  27
ENDBRANCH  23  26
ENDBRANCH  18  20
ENDBRANCH  11  18
BRANCH   1  30
ATOM     30  C   UNL     1       5.190  -2.150   1.419  0.00  0.00    +0.114 C 
BRANCH  30  31
ATOM     31  C   UNL     1       6.297  -2.889   0.665  0.00  0.00    +0.019 C 
BRANCH  31  33
ATOM     32  C   UNL     1       8.497  -4.050   0.894  0.00  0.00    +0.004 C 
ATOM     33  C   UNL     1       7.390  -3.311   1.648  0.00  0.00    -0.002 C 
ENDBRANCH  31  33
ENDBRANCH  30  31
ENDBRANCH   1  30
BRANCH  15  34
ATOM     34  C   UNL     1       1.447   0.857   0.686  0.00  0.00    +0.141 C 
BRANCH  34  35
ATOM     35  C   UNL     1       0.087   0.155   0.695  0.00  0.00    +0.136 C 
ATOM     36  C   UNL     1      -0.616   0.362   2.060  0.00  0.00    +0.035 C 
ATOM     37  C   UNL     1      -2.106   0.181   1.651  0.00  0.00    +0.031 C 
ATOM     38  C   UNL     1      -2.130   0.776   0.227  0.00  0.00    +0.160 C 
ATOM     39  O   UNL     1      -0.789   0.752  -0.275  0.00  0.00    -0.375 OA
ENDBRANCH  34  35
ENDBRANCH  15  34
TORSDOF 11
