REMARK  Name = ZINC02985574
REMARK  1 active torsions:
REMARK  status: ('A' for Active; 'I' for Inactive)
REMARK    1  A    between atoms: C_6  and  C_7
REMARK                            x       y       z     vdW  Elec       q    Type
REMARK                         _______ _______ _______ _____ _____    ______ ____
ROOT
ATOM      1  C   UNL     1      -1.266  -0.763   0.011  0.00  0.00    +0.112 A 
ATOM      2  C   UNL     1      -2.482  -0.095   0.020  0.00  0.00    +0.163 A 
ATOM      3  N   UNL     1      -3.615  -0.783   0.027  0.00  0.00    -0.140 N 
ATOM      4  O   UNL     1      -4.856  -0.100   0.038  0.00  0.00    -0.164 OA
ATOM      5  C   UNL     1      -3.591  -2.115   0.024  0.00  0.00    +0.085 A 
ATOM      6  C   UNL     1      -2.418  -2.784   0.015  0.00  0.00    +0.086 A 
ATOM      7  N   UNL     1      -1.252  -2.115   0.003  0.00  0.00    -0.133 N 
ATOM      8  O   UNL     1      -0.023  -2.818  -0.011  0.00  0.00    -0.164 OA
ATOM      9  C   UNL     1      -2.404  -4.298   0.008  0.00  0.00    +0.059 C 
ATOM     10  C   UNL     1      -2.860  -4.795   1.382  0.00  0.00    +0.006 C 
ATOM     11  C   UNL     1      -4.373  -4.879   1.452  0.00  0.00    +0.001 C 
ATOM     12  C   UNL     1      -5.072  -3.534   1.404  0.00  0.00    +0.006 C 
ATOM     13  C   UNL     1      -4.900  -2.878   0.033  0.00  0.00    +0.059 C 
ENDROOT
BRANCH   1  19
ATOM     14  C   UNL     1       1.167  -0.580   0.511  0.00  0.00    +0.011 A 
ATOM     15  C   UNL     1       2.348   0.133   0.500  0.00  0.00    +0.020 A 
ATOM     16  C   UNL     1       2.378   1.418  -0.015  0.00  0.00    +0.041 A 
ATOM     17  C   UNL     1       1.226   1.995  -0.521  0.00  0.00    +0.020 A 
ATOM     18  C   UNL     1       0.039   1.292  -0.515  0.00  0.00    +0.011 A 
ATOM     19  C   UNL     1       0.002  -0.004   0.002  0.00  0.00    +0.004 A 
ATOM     20 CL   UNL     1       3.868   2.310  -0.025  0.00  0.00    -0.084 Cl
ENDBRANCH   1  19
TORSDOF 1
