REMARK  Name = ZINC09632429
REMARK  7 active torsions:
REMARK  status: ('A' for Active; 'I' for Inactive)
REMARK    1  A    between atoms: C_4  and  S_11
REMARK    2  A    between atoms: C_5  and  C_7
REMARK    3  A    between atoms: S_11  and  N_14
REMARK    4  A    between atoms: C_19  and  C_20
REMARK    5  A    between atoms: C_19  and  N_53
REMARK    6  A    between atoms: N_22  and  C_23
REMARK    7  A    between atoms: C_26  and  C_29
REMARK                            x       y       z     vdW  Elec       q    Type
REMARK                         _______ _______ _______ _____ _____    ______ ____
ROOT
ATOM      1  N   UNL     1       5.942   3.216  -0.641  0.00  0.00    -0.180 NA
ATOM      2  C   UNL     1       5.995   2.364   0.557  0.00  0.00    +0.091 C 
ATOM      3  C   UNL     1       4.918   1.281   0.433  0.00  0.00    -0.061 C 
ATOM      4  C   UNL     1       3.618   2.639  -1.100  0.00  0.00    -0.061 C 
ATOM      5  C   UNL     1       4.642   3.777  -1.038  0.00  0.00    +0.091 C 
ATOM      6  N   UNL     1       3.612   1.935   0.201  0.00  0.00    +0.387 N 
ATOM      7  H   UNL     1       3.445   2.619   0.948  0.00  0.00    -0.081 HD
ENDROOT
BRANCH   1   8
ATOM      8  S   UNL     1       7.309   3.534  -1.519  0.00  0.00    +0.061 S 
ATOM      9  O   UNL     1       7.089   4.772  -2.180  0.00  0.00    -0.153 OA
ATOM     10  O   UNL     1       8.411   3.321  -0.647  0.00  0.00    -0.153 OA
BRANCH   8  14
ATOM     11  C   UNL     1       7.589   0.375  -4.750  0.00  0.00    +0.001 A 
ATOM     12  C   UNL     1       6.409   0.544  -4.049  0.00  0.00    +0.002 A 
ATOM     13  C   UNL     1       6.325   1.505  -3.059  0.00  0.00    +0.029 A 
ATOM     14  C   UNL     1       7.418   2.305  -2.777  0.00  0.00    +0.117 A 
ATOM     15  C   UNL     1       8.597   2.136  -3.478  0.00  0.00    +0.081 A 
ATOM     16  C   UNL     1       8.682   1.171  -4.465  0.00  0.00    +0.014 A 
BRANCH  15  17
ATOM     17  C   UNL     1       9.789   3.003  -3.167  0.00  0.00    +0.419 C 
ATOM     18  F   UNL     1      10.802   2.756  -4.101  0.00  0.00    -0.166 F 
ATOM     19  F   UNL     1       9.416   4.350  -3.229  0.00  0.00    -0.166 F 
ATOM     20  F   UNL     1      10.258   2.708  -1.882  0.00  0.00    -0.166 F 
ENDBRANCH  15  17
ENDBRANCH   8  14
ENDBRANCH   1   8
BRANCH   6  21
ATOM     21  C   UNL     1       2.532   0.926   0.224  0.00  0.00    +0.019 C 
BRANCH  21  22
ATOM     22  C   UNL     1       1.204   1.637   0.205  0.00  0.00    +0.201 C 
ATOM     23  O   UNL     1       1.165   2.849   0.159  0.00  0.00    -0.278 OA
ATOM     24  N   UNL     1       0.059   0.927   0.240  0.00  0.00    -0.287 N 
ATOM     25  H   UNL     1       0.088  -0.042   0.205  0.00  0.00    +0.155 HD
BRANCH  24  26
ATOM     26  C   UNL     1      -1.168   1.586   0.319  0.00  0.00    +0.033 A 
ATOM     27  C   UNL     1      -1.347   2.802  -0.333  0.00  0.00    +0.024 A 
ATOM     28  C   UNL     1      -2.558   3.452  -0.260  0.00  0.00    +0.015 A 
ATOM     29  C   UNL     1      -3.605   2.895   0.477  0.00  0.00    +0.037 A 
ATOM     30  C   UNL     1      -3.421   1.676   1.136  0.00  0.00    +0.015 A 
ATOM     31  C   UNL     1      -2.209   1.028   1.055  0.00  0.00    +0.024 A 
BRANCH  29  32
ATOM     32  C   UNL     1      -4.904   3.591   0.561  0.00  0.00    +0.242 C 
ATOM     33  O   UNL     1      -5.815   3.105   1.203  0.00  0.00    -0.270 OA
ATOM     34  N   UNL     1      -5.080   4.767  -0.074  0.00  0.00    -0.325 N 
ATOM     35  H   UNL     1      -4.354   5.155  -0.586  0.00  0.00    +0.145 HD
ATOM     36  H   UNL     1      -5.934   5.225  -0.019  0.00  0.00    +0.145 HD
ENDBRANCH  29  32
ENDBRANCH  24  26
ENDBRANCH  21  22
ENDBRANCH   6  21
TORSDOF 7
