REMARK  Name = ZINC36579468
REMARK  17 active torsions:
REMARK  status: ('A' for Active; 'I' for Inactive)
REMARK    1  A    between atoms: C_1  and  C_2
REMARK    2  A    between atoms: C_2  and  C_4
REMARK    3  A    between atoms: C_2  and  C_10
REMARK    4  A    between atoms: C_10  and  C_12
REMARK    5  A    between atoms: C_10  and  N_19
REMARK    6  A    between atoms: N_14  and  C_15
REMARK    7  A    between atoms: C_15  and  C_16
REMARK    8  A    between atoms: C_15  and  C_17
REMARK    9  A    between atoms: C_15  and  C_18
REMARK   10  A    between atoms: N_19  and  C_38
REMARK   11  A    between atoms: C_20  and  C_22
REMARK   12  A    between atoms: C_28  and  O_30
REMARK   13  A    between atoms: O_30  and  C_31
REMARK   14  A    between atoms: C_31  and  C_32
REMARK   15  A    between atoms: C_38  and  C_39
REMARK   16  A    between atoms: C_38  and  C_40
REMARK   17  A    between atoms: C_38  and  C_41
REMARK                            x       y       z     vdW  Elec       q    Type
REMARK                         _______ _______ _______ _____ _____    ______ ____
ROOT
ATOM      1  N   UNL     1      -2.395   0.741  -1.848  0.00  0.00    -0.283 N 
ATOM      2  C   UNL     1      -3.337   0.385  -2.743  0.00  0.00    +0.237 C 
ATOM      3  O   UNL     1      -3.975  -0.634  -2.579  0.00  0.00    -0.274 OA
ENDROOT
BRANCH   2   4
ATOM      4  C   UNL     1      -3.599   1.252  -3.947  0.00  0.00    +0.165 C 
ATOM      5  C   UNL     1      -4.872   2.094  -3.721  0.00  0.00    +0.033 C 
ATOM      6  C   UNL     1      -5.543   2.092  -5.120  0.00  0.00    +0.021 C 
ATOM      7  C   UNL     1      -5.199   0.669  -5.627  0.00  0.00    +0.112 C 
ATOM      8  N   UNL     1      -3.833   0.409  -5.129  0.00  0.00    -0.256 N 
ATOM      9  C   UNL     1      -2.948  -0.454  -5.666  0.00  0.00    +0.404 C 
ATOM     10  O   UNL     1      -1.848  -0.585  -5.168  0.00  0.00    -0.226 OA
BRANCH   9  11
ATOM     11  O   UNL     1      -3.284  -1.172  -6.754  0.00  0.00    -0.445 OA
BRANCH  11  12
ATOM     12  C   UNL     1      -2.298  -2.068  -7.270  0.00  0.00    +0.269 C 
BRANCH  12  13
ATOM     13  C   UNL     1      -2.849  -2.780  -8.479  0.00  0.00    -0.010 A 
ATOM     14  C   UNL     1      -3.528  -3.974  -8.328  0.00  0.00    +0.007 A 
ATOM     15  C   UNL     1      -4.033  -4.626  -9.437  0.00  0.00    +0.000 A 
ATOM     16  C   UNL     1      -3.859  -4.085 -10.697  0.00  0.00    +0.000 A 
ATOM     17  C   UNL     1      -3.180  -2.890 -10.848  0.00  0.00    +0.000 A 
ATOM     18  C   UNL     1      -2.679  -2.235  -9.738  0.00  0.00    +0.007 A 
ENDBRANCH  12  13
ENDBRANCH  11  12
ENDBRANCH   9  11
ENDBRANCH   2   4
BRANCH   1  19
ATOM     19  C   UNL     1      -1.672   2.005  -2.009  0.00  0.00    +0.030 C 
ATOM     20  C   UNL     1      -0.774   1.926  -3.245  0.00  0.00    +0.031 C 
ATOM     21  C   UNL     1      -2.676   3.148  -2.179  0.00  0.00    +0.031 C 
ATOM     22  C   UNL     1      -0.812   2.262  -0.769  0.00  0.00    +0.031 C 
ENDBRANCH   1  19
BRANCH   1  23
ATOM     23  C   UNL     1      -2.092  -0.137  -0.714  0.00  0.00    +0.169 C 
BRANCH  23  24
ATOM     24  C   UNL     1      -1.464  -1.410  -1.218  0.00  0.00    +0.235 C 
ATOM     25  O   UNL     1      -1.596  -1.733  -2.380  0.00  0.00    -0.274 OA
ATOM     26  N   UNL     1      -0.755  -2.191  -0.378  0.00  0.00    -0.309 N 
ATOM     27  H   UNL     1      -0.709  -1.970   0.565  0.00  0.00    +0.149 HD
BRANCH  26  28
ATOM     28  C   UNL     1      -0.056  -3.372  -0.890  0.00  0.00    +0.026 C 
ATOM     29  C   UNL     1       0.960  -2.943  -1.950  0.00  0.00    +0.031 C 
ATOM     30  C   UNL     1       0.671  -4.072   0.260  0.00  0.00    +0.031 C 
ATOM     31  C   UNL     1      -1.069  -4.333  -1.514  0.00  0.00    +0.031 C 
ENDBRANCH  26  28
ENDBRANCH  23  24
BRANCH  23  33
ATOM     32  C   UNL     1      -3.057  -1.290   1.281  0.00  0.00    +0.015 C 
ATOM     33  C   UNL     1      -3.385  -0.467   0.034  0.00  0.00    +0.045 C 
BRANCH  33  34
ATOM     34  C   UNL     1      -4.070   0.812   0.442  0.00  0.00    -0.042 A 
ATOM     35  C   UNL     1      -3.426   1.704   1.279  0.00  0.00    +0.004 A 
ATOM     36  C   UNL     1      -4.055   2.877   1.653  0.00  0.00    +0.000 A 
ATOM     37  C   UNL     1      -5.327   3.158   1.191  0.00  0.00    +0.000 A 
ATOM     38  C   UNL     1      -5.970   2.266   0.354  0.00  0.00    +0.000 A 
ATOM     39  C   UNL     1      -5.340   1.095  -0.024  0.00  0.00    +0.004 A 
ENDBRANCH  33  34
ENDBRANCH  23  33
ENDBRANCH   1  23
TORSDOF 10
