REMARK  Name = ZINC61488427
REMARK  6 active torsions:
REMARK  status: ('A' for Active; 'I' for Inactive)
REMARK    1  A    between atoms: C_1  and  C_2
REMARK    2  A    between atoms: C_2  and  C_3
REMARK    3  A    between atoms: C_3  and  C_5
REMARK    4  A    between atoms: N_7  and  C_8
REMARK    5  A    between atoms: C_9  and  C_19
REMARK    6  A    between atoms: C_14  and  C_18
REMARK                            x       y       z     vdW  Elec       q    Type
REMARK                         _______ _______ _______ _____ _____    ______ ____
ROOT
ATOM      1  C   UNL     1       0.283  -4.013   2.512  0.00  0.00    +0.084 A 
ATOM      2  C   UNL     1      -0.011  -4.809   3.607  0.00  0.00    +0.068 A 
ATOM      3  C   UNL     1      -0.031  -6.247   3.397  0.00  0.00    -0.023 A 
ATOM      4  C   UNL     1       0.246  -6.624   2.131  0.00  0.00    -0.004 A 
ATOM      5  S   UNL     1       0.516  -5.108   1.260  0.00  0.00    -0.077 S 
ATOM      6  C   UNL     1       0.301  -8.023   1.600  0.00  0.00    +0.046 C 
ATOM      7  C   UNL     1      -0.375  -8.952   2.620  0.00  0.00    -0.009 C 
ATOM      8  C   UNL     1       0.174  -8.639   4.015  0.00  0.00    +0.008 C 
ATOM      9  C   UNL     1      -0.333  -7.272   4.480  0.00  0.00    +0.037 C 
ATOM     10  C   UNL     1      -0.075 -10.409   2.263  0.00  0.00    +0.008 C 
ENDROOT
BRANCH   2  11
ATOM     11  C   UNL     1      -0.290  -4.226   4.923  0.00  0.00    +0.244 C 
ATOM     12  O   UNL     1      -1.431  -3.934   5.230  0.00  0.00    -0.270 OA
ATOM     13  N   UNL     1       0.717  -4.012   5.793  0.00  0.00    -0.325 N 
ATOM     14  H   UNL     1       1.627  -4.244   5.548  0.00  0.00    +0.145 HD
ATOM     15  H   UNL     1       0.533  -3.626   6.663  0.00  0.00    +0.145 HD
ENDBRANCH   2  11
BRANCH   1  18
ATOM     16  C   UNL     1       0.657  -2.014   1.298  0.00  0.00    +0.231 C 
ATOM     17  O   UNL     1       0.854  -2.671   0.297  0.00  0.00    -0.274 OA
ATOM     18  N   UNL     1       0.362  -2.630   2.460  0.00  0.00    -0.278 N 
ATOM     19  H   UNL     1       0.204  -2.105   3.260  0.00  0.00    +0.155 HD
BRANCH  16  20
ATOM     20  C   UNL     1       0.742  -0.511   1.242  0.00  0.00    +0.142 C 
ATOM     21 BR   UNL     1       2.628   0.035   1.148  0.00  0.00    -0.078 Br
BRANCH  20  23
ATOM     22  C   UNL     1      -0.019   1.526   0.010  0.00  0.00    +0.005 C 
ATOM     23  C   UNL     1       0.002  -0.004   0.002  0.00  0.00    +0.021 C 
ENDBRANCH  20  23
ENDBRANCH  16  20
ENDBRANCH   1  18
TORSDOF 4
