REMARK  Name = ZINC38547928
REMARK  12 active torsions:
REMARK  status: ('A' for Active; 'I' for Inactive)
REMARK    1  A    between atoms: C_1  and  C_2
REMARK    2  A    between atoms: C_2  and  C_3
REMARK    3  A    between atoms: C_5  and  C_16
REMARK    4  A    between atoms: C_6  and  N_8
REMARK    5  A    between atoms: C_9  and  C_11
REMARK    6  A    between atoms: C_16  and  C_18
REMARK    7  A    between atoms: C_16  and  N_28
REMARK    8  A    between atoms: C_22  and  O_26
REMARK    9  A    between atoms: C_23  and  O_24
REMARK   10  A    between atoms: O_24  and  C_25
REMARK   11  A    between atoms: O_26  and  C_27
REMARK   12  A    between atoms: C_33  and  C_35
REMARK                            x       y       z     vdW  Elec       q    Type
REMARK                         _______ _______ _______ _____ _____    ______ ____
ROOT
ATOM      1  C   UNL     1      -4.585  -1.560  -1.931  0.00  0.00    +0.138 C 
ENDROOT
BRANCH   1   2
ATOM      2  N   UNL     1      -3.697  -1.773  -3.076  0.00  0.00    -0.319 N 
ATOM      3  C   UNL     1      -2.830  -0.765  -3.480  0.00  0.00    +0.097 A 
ATOM      4  C   UNL     1      -2.679   0.371  -2.691  0.00  0.00    +0.041 A 
ATOM      5  C   UNL     1      -1.813   1.367  -3.105  0.00  0.00    +0.005 A 
ATOM      6  C   UNL     1      -1.124   1.193  -4.299  0.00  0.00    +0.021 A 
ATOM      7  C   UNL     1      -1.323   0.040  -5.032  0.00  0.00    +0.014 A 
ATOM      8  N   UNL     1      -2.151  -0.896  -4.610  0.00  0.00    -0.347 N 
ATOM      9  C   UNL     1      -0.579  -0.154  -6.328  0.00  0.00    +0.063 C 
ATOM     10  H   UNL     1      -3.713  -2.618  -3.552  0.00  0.00    +0.148 HD
ATOM     11  H   UNL     1      -2.269  -1.698  -5.142  0.00  0.00    +0.167 HD
ENDBRANCH   1   2
BRANCH   1  12
ATOM     12  C   UNL     1      -5.455  -0.356  -2.187  0.00  0.00    +0.022 A 
ATOM     13  C   UNL     1      -5.224   0.822  -1.500  0.00  0.00    +0.009 A 
ATOM     14  C   UNL     1      -6.019   1.928  -1.732  0.00  0.00    +0.004 A 
ATOM     15  C   UNL     1      -7.049   1.862  -2.652  0.00  0.00    +0.049 A 
ATOM     16  C   UNL     1      -7.286   0.685  -3.344  0.00  0.00    +0.162 A 
ATOM     17  C   UNL     1      -6.481  -0.427  -3.114  0.00  0.00    +0.167 A 
BRANCH  17  18
ATOM     18  O   UNL     1      -6.706  -1.583  -3.794  0.00  0.00    -0.491 OA
ATOM     19  C   UNL     1      -7.695  -2.467  -3.263  0.00  0.00    +0.277 C 
ENDBRANCH  17  18
BRANCH  16  20
ATOM     20  O   UNL     1      -8.299   0.618  -4.248  0.00  0.00    -0.491 OA
ATOM     21  C   UNL     1      -9.080   1.800  -4.436  0.00  0.00    +0.277 C 
ENDBRANCH  16  20
ENDBRANCH   1  12
BRANCH   1  24
ATOM     22  C   UNL     1      -1.687  -1.355   0.435  0.00  0.00    -0.008 A 
ATOM     23  C   UNL     1      -2.399  -1.572  -0.696  0.00  0.00    +0.019 A 
ATOM     24  C   UNL     1      -3.761  -1.330  -0.691  0.00  0.00    +0.006 A 
ATOM     25  C   UNL     1      -4.343  -0.879   0.455  0.00  0.00    +0.078 A 
ATOM     26  S   UNL     1      -2.949  -0.796   1.568  0.00  0.00    -0.078 S 
BRANCH  25  27
ATOM     27  N   UNL     1      -5.682  -0.569   0.699  0.00  0.00    -0.273 N 
ATOM     28  C   UNL     1      -6.044  -0.020   1.876  0.00  0.00    +0.284 C 
ATOM     29  O   UNL     1      -5.194   0.287   2.691  0.00  0.00    -0.266 OA
ATOM     30  H   UNL     1      -6.352  -0.747   0.021  0.00  0.00    +0.156 HD
BRANCH  28  31
ATOM     31  C   UNL     1      -7.461   0.205   2.174  0.00  0.00    +0.189 A 
ATOM     32  C   UNL     1      -7.963   0.754   3.320  0.00  0.00    +0.054 A 
ATOM     33  C   UNL     1      -9.359   0.780   3.178  0.00  0.00    +0.042 A 
ATOM     34  C   UNL     1      -9.645   0.253   1.967  0.00  0.00    +0.196 A 
ATOM     35  O   UNL     1      -8.499  -0.088   1.363  0.00  0.00    -0.458 OA
ENDBRANCH  28  31
ENDBRANCH  25  27
BRANCH  22  37
ATOM     36  C   UNL     1       0.527  -0.242   0.354  0.00  0.00    +0.009 C 
ATOM     37  C   UNL     1      -0.212  -1.542   0.678  0.00  0.00    +0.039 C 
ENDBRANCH  22  37
ENDBRANCH   1  24
TORSDOF 8
