REMARK  Name = ZINC08794429
REMARK  9 active torsions:
REMARK  status: ('A' for Active; 'I' for Inactive)
REMARK    1  A    between atoms: C_1  and  C_2
REMARK    2  A    between atoms: C_5  and  C_33
REMARK    3  A    between atoms: C_6  and  N_8
REMARK    4  A    between atoms: C_9  and  C_11
REMARK    5  A    between atoms: C_11  and  S_12
REMARK    6  A    between atoms: S_12  and  C_13
REMARK    7  A    between atoms: C_19  and  C_21
REMARK    8  A    between atoms: C_21  and  O_22
REMARK    9  A    between atoms: O_22  and  C_23
REMARK                            x       y       z     vdW  Elec       q    Type
REMARK                         _______ _______ _______ _____ _____    ______ ____
ROOT
ATOM      1  C   UNL     1       2.946  14.332   0.077  0.00  0.00    +0.160 A 
ATOM      2  N   UNL     1       1.824  13.627   0.092  0.00  0.00    -0.133 NA
ATOM      3  N   UNL     1       1.830  12.366   0.095  0.00  0.00    -0.125 NA
ATOM      4  C   UNL     1       2.955  11.669   0.083  0.00  0.00    +0.189 A 
ATOM      5  S   UNL     1       4.147  13.005   0.073  0.00  0.00    -0.024 S 
ATOM      6  N   UNL     1       3.155  10.291   0.085  0.00  0.00    -0.260 N 
ATOM      7  C   UNL     1       2.097   9.457   0.100  0.00  0.00    +0.256 C 
ATOM      8  O   UNL     1       0.970   9.906   0.112  0.00  0.00    -0.272 OA
ATOM      9  H   UNL     1       4.056   9.932   0.075  0.00  0.00    +0.157 HD
ENDROOT
BRANCH   1  10
ATOM     10  S   UNL     1       3.186  16.078   0.070  0.00  0.00    -0.088 S 
BRANCH  10  11
ATOM     11  C   UNL     1       1.502  16.753   0.089  0.00  0.00    +0.172 C 
BRANCH  11  13
ATOM     12  N   UNL     1       0.425  18.980   0.097  0.00  0.00    -0.285 N 
ATOM     13  C   UNL     1       1.563  18.258   0.085  0.00  0.00    +0.227 C 
ATOM     14  O   UNL     1       2.638  18.821   0.071  0.00  0.00    -0.275 OA
ATOM     15  H   UNL     1      -0.433  18.533   0.028  0.00  0.00    +0.155 HD
BRANCH  12  21
ATOM     16  C   UNL     1       2.824  23.014   1.559  0.00  0.00    +0.044 C 
ATOM     17  C   UNL     1       1.632  22.355   0.914  0.00  0.00    -0.049 A 
ATOM     18  C   UNL     1       0.591  23.129   0.434  0.00  0.00    +0.004 A 
ATOM     19  C   UNL     1      -0.505  22.528  -0.158  0.00  0.00    +0.005 A 
ATOM     20  C   UNL     1      -0.563  21.152  -0.271  0.00  0.00    -0.029 A 
ATOM     21  C   UNL     1       0.481  20.373   0.210  0.00  0.00    +0.037 A 
ATOM     22  C   UNL     1       1.578  20.979   0.809  0.00  0.00    +0.027 A 
ATOM     23  C   UNL     1      -1.757  20.498  -0.916  0.00  0.00    +0.045 C 
ENDBRANCH  12  21
ENDBRANCH  11  13
ENDBRANCH  10  11
ENDBRANCH   1  10
BRANCH   7  24
ATOM     24  C   UNL     1       2.313   7.965   0.101  0.00  0.00    +0.324 C 
BRANCH  24  25
ATOM     25  O   UNL     1       1.048   7.301   0.118  0.00  0.00    -0.483 OA
BRANCH  25  26
ATOM     26  C   UNL     1       1.066   5.942   0.122  0.00  0.00    +0.122 A 
ATOM     27  C   UNL     1       2.291   5.267   0.110  0.00  0.00    +0.046 A 
ATOM     28  C   UNL     1       2.340   3.908   0.113  0.00  0.00    +0.012 A 
ATOM     29  C   UNL     1       1.146   3.167   0.129  0.00  0.00    -0.018 A 
ATOM     30  C   UNL     1       1.160   1.762   0.133  0.00  0.00    +0.008 A 
ATOM     31  C   UNL     1      -0.015   1.076   0.148  0.00  0.00    +0.001 A 
ATOM     32  C   UNL     1      -1.237   1.746   0.155  0.00  0.00    +0.001 A 
ATOM     33  C   UNL     1      -1.290   3.106   0.157  0.00  0.00    +0.008 A 
ATOM     34  C   UNL     1      -0.097   3.849   0.142  0.00  0.00    -0.014 A 
ATOM     35  C   UNL     1      -0.114   5.253   0.138  0.00  0.00    +0.054 A 
ENDBRANCH  25  26
ENDBRANCH  24  25
ENDBRANCH   7  24
TORSDOF 7
