REMARK  Name = ZINC35646479
REMARK  10 active torsions:
REMARK  status: ('A' for Active; 'I' for Inactive)
REMARK    1  A    between atoms: C_1  and  C_2
REMARK    2  A    between atoms: C_2  and  N_3
REMARK    3  A    between atoms: C_4  and  C_23
REMARK    4  A    between atoms: C_5  and  C_18
REMARK    5  A    between atoms: C_6  and  C_11
REMARK    6  A    between atoms: C_18  and  O_20
REMARK    7  A    between atoms: O_20  and  C_21
REMARK    8  A    between atoms: C_21  and  C_22
REMARK    9  A    between atoms: C_23  and  N_24
REMARK   10  A    between atoms: C_31  and  C_33
REMARK                            x       y       z     vdW  Elec       q    Type
REMARK                         _______ _______ _______ _____ _____    ______ ____
ROOT
ATOM      1  N   UNL     1       1.309  -0.069  -1.091  0.00  0.00    -0.261 N 
ATOM      2  C   UNL     1       0.525  -0.650  -2.046  0.00  0.00    +0.010 C 
ATOM      3  C   UNL     1       1.067  -1.386  -3.040  0.00  0.00    +0.077 C 
ATOM      4  C   UNL     1       2.574  -1.545  -3.058  0.00  0.00    +0.145 C 
ATOM      5  N   UNL     1       3.329  -0.878  -1.983  0.00  0.00    -0.288 N 
ATOM      6  C   UNL     1       2.644  -0.172  -1.062  0.00  0.00    +0.307 C 
ATOM      7  O   UNL     1       3.257   0.385  -0.173  0.00  0.00    -0.252 OA
ATOM      8  H   UNL     1       4.295  -0.943  -1.941  0.00  0.00    +0.151 HD
ENDROOT
BRANCH   4   9
ATOM      9  C   UNL     1       3.081  -1.018  -4.376  0.00  0.00    -0.004 A 
ATOM     10  C   UNL     1       3.502   0.295  -4.480  0.00  0.00    +0.007 A 
ATOM     11  C   UNL     1       3.967   0.778  -5.688  0.00  0.00    +0.000 A 
ATOM     12  C   UNL     1       4.011  -0.051  -6.794  0.00  0.00    +0.001 A 
ATOM     13  C   UNL     1       3.591  -1.363  -6.691  0.00  0.00    +0.020 A 
ATOM     14  C   UNL     1       3.131  -1.849  -5.480  0.00  0.00    +0.046 A 
ATOM     15 CL   UNL     1       2.608  -3.500  -5.349  0.00  0.00    -0.083 Cl
ENDBRANCH   4   9
BRANCH   1  17
ATOM     16  C   UNL     1       0.646   2.194  -0.441  0.00  0.00    +0.025 C 
ATOM     17  C   UNL     1       0.653   0.717  -0.042  0.00  0.00    +0.111 C 
ENDBRANCH   1  17
BRANCH   3  18
ATOM     18  C   UNL     1       0.257  -1.989  -4.029  0.00  0.00    +0.339 C 
ATOM     19  O   UNL     1      -0.086  -3.151  -3.910  0.00  0.00    -0.245 OA
BRANCH  18  20
ATOM     20  O   UNL     1      -0.137  -1.276  -5.106  0.00  0.00    -0.462 OA
BRANCH  20  21
ATOM     21  C   UNL     1      -1.044  -1.912  -6.008  0.00  0.00    +0.229 C 
ATOM     22  C   UNL     1      -1.277  -1.006  -7.219  0.00  0.00    +0.048 C 
ENDBRANCH  20  21
ENDBRANCH  18  20
ENDBRANCH   3  18
BRANCH   2  23
ATOM     23  C   UNL     1      -0.970  -0.466  -1.991  0.00  0.00    -0.026 C 
BRANCH  23  24
ATOM     24  N   UNL     1      -1.582  -1.631  -1.338  0.00  0.00    +0.384 N 
ATOM     25  C   UNL     1      -3.029  -1.562  -1.534  0.00  0.00    -0.077 C 
ATOM     26  C   UNL     1      -3.597  -2.963  -1.555  0.00  0.00    +0.000 C 
ATOM     27  C   UNL     1      -4.062  -3.349  -0.139  0.00  0.00    +0.106 C 
ATOM     28  N   UNL     1      -3.112  -2.864   0.882  0.00  0.00    -0.297 N 
ATOM     29  C   UNL     1      -1.676  -2.941   0.704  0.00  0.00    +0.089 C 
ATOM     30  C   UNL     1      -1.164  -1.658   0.011  0.00  0.00    -0.059 C 
ATOM     31  C   UNL     1      -3.598  -2.330   2.020  0.00  0.00    +0.282 C 
ATOM     32  O   UNL     1      -4.795  -2.345   2.236  0.00  0.00    -0.267 OA
ATOM     33  H   UNL     1      -1.241  -2.465  -1.794  0.00  0.00    -0.081 HD
BRANCH  31  34
ATOM     34  C   UNL     1      -2.683  -1.732   2.999  0.00  0.00    +0.189 A 
ATOM     35  C   UNL     1      -3.025  -1.267   4.236  0.00  0.00    +0.054 A 
ATOM     36  C   UNL     1      -1.846  -0.785   4.825  0.00  0.00    +0.042 A 
ATOM     37  C   UNL     1      -0.849  -0.974   3.933  0.00  0.00    +0.196 A 
ATOM     38  O   UNL     1      -1.357  -1.550   2.836  0.00  0.00    -0.458 OA
ENDBRANCH  31  34
ENDBRANCH  23  24
ENDBRANCH   2  23
TORSDOF 8
