REMARK  Name = ZINC58949518
REMARK  10 active torsions:
REMARK  status: ('A' for Active; 'I' for Inactive)
REMARK    1  A    between atoms: C_1  and  C_2
REMARK    2  A    between atoms: C_2  and  N_3
REMARK    3  A    between atoms: N_3  and  C_4
REMARK    4  A    between atoms: N_3  and  C_6
REMARK    5  A    between atoms: C_4  and  C_5
REMARK    6  A    between atoms: C_9  and  C_12
REMARK    7  A    between atoms: C_14  and  C_24
REMARK    8  A    between atoms: C_15  and  C_23
REMARK    9  A    between atoms: C_17  and  N_22
REMARK   10  A    between atoms: C_18  and  C_19
REMARK                            x       y       z     vdW  Elec       q    Type
REMARK                         _______ _______ _______ _____ _____    ______ ____
ROOT
ATOM      1  C   UNL     1       0.180  -5.985  -1.828  0.00  0.00    +0.097 C 
ATOM      2  C   UNL     1      -1.230  -6.487  -1.682  0.00  0.00    +0.064 C 
ATOM      3  C   UNL     1      -1.959  -6.827  -2.751  0.00  0.00    +0.113 C 
ATOM      4  O   UNL     1      -1.474  -6.738  -4.000  0.00  0.00    -0.446 OA
ATOM      5  C   UNL     1      -0.145  -6.667  -4.199  0.00  0.00    +0.193 C 
ATOM      6  C   UNL     1       0.700  -6.313  -3.201  0.00  0.00    +0.083 C 
ATOM      7  C   UNL     1      -3.367  -7.324  -2.547  0.00  0.00    +0.087 C 
ENDROOT
BRANCH   1  11
ATOM      8  C   UNL     1       0.247  -1.752  -1.260  0.00  0.00    +0.013 A 
ATOM      9  C   UNL     1       0.979  -2.574  -0.422  0.00  0.00    +0.022 A 
ATOM     10  C   UNL     1       0.957  -3.943  -0.606  0.00  0.00    +0.006 A 
ATOM     11  C   UNL     1       0.203  -4.492  -1.627  0.00  0.00    -0.035 A 
ATOM     12  C   UNL     1      -0.529  -3.671  -2.463  0.00  0.00    +0.006 A 
ATOM     13  C   UNL     1      -0.511  -2.301  -2.277  0.00  0.00    +0.022 A 
BRANCH   8  14
ATOM     14  N   UNL     1       0.269  -0.367  -1.074  0.00  0.00    -0.394 NA
ATOM     15  H   UNL     1      -0.320   0.075  -1.765  0.00  0.00    +0.126 HD
BRANCH  14  17
ATOM     16  C   UNL     1      -1.703  -0.440   0.377  0.00  0.00    +0.022 C 
ATOM     17  C   UNL     1      -0.229  -0.045   0.270  0.00  0.00    +0.081 C 
ENDBRANCH  14  17
BRANCH  14  18
ATOM     18  C   UNL     1       1.646   0.125  -1.217  0.00  0.00    +0.081 C 
ATOM     19  C   UNL     1       2.123  -0.108  -2.652  0.00  0.00    +0.022 C 
ENDBRANCH  14  18
ENDBRANCH   8  14
ENDBRANCH   1  11
BRANCH   6  20
ATOM     20  C   UNL     1       2.082  -6.251  -3.454  0.00  0.00    +0.243 C 
ATOM     21  O   UNL     1       2.807  -7.167  -3.107  0.00  0.00    -0.271 OA
ATOM     22  N   UNL     1       2.604  -5.178  -4.082  0.00  0.00    -0.325 N 
ATOM     23  H   UNL     1       2.027  -4.449  -4.359  0.00  0.00    +0.145 HD
ATOM     24  H   UNL     1       3.557  -5.136  -4.256  0.00  0.00    +0.145 HD
ENDBRANCH   6  20
BRANCH   2  25
ATOM     25  C   UNL     1      -1.815  -6.607  -0.347  0.00  0.00    +0.242 C 
ATOM     26  O   UNL     1      -1.491  -7.529   0.379  0.00  0.00    -0.271 OA
ATOM     27  N   UNL     1      -2.712  -5.697   0.079  0.00  0.00    -0.325 N 
ATOM     28  H   UNL     1      -2.970  -4.962  -0.499  0.00  0.00    +0.145 HD
ATOM     29  H   UNL     1      -3.100  -5.776   0.965  0.00  0.00    +0.145 HD
ENDBRANCH   2  25
BRANCH   5  30
ATOM     30  N   UNL     1       0.363  -6.959  -5.437  0.00  0.00    -0.329 N 
ATOM     31  H   UNL     1      -0.237  -7.138  -6.178  0.00  0.00    +0.145 HD
ATOM     32  H   UNL     1       1.323  -6.987  -5.573  0.00  0.00    +0.145 HD
ENDBRANCH   5  30
TORSDOF 7
