REMARK  Name = ZINC21810868
REMARK  9 active torsions:
REMARK  status: ('A' for Active; 'I' for Inactive)
REMARK    1  A    between atoms: C_1  and  C_2
REMARK    2  A    between atoms: C_11  and  C_25
REMARK    3  A    between atoms: C_11  and  C_26
REMARK    4  A    between atoms: N_12  and  C_15
REMARK    5  A    between atoms: C_15  and  C_16
REMARK    6  A    between atoms: C_16  and  N_17
REMARK    7  A    between atoms: N_17  and  C_18
REMARK    8  A    between atoms: N_17  and  C_19
REMARK    9  A    between atoms: N_28  and  C_29
REMARK                            x       y       z     vdW  Elec       q    Type
REMARK                         _______ _______ _______ _____ _____    ______ ____
ROOT
ATOM      1  C   UNL     1      -3.833   3.174  -8.161  0.00  0.00    +0.086 C 
ATOM      2  C   UNL     1      -3.379   2.676  -6.813  0.00  0.00    +0.105 A 
ATOM      3  C   UNL     1      -2.299   3.116  -6.146  0.00  0.00    +0.071 A 
ATOM      4  C   UNL     1      -2.231   2.392  -4.931  0.00  0.00    +0.088 A 
ATOM      5  C   UNL     1      -3.323   1.524  -4.937  0.00  0.00    +0.154 A 
ATOM      6  O   UNL     1      -3.992   1.722  -6.092  0.00  0.00    -0.458 OA
ATOM      7  C   UNL     1      -3.289   0.793  -3.740  0.00  0.00    +0.079 A 
ATOM      8  C   UNL     1      -2.204   1.216  -3.032  0.00  0.00    +0.109 A 
ATOM      9  N   UNL     1      -1.545   2.196  -3.771  0.00  0.00    -0.331 N 
ATOM     10  C   UNL     1      -0.319   2.834  -3.281  0.00  0.00    +0.157 C 
ATOM     11  C   UNL     1      -0.341   2.857  -1.753  0.00  0.00    +0.128 C 
ATOM     12  N   UNL     1      -0.721   1.571  -1.179  0.00  0.00    -0.282 N 
ATOM     13  C   UNL     1      -1.705   0.810  -1.713  0.00  0.00    +0.264 C 
ATOM     14  O   UNL     1      -2.156  -0.158  -1.129  0.00  0.00    -0.268 OA
ATOM     15  C   UNL     1       1.052   3.232  -1.246  0.00  0.00    +0.043 C 
ENDROOT
BRANCH  11  16
ATOM     16  C   UNL     1      -1.324   3.904  -1.296  0.00  0.00    +0.238 C 
ATOM     17  O   UNL     1      -0.946   5.035  -1.078  0.00  0.00    -0.273 OA
ATOM     18  N   UNL     1      -2.622   3.583  -1.129  0.00  0.00    -0.311 N 
ATOM     19  H   UNL     1      -2.965   2.556  -1.326  0.00  0.00    +0.149 HD
BRANCH  18  20
ATOM     20  C   UNL     1      -3.577   4.601  -0.684  0.00  0.00    +0.073 C 
ATOM     21  C   UNL     1      -3.554   4.689   0.843  0.00  0.00    +0.022 C 
ATOM     22  C   UNL     1      -4.551   5.752   1.308  0.00  0.00    +0.002 C 
ATOM     23  C   UNL     1      -5.958   5.371   0.840  0.00  0.00    +0.000 C 
ATOM     24  C   UNL     1      -5.981   5.283  -0.687  0.00  0.00    +0.002 C 
ATOM     25  C   UNL     1      -4.983   4.220  -1.152  0.00  0.00    +0.022 C 
ENDBRANCH  18  20
ENDBRANCH  11  16
BRANCH  12  26
ATOM     26  C   UNL     1      -0.013   1.086   0.008  0.00  0.00    +0.091 C 
BRANCH  26  27
ATOM     27  C   UNL     1      -0.729   1.579   1.267  0.00  0.00    -0.060 C 
BRANCH  27  28
ATOM     28  N   UNL     1      -0.018   1.093   2.457  0.00  0.00    +0.381 N 
ATOM     29  C   UNL     1      -0.102  -0.370   2.558  0.00  0.00    -0.096 C 
ATOM     30  H   UNL     1       1.042   1.364   2.352  0.00  0.00    -0.082 HD
BRANCH  28  31
ATOM     31  C   UNL     1      -0.530   1.735   3.675  0.00  0.00    -0.069 C 
ATOM     32  C   UNL     1      -0.337   3.249   3.573  0.00  0.00    -0.015 C 
ATOM     33  C   UNL     1      -0.870   3.918   4.842  0.00  0.00    -0.002 C 
ATOM     34  C   UNL     1      -0.108   3.387   6.057  0.00  0.00    -0.000 C 
ATOM     35  C   UNL     1      -0.301   1.872   6.159  0.00  0.00    -0.002 C 
ATOM     36  C   UNL     1       0.232   1.204   4.891  0.00  0.00    -0.015 C 
ENDBRANCH  28  31
ENDBRANCH  27  28
ENDBRANCH  26  27
ENDBRANCH  12  26
TORSDOF 6
