REMARK  Name = ZINC09244169
REMARK  16 active torsions:
REMARK  status: ('A' for Active; 'I' for Inactive)
REMARK    1  A    between atoms: C_1  and  C_2
REMARK    2  A    between atoms: C_2  and  N_68
REMARK    3  A    between atoms: C_3  and  C_4
REMARK    4  A    between atoms: C_3  and  N_68
REMARK    5  A    between atoms: C_5  and  C_6
REMARK    6  A    between atoms: C_5  and  N_68
REMARK    7  A    between atoms: C_6  and  N_7
REMARK    8  A    between atoms: C_8  and  C_28
REMARK    9  A    between atoms: C_11  and  C_12
REMARK   10  A    between atoms: C_11  and  O_23
REMARK   11  A    between atoms: C_15  and  O_18
REMARK   12  A    between atoms: O_18  and  C_19
REMARK   13  A    between atoms: C_19  and  C_20
REMARK   14  A    between atoms: C_20  and  C_21
REMARK   15  A    between atoms: C_20  and  C_22
REMARK   16  A    between atoms: C_31  and  O_34
REMARK                            x       y       z     vdW  Elec       q    Type
REMARK                         _______ _______ _______ _____ _____    ______ ____
ROOT
ATOM      1  N   UNL     1      -0.363   1.984   5.872  0.00  0.00    -0.285 N 
ATOM      2  C   UNL     1      -0.925   1.150   6.939  0.00  0.00    +0.144 C 
ATOM      3  C   UNL     1      -1.103   2.049   8.141  0.00  0.00    +0.071 C 
ATOM      4  C   UNL     1      -1.605   1.691   9.378  0.00  0.00    +0.133 C 
ATOM      5  C   UNL     1      -0.658   3.320   7.748  0.00  0.00    +0.249 C 
ATOM      6  O   UNL     1      -0.643   4.318   8.445  0.00  0.00    -0.282 OA
ATOM      7  C   UNL     1      -0.202   3.235   6.335  0.00  0.00    +0.288 C 
ATOM      8  O   UNL     1       0.247   4.162   5.692  0.00  0.00    -0.266 OA
ENDROOT
BRANCH   4   9
ATOM      9  C   UNL     1      -1.601   2.663  10.482  0.00  0.00    +0.017 A 
ATOM     10  C   UNL     1      -0.438   3.382  10.781  0.00  0.00    +0.015 A 
ATOM     11  C   UNL     1      -0.442   4.294  11.812  0.00  0.00    +0.046 A 
ATOM     12  C   UNL     1      -1.595   4.494  12.563  0.00  0.00    +0.121 A 
ATOM     13  C   UNL     1      -2.752   3.777  12.274  0.00  0.00    +0.046 A 
ATOM     14  C   UNL     1      -2.760   2.867  11.242  0.00  0.00    +0.015 A 
BRANCH  12  15
ATOM     15  O   UNL     1      -1.592   5.390  13.582  0.00  0.00    -0.492 OA
BRANCH  15  16
ATOM     16  C   UNL     1      -0.371   6.091  13.825  0.00  0.00    +0.232 C 
BRANCH  16  17
ATOM     17  C   UNL     1      -0.559   7.050  15.002  0.00  0.00    +0.020 C 
ATOM     18  C   UNL     1       0.779   7.709  15.342  0.00  0.00    +0.010 C 
ATOM     19  C   UNL     1      -1.577   8.128  14.623  0.00  0.00    +0.010 C 
ENDBRANCH  16  17
ENDBRANCH  15  16
ENDBRANCH  12  15
ENDBRANCH   4   9
BRANCH   2  20
ATOM     20  C   UNL     1       0.024   0.027   7.271  0.00  0.00    -0.022 A 
ATOM     21  C   UNL     1       1.386   0.262   7.307  0.00  0.00    +0.009 A 
ATOM     22  C   UNL     1       2.257  -0.764   7.616  0.00  0.00    +0.046 A 
ATOM     23  C   UNL     1       1.765  -2.034   7.879  0.00  0.00    +0.117 A 
ATOM     24  C   UNL     1       0.399  -2.269   7.837  0.00  0.00    +0.046 A 
ATOM     25  C   UNL     1      -0.469  -1.238   7.533  0.00  0.00    +0.009 A 
BRANCH  23  26
ATOM     26  O   UNL     1       2.621  -3.047   8.179  0.00  0.00    -0.507 OA
ATOM     27  H   UNL     1       2.929  -3.542   7.408  0.00  0.00    +0.292 HD
ENDBRANCH  23  26
ENDBRANCH   2  20
BRANCH   4  28
ATOM     28  O   UNL     1      -2.098   0.449   9.573  0.00  0.00    -0.506 OA
ATOM     29  H   UNL     1      -2.416   0.361  10.517  0.00  0.00    +0.292 HD
ENDBRANCH   4  28
BRANCH   1  30
ATOM     30  C   UNL     1      -0.026   1.525   4.523  0.00  0.00    +0.090 C 
BRANCH  30  31
ATOM     31  C   UNL     1      -1.241   1.694   3.608  0.00  0.00    -0.060 C 
BRANCH  31  32
ATOM     32  N   UNL     1      -0.878   1.247   2.246  0.00  0.00    +0.380 N 
ATOM     33  H   UNL     1      -0.014   1.721   1.959  0.00  0.00    -0.082 HD
BRANCH  32  35
ATOM     34  C   UNL     1      -1.857   3.088   0.971  0.00  0.00    -0.017 C 
ATOM     35  C   UNL     1      -1.956   1.597   1.297  0.00  0.00    -0.082 C 
ENDBRANCH  32  35
BRANCH  32  36
ATOM     36  C   UNL     1      -0.651  -0.213   2.238  0.00  0.00    -0.082 C 
ATOM     37  C   UNL     1       0.156  -0.577   0.990  0.00  0.00    -0.017 C 
ENDBRANCH  32  36
ENDBRANCH  31  32
ENDBRANCH  30  31
ENDBRANCH   1  30
TORSDOF 12
