REMARK  Name = ZINC14274384
REMARK  7 active torsions:
REMARK  status: ('A' for Active; 'I' for Inactive)
REMARK    1  A    between atoms: C_3  and  N_28
REMARK    2  A    between atoms: C_4  and  N_25
REMARK    3  A    between atoms: C_6  and  C_7
REMARK    4  A    between atoms: N_9  and  C_10
REMARK    5  A    between atoms: C_10  and  N_12
REMARK    6  A    between atoms: N_12  and  C_13
REMARK    7  A    between atoms: C_14  and  C_22
REMARK                            x       y       z     vdW  Elec       q    Type
REMARK                         _______ _______ _______ _____ _____    ______ ____
ROOT
ATOM      1  C   UNL     1      -2.849   2.139   8.016  0.00  0.00    +0.250 C 
ATOM      2  O   UNL     1      -3.544   3.062   7.640  0.00  0.00    -0.270 OA
ATOM      3  N   UNL     1      -2.072   1.477   7.136  0.00  0.00    -0.264 N 
ATOM      4  H   UNL     1      -1.517   0.741   7.436  0.00  0.00    +0.157 HD
ENDROOT
BRANCH   1  10
ATOM      5  C   UNL     1      -2.061   0.676   9.870  0.00  0.00    +0.015 A 
ATOM      6  C   UNL     1      -2.067   0.315  11.198  0.00  0.00    +0.026 A 
ATOM      7  C   UNL     1      -2.871   1.002  12.102  0.00  0.00    +0.060 A 
ATOM      8  C   UNL     1      -3.666   2.060  11.667  0.00  0.00    +0.148 A 
ATOM      9  C   UNL     1      -3.660   2.427  10.351  0.00  0.00    +0.047 A 
ATOM     10  C   UNL     1      -2.855   1.742   9.436  0.00  0.00    +0.039 A 
BRANCH   7  11
ATOM     11  N   UNL     1      -2.881   0.633  13.442  0.00  0.00    -0.328 N 
ATOM     12  C   UNL     1      -1.565   0.849  14.057  0.00  0.00    +0.105 C 
ATOM     13  C   UNL     1      -1.651   0.571  15.560  0.00  0.00    +0.019 C 
ATOM     14  C   UNL     1      -2.108  -0.873  15.782  0.00  0.00    +0.003 C 
ATOM     15  C   UNL     1      -3.458  -1.085  15.090  0.00  0.00    +0.019 C 
ATOM     16  C   UNL     1      -3.320  -0.759  13.601  0.00  0.00    +0.105 C 
ENDBRANCH   7  11
BRANCH   8  17
ATOM     17  N   UNL     1      -4.520   2.787  12.633  0.00  0.00    +0.058 N 
ATOM     18  O   UNL     1      -5.217   3.712  12.254  0.00  0.00    -0.126 OA
ATOM     19  O   UNL     1      -4.527   2.461  13.806  0.00  0.00    -0.126 OA
ENDBRANCH   8  17
ENDBRANCH   1  10
BRANCH   3  20
ATOM     20  C   UNL     1      -2.066   1.840   5.837  0.00  0.00    +0.141 C 
ATOM     21  S   UNL     1      -3.045   3.140   5.307  0.00  0.00    -0.018 S 
BRANCH  20  22
ATOM     22  N   UNL     1      -1.289   1.179   4.957  0.00  0.00    -0.291 N 
ATOM     23  H   UNL     1      -0.735   0.442   5.257  0.00  0.00    +0.154 HD
BRANCH  22  24
ATOM     24  C   UNL     1      -1.283   1.551   3.622  0.00  0.00    +0.084 A 
ATOM     25  C   UNL     1      -0.558   0.998   2.575  0.00  0.00    +0.068 A 
ATOM     26  C   UNL     1      -0.732   1.580   1.257  0.00  0.00    -0.023 A 
ATOM     27  C   UNL     1      -1.601   2.615   1.194  0.00  0.00    -0.004 A 
ATOM     28  S   UNL     1      -2.179   2.821   2.855  0.00  0.00    -0.077 S 
ATOM     29  C   UNL     1      -1.979   3.405  -0.021  0.00  0.00    +0.043 C 
ATOM     30  C   UNL     1      -0.956   3.111  -1.127  0.00  0.00    +0.005 C 
ATOM     31  C   UNL     1      -0.758   1.595  -1.227  0.00  0.00    +0.005 C 
ATOM     32  C   UNL     1      -0.013   1.086   0.008  0.00  0.00    +0.037 C 
BRANCH  25  33
ATOM     33  C   UNL     1       0.350  -0.131   2.793  0.00  0.00    +0.244 C 
ATOM     34  O   UNL     1      -0.062  -1.272   2.693  0.00  0.00    -0.270 OA
ATOM     35  N   UNL     1       1.642   0.094   3.105  0.00  0.00    -0.325 N 
ATOM     36  H   UNL     1       1.970   1.003   3.185  0.00  0.00    +0.145 HD
ATOM     37  H   UNL     1       2.244  -0.653   3.249  0.00  0.00    +0.145 HD
ENDBRANCH  25  33
ENDBRANCH  22  24
ENDBRANCH  20  22
ENDBRANCH   3  20
TORSDOF 7
