REMARK  Name = ZINC37317588
REMARK  5 active torsions:
REMARK  status: ('A' for Active; 'I' for Inactive)
REMARK    1  A    between atoms: C_1  and  C_2
REMARK    2  A    between atoms: C_2  and  C_4
REMARK    3  A    between atoms: C_2  and  N_10
REMARK    4  A    between atoms: N_10  and  C_11
REMARK    5  A    between atoms: C_15  and  N_17
REMARK                            x       y       z     vdW  Elec       q    Type
REMARK                         _______ _______ _______ _____ _____    ______ ____
ROOT
ATOM      1  C   UNL     1       0.022  -0.436  -2.452  0.00  0.00    +0.029 A 
ATOM      2  C   UNL     1      -1.360  -0.280  -2.450  0.00  0.00    +0.023 A 
ATOM      3  C   UNL     1      -2.091  -0.581  -3.583  0.00  0.00    +0.004 A 
ATOM      4  C   UNL     1      -1.453  -1.037  -4.720  0.00  0.00    +0.023 A 
ATOM      5  C   UNL     1      -0.073  -1.194  -4.729  0.00  0.00    +0.037 A 
ATOM      6  C   UNL     1       0.666  -0.888  -3.595  0.00  0.00    +0.046 A 
ENDROOT
BRANCH   5   7
ATOM      7  N   UNL     1       0.573  -1.657  -5.881  0.00  0.00    -0.270 N 
ATOM      8  C   UNL     1       1.676  -2.423  -5.774  0.00  0.00    +0.301 C 
ATOM      9  O   UNL     1       2.056  -2.792  -4.680  0.00  0.00    -0.253 OA
ATOM     10  N   UNL     1       2.359  -2.779  -6.880  0.00  0.00    -0.313 N 
ATOM     11  H   UNL     1       0.225  -1.426  -6.757  0.00  0.00    +0.156 HD
ATOM     12  H   UNL     1       2.056  -2.484  -7.753  0.00  0.00    +0.146 HD
ATOM     13  H   UNL     1       3.154  -3.330  -6.803  0.00  0.00    +0.146 HD
ENDBRANCH   5   7
BRANCH   1  14
ATOM     14  N   UNL     1       0.761  -0.131  -1.307  0.00  0.00    -0.337 N 
ATOM     15  H   UNL     1       1.725  -0.236  -1.310  0.00  0.00    +0.147 HD
BRANCH  14  17
ATOM     16  C   UNL     1      -0.122   1.860  -0.194  0.00  0.00    +0.033 C 
ATOM     17  C   UNL     1       0.080   0.346  -0.101  0.00  0.00    +0.105 C 
BRANCH  17  18
ATOM     18  C   UNL     1       0.918   0.025   1.110  0.00  0.00    +0.024 A 
ATOM     19  C   UNL     1       0.535  -0.505   2.297  0.00  0.00    +0.030 A 
ATOM     20  C   UNL     1       1.488  -0.716   3.276  0.00  0.00    +0.023 A 
ATOM     21  C   UNL     1       2.778  -0.386   3.019  0.00  0.00    +0.046 A 
ATOM     22  S   UNL     1       2.674   0.237   1.350  0.00  0.00    -0.099 S 
ATOM     23 BR   UNL     1      -1.277  -0.949   2.611  0.00  0.00    -0.049 Br
ENDBRANCH  17  18
ENDBRANCH  14  17
ENDBRANCH   1  14
TORSDOF 4
