REMARK  Name = ZINC21526060
REMARK  10 active torsions:
REMARK  status: ('A' for Active; 'I' for Inactive)
REMARK    1  A    between atoms: C_1  and  C_2
REMARK    2  A    between atoms: C_2  and  C_3
REMARK    3  A    between atoms: C_12  and  C_27
REMARK    4  A    between atoms: C_12  and  C_28
REMARK    5  A    between atoms: N_13  and  C_16
REMARK    6  A    between atoms: C_16  and  C_17
REMARK    7  A    between atoms: C_17  and  C_18
REMARK    8  A    between atoms: C_18  and  N_19
REMARK    9  A    between atoms: C_24  and  C_26
REMARK   10  A    between atoms: N_30  and  C_31
REMARK                            x       y       z     vdW  Elec       q    Type
REMARK                         _______ _______ _______ _____ _____    ______ ____
ROOT
ATOM      1  C   UNL     1     -12.220   0.642   4.153  0.00  0.00    -0.008 A 
ATOM      2  C   UNL     1     -10.907   0.785   3.876  0.00  0.00    +0.037 A 
ATOM      3  C   UNL     1     -10.369   0.236   2.703  0.00  0.00    +0.057 A 
ATOM      4  C   UNL     1     -11.278  -0.448   1.882  0.00  0.00    +0.038 A 
ATOM      5  S   UNL     1     -12.814  -0.296   2.756  0.00  0.00    -0.092 S 
ATOM      6  C   UNL     1     -10.614  -0.942   0.765  0.00  0.00    +0.048 A 
ATOM      7  C   UNL     1      -9.305  -0.584   0.884  0.00  0.00    +0.106 A 
ATOM      8  N   UNL     1      -9.150   0.149   2.056  0.00  0.00    -0.333 N 
ATOM      9  C   UNL     1      -7.856   0.711   2.452  0.00  0.00    +0.157 C 
ATOM     10  C   UNL     1      -6.738  -0.175   1.900  0.00  0.00    +0.128 C 
ATOM     11  N   UNL     1      -6.938  -0.521   0.498  0.00  0.00    -0.281 N 
ATOM     12  C   UNL     1      -8.158  -0.838   0.003  0.00  0.00    +0.264 C 
ATOM     13  O   UNL     1      -8.296  -1.308  -1.111  0.00  0.00    -0.268 OA
ATOM     14  C   UNL     1      -6.679  -1.463   2.724  0.00  0.00    +0.043 C 
ENDROOT
BRANCH  10  15
ATOM     15  C   UNL     1      -5.426   0.553   2.040  0.00  0.00    +0.238 C 
ATOM     16  O   UNL     1      -4.640   0.226   2.904  0.00  0.00    -0.273 OA
ATOM     17  N   UNL     1      -5.126   1.567   1.205  0.00  0.00    -0.311 N 
ATOM     18  H   UNL     1      -5.862   1.902   0.459  0.00  0.00    +0.149 HD
BRANCH  17  19
ATOM     19  C   UNL     1      -3.819   2.223   1.289  0.00  0.00    +0.073 C 
ATOM     20  C   UNL     1      -3.927   3.647   0.741  0.00  0.00    +0.022 C 
ATOM     21  C   UNL     1      -2.562   4.333   0.829  0.00  0.00    +0.002 C 
ATOM     22  C   UNL     1      -1.541   3.545   0.005  0.00  0.00    +0.000 C 
ATOM     23  C   UNL     1      -1.433   2.121   0.554  0.00  0.00    +0.002 C 
ATOM     24  C   UNL     1      -2.798   1.435   0.466  0.00  0.00    +0.022 C 
ENDBRANCH  17  19
ENDBRANCH  10  15
BRANCH   1  26
ATOM     25  C   UNL     1     -13.534   2.546   5.044  0.00  0.00    +0.009 C 
ATOM     26  C   UNL     1     -12.991   1.148   5.345  0.00  0.00    +0.039 C 
ENDBRANCH   1  26
BRANCH  11  27
ATOM     27  C   UNL     1      -5.784  -0.527  -0.403  0.00  0.00    +0.107 C 
BRANCH  27  28
ATOM     28  C   UNL     1      -5.070  -1.877  -0.310  0.00  0.00    +0.000 C 
BRANCH  28  29
ATOM     29  C   UNL     1      -3.823  -1.857  -1.197  0.00  0.00    -0.077 C 
BRANCH  29  30
ATOM     30  N   UNL     1      -3.183  -3.179  -1.171  0.00  0.00    +0.381 N 
ATOM     31  C   UNL     1      -4.052  -4.196  -1.777  0.00  0.00    -0.078 C 
ATOM     32  C   UNL     1      -3.419  -5.579  -1.603  0.00  0.00    -0.019 C 
ATOM     33  C   UNL     1      -2.042  -5.592  -2.273  0.00  0.00    -0.003 C 
ATOM     34  C   UNL     1      -1.173  -4.492  -1.657  0.00  0.00    -0.016 C 
ATOM     35  C   UNL     1      -1.871  -3.141  -1.829  0.00  0.00    -0.072 C 
ATOM     36  C   UNL     1      -1.015  -2.041  -1.198  0.00  0.00    -0.013 C 
ATOM     37  H   UNL     1      -3.022  -3.458  -0.119  0.00  0.00    -0.081 HD
ENDBRANCH  29  30
ENDBRANCH  28  29
ENDBRANCH  27  28
ENDBRANCH  11  27
TORSDOF 7
