REMARK  Name = ZINC65582930
REMARK  9 active torsions:
REMARK  status: ('A' for Active; 'I' for Inactive)
REMARK    1  A    between atoms: C_1  and  C_2
REMARK    2  A    between atoms: C_2  and  C_3
REMARK    3  A    between atoms: C_3  and  C_4
REMARK    4  A    between atoms: C_4  and  C_5
REMARK    5  A    between atoms: C_5  and  C_6
REMARK    6  A    between atoms: C_5  and  N_26
REMARK    7  A    between atoms: C_11  and  C_14
REMARK    8  A    between atoms: C_23  and  C_24
REMARK    9  A    between atoms: C_24  and  C_25
REMARK                            x       y       z     vdW  Elec       q    Type
REMARK                         _______ _______ _______ _____ _____    ______ ____
ROOT
ATOM      1  C   UNL     1      -2.831  -4.094  -0.117  0.00  0.00    +0.236 C 
ATOM      2  O   UNL     1      -2.965  -4.791   0.867  0.00  0.00    -0.274 OA
ATOM      3  N   UNL     1      -2.666  -4.662  -1.328  0.00  0.00    -0.296 N 
ATOM      4  C   UNL     1      -2.650  -6.126  -1.492  0.00  0.00    +0.113 C 
ATOM      5  C   UNL     1      -3.830  -6.513  -2.387  0.00  0.00    +0.054 C 
ATOM      6  C   UNL     1      -3.905  -5.604  -3.577  0.00  0.00    -0.039 C 
ATOM      7  C   UNL     1      -3.326  -4.427  -3.647  0.00  0.00    -0.004 C 
ATOM      8  C   UNL     1      -2.501  -3.846  -2.539  0.00  0.00    +0.135 C 
ENDROOT
BRANCH   6   9
ATOM      9  C   UNL     1      -4.679  -6.062  -4.747  0.00  0.00    +0.003 A 
ATOM     10  C   UNL     1      -4.305  -7.005  -5.648  0.00  0.00    +0.091 A 
ATOM     11  N   UNL     1      -5.282  -7.158  -6.588  0.00  0.00    -0.360 N 
ATOM     12  H   UNL     1      -5.243  -7.775  -7.335  0.00  0.00    +0.165 HD
ATOM     13  C   UNL     1      -6.334  -6.307  -6.323  0.00  0.00    +0.050 A 
ATOM     14  C   UNL     1      -6.011  -5.588  -5.160  0.00  0.00    +0.007 A 
ATOM     15  C   UNL     1      -6.905  -4.649  -4.649  0.00  0.00    +0.010 A 
ATOM     16  C   UNL     1      -8.106  -4.433  -5.288  0.00  0.00    +0.001 A 
ATOM     17  C   UNL     1      -8.428  -5.145  -6.435  0.00  0.00    +0.005 A 
ATOM     18  C   UNL     1      -7.550  -6.070  -6.956  0.00  0.00    -0.024 A 
BRANCH  18  19
ATOM     19  C   UNL     1      -7.915  -6.838  -8.201  0.00  0.00    +0.034 C 
ATOM     20  C   UNL     1      -8.547  -8.175  -7.810  0.00  0.00    +0.009 C 
ENDBRANCH  18  19
ENDBRANCH   6   9
BRANCH   1  21
ATOM     21  C   UNL     1      -2.848  -2.593   0.015  0.00  0.00    +0.161 C 
BRANCH  21  22
ATOM     22  N   UNL     1      -3.496  -2.221   1.275  0.00  0.00    -0.288 N 
ATOM     23  C   UNL     1      -2.984  -2.645   2.448  0.00  0.00    +0.298 C 
ATOM     24  O   UNL     1      -1.984  -3.337   2.459  0.00  0.00    -0.253 OA
ATOM     25  N   UNL     1      -3.580  -2.303   3.607  0.00  0.00    -0.313 N 
ATOM     26  H   UNL     1      -4.294  -1.670   1.266  0.00  0.00    +0.151 HD
ATOM     27  H   UNL     1      -4.378  -1.752   3.598  0.00  0.00    +0.146 HD
ATOM     28  H   UNL     1      -3.211  -2.608   4.450  0.00  0.00    +0.146 HD
ENDBRANCH  21  22
BRANCH  21  29
ATOM     29  C   UNL     1      -1.413  -2.063   0.004  0.00  0.00    +0.032 C 
BRANCH  29  30
ATOM     30  C   UNL     1      -1.433  -0.534   0.013  0.00  0.00    +0.002 C 
BRANCH  30  32
ATOM     31  C   UNL     1      -0.019   1.526   0.010  0.00  0.00    +0.004 C 
ATOM     32  C   UNL     1       0.002  -0.004   0.002  0.00  0.00    -0.003 C 
ENDBRANCH  30  32
ENDBRANCH  29  30
ENDBRANCH  21  29
ENDBRANCH   1  21
TORSDOF 7
