REMARK  Name = ZINC39599042
REMARK  11 active torsions:
REMARK  status: ('A' for Active; 'I' for Inactive)
REMARK    1  A    between atoms: C_1  and  O_2
REMARK    2  A    between atoms: O_2  and  C_3
REMARK    3  A    between atoms: C_9  and  C_12
REMARK    4  A    between atoms: C_12  and  C_13
REMARK    5  A    between atoms: C_13  and  N_14
REMARK    6  A    between atoms: C_15  and  C_17
REMARK    7  A    between atoms: C_28  and  C_30
REMARK    8  A    between atoms: C_33  and  O_38
REMARK    9  A    between atoms: C_35  and  O_36
REMARK   10  A    between atoms: O_36  and  C_37
REMARK   11  A    between atoms: O_38  and  C_39
REMARK                            x       y       z     vdW  Elec       q    Type
REMARK                         _______ _______ _______ _____ _____    ______ ____
ROOT
ATOM      1  C   UNL     1       0.709  -8.463   2.545  0.00  0.00    +0.100 C 
ATOM      2  C   UNL     1      -0.075  -9.726   2.128  0.00  0.00    +0.121 C 
ATOM      3  N   UNL     1       0.494 -10.812   2.960  0.00  0.00    -0.296 N 
ATOM      4  C   UNL     1       0.713 -10.185   4.285  0.00  0.00    +0.115 C 
ATOM      5  C   UNL     1       1.224  -8.767   3.962  0.00  0.00    -0.004 C 
ATOM      6  C   UNL     1       0.656  -7.761   4.958  0.00  0.00    -0.010 C 
ATOM      7  C   UNL     1       1.228  -8.049   6.349  0.00  0.00    -0.082 C 
ATOM      8  N   UNL     1       2.692  -7.952   6.308  0.00  0.00    +0.379 N 
ATOM      9  C   UNL     1       3.236  -8.985   5.418  0.00  0.00    -0.082 C 
ATOM     10  C   UNL     1       2.749  -8.737   3.987  0.00  0.00    -0.010 C 
ATOM     11  C   UNL     1       0.754 -12.083   2.595  0.00  0.00    +0.250 C 
ATOM     12  O   UNL     1       0.610 -12.425   1.436  0.00  0.00    -0.270 OA
ATOM     13  H   UNL     1       2.958  -7.041   5.966  0.00  0.00    -0.086 HD
ATOM     14  H   UNL     1       3.062  -8.082   7.237  0.00  0.00    -0.086 HD
ENDROOT
BRANCH  11  15
ATOM     15  C   UNL     1       1.213 -13.059   3.598  0.00  0.00    +0.079 A 
ATOM     16  C   UNL     1       0.730 -12.997   4.910  0.00  0.00    +0.020 A 
ATOM     17  C   UNL     1       1.160 -13.910   5.844  0.00  0.00    +0.046 A 
ATOM     18  C   UNL     1       2.076 -14.897   5.490  0.00  0.00    +0.124 A 
ATOM     19  C   UNL     1       2.562 -14.967   4.193  0.00  0.00    +0.092 A 
ATOM     20  C   UNL     1       2.131 -14.057   3.242  0.00  0.00    +0.136 A 
BRANCH  20  21
ATOM     21  O   UNL     1       2.601 -14.128   1.971  0.00  0.00    -0.494 OA
ATOM     22  C   UNL     1       3.534 -15.171   1.681  0.00  0.00    +0.277 C 
ENDBRANCH  20  21
BRANCH  18  23
ATOM     23  O   UNL     1       2.496 -15.793   6.418  0.00  0.00    -0.495 OA
ATOM     24  C   UNL     1       1.957 -15.665   7.735  0.00  0.00    +0.277 C 
ENDBRANCH  18  23
ENDBRANCH  11  15
BRANCH   1  26
ATOM     25  N   UNL     1       0.319  -6.021   2.488  0.00  0.00    -0.315 N 
ATOM     26  C   UNL     1      -0.201  -7.262   2.564  0.00  0.00    +0.218 C 
ATOM     27  O   UNL     1      -1.402  -7.413   2.648  0.00  0.00    -0.275 OA
ATOM     28  H   UNL     1       1.279  -5.900   2.421  0.00  0.00    +0.149 HD
BRANCH  25  29
ATOM     29  C   UNL     1      -0.567  -4.854   2.507  0.00  0.00    +0.109 C 
BRANCH  29  30
ATOM     30  C   UNL     1       0.271  -3.577   2.408  0.00  0.00    +0.056 C 
BRANCH  30  37
ATOM     31  C   UNL     1      -1.686  -1.079   5.876  0.00  0.00    +0.121 A 
ATOM     32  C   UNL     1      -2.472  -0.032   5.404  0.00  0.00    +0.047 A 
ATOM     33  C   UNL     1      -2.612   0.186   4.051  0.00  0.00    +0.030 A 
ATOM     34  C   UNL     1      -1.965  -0.645   3.143  0.00  0.00    +0.047 A 
ATOM     35  N   UNL     1      -1.912  -0.682   1.765  0.00  0.00    -0.360 N 
ATOM     36  C   UNL     1      -1.119  -1.720   1.359  0.00  0.00    +0.087 A 
ATOM     37  C   UNL     1      -0.640  -2.376   2.428  0.00  0.00    -0.021 A 
ATOM     38  C   UNL     1      -1.170  -1.704   3.617  0.00  0.00    +0.006 A 
ATOM     39  C   UNL     1      -1.031  -1.912   4.990  0.00  0.00    +0.056 A 
ATOM     40  H   UNL     1      -2.370  -0.066   1.173  0.00  0.00    +0.165 HD
BRANCH  31  42
ATOM     41  C   UNL     1      -2.257  -0.378   8.076  0.00  0.00    +0.277 C 
ATOM     42  O   UNL     1      -1.558  -1.280   7.215  0.00  0.00    -0.495 OA
ENDBRANCH  31  42
ENDBRANCH  30  37
ENDBRANCH  29  30
ENDBRANCH  25  29
ENDBRANCH   1  26
TORSDOF 8
