REMARK  Name = ZINC08813510
REMARK  9 active torsions:
REMARK  status: ('A' for Active; 'I' for Inactive)
REMARK    1  A    between atoms: C_6  and  N_7
REMARK    2  A    between atoms: C_12  and  C_13
REMARK    3  A    between atoms: C_12  and  N_62
REMARK    4  A    between atoms: C_13  and  C_14
REMARK    5  A    between atoms: C_14  and  N_15
REMARK    6  A    between atoms: C_16  and  C_18
REMARK    7  A    between atoms: C_21  and  C_23
REMARK    8  A    between atoms: C_23  and  S_24
REMARK    9  A    between atoms: S_24  and  C_27
REMARK                            x       y       z     vdW  Elec       q    Type
REMARK                         _______ _______ _______ _____ _____    ______ ____
ROOT
ATOM      1  N   UNL     1       4.222  -7.402  -2.192  0.00  0.00    -0.309 N 
ATOM      2  C   UNL     1       2.889  -7.601  -2.195  0.00  0.00    +0.279 C 
ATOM      3  O   UNL     1       2.443  -8.729  -2.287  0.00  0.00    -0.267 OA
ATOM      4  H   UNL     1       4.578  -6.502  -2.118  0.00  0.00    +0.149 HD
ENDROOT
BRANCH   2   5
ATOM      5  C   UNL     1       1.977  -6.458  -2.088  0.00  0.00    +0.189 A 
ATOM      6  C   UNL     1       0.613  -6.519  -2.079  0.00  0.00    +0.055 A 
ATOM      7  C   UNL     1       0.151  -5.199  -1.956  0.00  0.00    +0.047 A 
ATOM      8  C   UNL     1       1.240  -4.400  -1.905  0.00  0.00    +0.127 A 
ATOM      9  O   UNL     1       2.338  -5.162  -1.981  0.00  0.00    -0.453 OA
BRANCH   8  10
ATOM     10  C   UNL     1       1.221  -2.898  -1.777  0.00  0.00    +0.245 C 
BRANCH  10  11
ATOM     11  S   UNL     1       1.231  -2.441  -0.022  0.00  0.00    +0.004 S 
ATOM     12  O   UNL     1       2.476  -2.790   0.568  0.00  0.00    -0.169 OA
ATOM     13  O   UNL     1       0.007  -2.823   0.591  0.00  0.00    -0.169 OA
BRANCH  11  14
ATOM     14  C   UNL     1       1.208  -0.679  -0.013  0.00  0.00    +0.089 A 
ATOM     15  C   UNL     1       0.002  -0.004   0.002  0.00  0.00    +0.028 A 
ATOM     16  C   UNL     1      -0.017   1.378   0.010  0.00  0.00    +0.022 A 
ATOM     17  C   UNL     1       1.172   2.086   0.002  0.00  0.00    +0.041 A 
ATOM     18  C   UNL     1       2.379   1.409  -0.013  0.00  0.00    +0.022 A 
ATOM     19  C   UNL     1       2.397   0.027  -0.021  0.00  0.00    +0.028 A 
ATOM     20 CL   UNL     1       1.149   3.821   0.011  0.00  0.00    -0.084 Cl
ENDBRANCH  11  14
ENDBRANCH  10  11
ENDBRANCH   8  10
ENDBRANCH   2   5
BRANCH   1  21
ATOM     21  C   UNL     1       5.134  -8.543  -2.299  0.00  0.00    +0.103 C 
BRANCH  21  22
ATOM     22  C   UNL     1       6.580  -8.046  -2.271  0.00  0.00    +0.000 C 
BRANCH  22  23
ATOM     23  C   UNL     1       7.533  -9.238  -2.383  0.00  0.00    -0.077 C 
BRANCH  23  29
ATOM     24  N   UNL     1      11.593  -8.537  -3.313  0.00  0.00    -0.333 N 
ATOM     25  C   UNL     1      11.289  -9.337  -2.119  0.00  0.00    +0.086 C 
ATOM     26  C   UNL     1       9.862  -9.881  -2.223  0.00  0.00    -0.060 C 
ATOM     27  C   UNL     1       9.226  -7.960  -3.551  0.00  0.00    -0.060 C 
ATOM     28  C   UNL     1      10.653  -7.416  -3.447  0.00  0.00    +0.086 C 
ATOM     29  N   UNL     1       8.925  -8.743  -2.334  0.00  0.00    +0.382 N 
ATOM     30  H   UNL     1       9.036  -8.139  -1.512  0.00  0.00    -0.082 HD
BRANCH  24  36
ATOM     31  C   UNL     1      13.740  -8.402  -2.217  0.00  0.00    +0.026 A 
ATOM     32  C   UNL     1      15.047  -7.955  -2.197  0.00  0.00    +0.040 A 
ATOM     33  C   UNL     1      15.532  -7.181  -3.237  0.00  0.00    +0.124 A 
ATOM     34  C   UNL     1      14.709  -6.856  -4.303  0.00  0.00    +0.040 A 
ATOM     35  C   UNL     1      13.403  -7.305  -4.330  0.00  0.00    +0.026 A 
ATOM     36  C   UNL     1      12.915  -8.082  -3.288  0.00  0.00    +0.030 A 
ATOM     37  F   UNL     1      16.809  -6.741  -3.212  0.00  0.00    -0.205 F 
ENDBRANCH  24  36
ENDBRANCH  23  29
ENDBRANCH  22  23
ENDBRANCH  21  22
ENDBRANCH   1  21
TORSDOF 9
