REMARK  Name = ZINC64354685
REMARK  4 active torsions:
REMARK  status: ('A' for Active; 'I' for Inactive)
REMARK    1  A    between atoms: C_3  and  N_11
REMARK    2  A    between atoms: C_6  and  C_7
REMARK    3  A    between atoms: C_7  and  C_8
REMARK    4  A    between atoms: C_12  and  C_14
REMARK                            x       y       z     vdW  Elec       q    Type
REMARK                         _______ _______ _______ _____ _____    ______ ____
ROOT
ATOM      1  N   UNL     1       3.583   2.123  -0.021  0.00  0.00    -0.281 N 
ATOM      2  C   UNL     1       4.758   1.467   0.066  0.00  0.00    +0.250 C 
ATOM      3  O   UNL     1       4.777   0.250   0.060  0.00  0.00    -0.270 OA
ATOM      4  H   UNL     1       3.572   3.091  -0.084  0.00  0.00    +0.155 HD
ENDROOT
BRANCH   2   5
ATOM      5  C   UNL     1       6.014   2.221   0.168  0.00  0.00    +0.062 A 
ATOM      6  C   UNL     1       6.153   3.577   0.193  0.00  0.00    +0.096 A 
ATOM      7  N   UNL     1       7.464   3.902   0.295  0.00  0.00    -0.360 N 
ATOM      8  H   UNL     1       7.809   4.808   0.332  0.00  0.00    +0.165 HD
ATOM      9  C   UNL     1       8.241   2.762   0.341  0.00  0.00    +0.049 A 
ATOM     10  C   UNL     1       7.374   1.659   0.270  0.00  0.00    +0.012 A 
ATOM     11  C   UNL     1       7.886   0.365   0.301  0.00  0.00    +0.012 A 
ATOM     12  C   UNL     1       9.247   0.172   0.405  0.00  0.00    +0.021 A 
ATOM     13  C   UNL     1      10.105   1.260   0.479  0.00  0.00    +0.043 A 
ATOM     14  C   UNL     1       9.611   2.548   0.442  0.00  0.00    +0.046 A 
ATOM     15 CL   UNL     1      11.816   0.999   0.610  0.00  0.00    -0.083 Cl
ENDBRANCH   2   5
BRANCH   1  18
ATOM     16  C   UNL     1       0.070   1.232   0.593  0.00  0.00    +0.006 A 
ATOM     17  C   UNL     1       1.256   1.940   0.595  0.00  0.00    +0.023 A 
ATOM     18  C   UNL     1       2.381   1.408  -0.021  0.00  0.00    +0.034 A 
ATOM     19  C   UNL     1       2.310   0.166  -0.637  0.00  0.00    +0.023 A 
ATOM     20  C   UNL     1       1.122  -0.537  -0.635  0.00  0.00    +0.006 A 
ATOM     21  C   UNL     1       0.003  -0.005  -0.021  0.00  0.00    -0.039 A 
BRANCH  21  22
ATOM     22  C   UNL     1      -1.293  -0.775  -0.022  0.00  0.00    +0.130 C 
BRANCH  22  23
ATOM     23  C   UNL     1      -2.096  -0.406  -1.242  0.00  0.00    +0.215 C 
ATOM     24  O   UNL     1      -1.660   0.403  -2.034  0.00  0.00    -0.276 OA
ATOM     25  N   UNL     1      -3.300  -0.974  -1.454  0.00  0.00    -0.329 N 
ATOM     26  H   UNL     1      -3.649  -1.621  -0.821  0.00  0.00    +0.145 HD
ATOM     27  H   UNL     1      -3.817  -0.737  -2.239  0.00  0.00    +0.145 HD
ENDBRANCH  22  23
ENDBRANCH  21  22
ENDBRANCH   1  18
TORSDOF 4
