REMARK  Name = ZINC31056690
REMARK  10 active torsions:
REMARK  status: ('A' for Active; 'I' for Inactive)
REMARK    1  A    between atoms: C_1  and  C_2
REMARK    2  A    between atoms: C_2  and  C_3
REMARK    3  A    between atoms: C_3  and  C_5
REMARK    4  A    between atoms: C_3  and  N_6
REMARK    5  A    between atoms: C_7  and  C_9
REMARK    6  A    between atoms: C_14  and  N_15
REMARK    7  A    between atoms: C_16  and  C_18
REMARK    8  A    between atoms: N_23  and  C_25
REMARK    9  A    between atoms: C_25  and  C_26
REMARK   10  A    between atoms: C_28  and  C_31
REMARK                            x       y       z     vdW  Elec       q    Type
REMARK                         _______ _______ _______ _____ _____    ______ ____
ROOT
ATOM      1  N   UNL     1       2.445   5.336   2.971  0.00  0.00    -0.285 N 
ATOM      2  C   UNL     1       3.373   6.065   3.622  0.00  0.00    +0.219 C 
ATOM      3  O   UNL     1       3.215   7.258   3.767  0.00  0.00    -0.275 OA
ATOM      4  H   UNL     1       2.545   4.242   2.914  0.00  0.00    +0.155 HD
ENDROOT
BRANCH   2   5
ATOM      5  C   UNL     1       4.608   5.396   4.169  0.00  0.00    +0.059 C 
ATOM      6  C   UNL     1       4.202   4.328   5.188  0.00  0.00    +0.009 C 
ATOM      7  C   UNL     1       5.463   3.696   5.783  0.00  0.00    -0.018 C 
ATOM      8  C   UNL     1       6.322   4.788   6.423  0.00  0.00    -0.078 C 
ATOM      9  N   UNL     1       6.685   5.785   5.408  0.00  0.00    +0.386 N 
ATOM     10  C   UNL     1       5.492   6.440   4.856  0.00  0.00    -0.065 C 
ATOM     11  H   UNL     1       7.189   5.258   4.585  0.00  0.00    -0.081 HD
BRANCH   9  12
ATOM     12  C   UNL     1       7.623   6.775   5.954  0.00  0.00    +0.022 C 
BRANCH  12  13
ATOM     13  C   UNL     1       8.929   6.101   6.285  0.00  0.00    +0.211 A 
ATOM     14  N   UNL     1       9.952   5.952   5.481  0.00  0.00    -0.192 NA
ATOM     15  C   UNL     1      10.891   5.297   6.205  0.00  0.00    +0.209 A 
ATOM     16  N   UNL     1      10.381   5.082   7.393  0.00  0.00    -0.056 NA
ATOM     17  O   UNL     1       9.258   5.537   7.452  0.00  0.00    -0.340 OA
BRANCH  15  18
ATOM     18  C   UNL     1      12.235   4.896   5.741  0.00  0.00    +0.060 A 
ATOM     19  C   UNL     1      13.222   4.235   6.423  0.00  0.00    +0.019 A 
ATOM     20  C   UNL     1      14.405   3.962   5.775  0.00  0.00    +0.008 A 
ATOM     21  C   UNL     1      14.563   4.364   4.487  0.00  0.00    +0.046 A 
ATOM     22  S   UNL     1      12.997   5.152   4.147  0.00  0.00    -0.093 S 
ENDBRANCH  15  18
ENDBRANCH  12  13
ENDBRANCH   9  12
ENDBRANCH   2   5
BRANCH   1  28
ATOM     23  C   UNL     1       0.104   5.341   2.344  0.00  0.00    +0.058 A 
ATOM     24  C   UNL     1      -0.978   5.988   1.743  0.00  0.00    +0.015 A 
ATOM     25  C   UNL     1      -0.807   7.232   1.177  0.00  0.00    +0.001 A 
ATOM     26  C   UNL     1       0.435   7.847   1.200  0.00  0.00    +0.002 A 
ATOM     27  C   UNL     1       1.514   7.220   1.789  0.00  0.00    +0.024 A 
ATOM     28  C   UNL     1       1.359   5.968   2.370  0.00  0.00    +0.046 A 
BRANCH  23  30
ATOM     29  N   UNL     1      -1.299   3.456   3.020  0.00  0.00    -0.309 N 
ATOM     30  C   UNL     1      -0.072   4.009   2.952  0.00  0.00    +0.246 C 
ATOM     31  O   UNL     1       0.890   3.409   3.393  0.00  0.00    -0.270 OA
ATOM     32  H   UNL     1      -2.169   3.998   2.621  0.00  0.00    +0.149 HD
BRANCH  29  33
ATOM     33  C   UNL     1      -1.475   2.133   3.624  0.00  0.00    +0.070 C 
ATOM     34  C   UNL     1      -1.206   1.053   2.574  0.00  0.00    +0.028 C 
BRANCH  33  36
ATOM     35  C   UNL     1      -3.136   2.993   5.280  0.00  0.00    +0.005 C 
ATOM     36  C   UNL     1      -2.907   1.995   4.143  0.00  0.00    +0.018 C 
ENDBRANCH  33  36
ENDBRANCH  29  33
ENDBRANCH  23  30
ENDBRANCH   1  28
TORSDOF 8
