REMARK  Name = ZINC08845162
REMARK  8 active torsions:
REMARK  status: ('A' for Active; 'I' for Inactive)
REMARK    1  A    between atoms: C_1  and  C_2
REMARK    2  A    between atoms: C_4  and  C_35
REMARK    3  A    between atoms: C_5  and  O_34
REMARK    4  A    between atoms: C_6  and  C_8
REMARK    5  A    between atoms: N_16  and  C_26
REMARK    6  A    between atoms: C_17  and  C_19
REMARK    7  A    between atoms: C_23  and  O_25
REMARK    8  A    between atoms: C_26  and  C_27
REMARK                            x       y       z     vdW  Elec       q    Type
REMARK                         _______ _______ _______ _____ _____    ______ ____
ROOT
ATOM      1  C   UNL     1       0.243  -3.075   2.679  0.00  0.00    +0.102 A 
ATOM      2  C   UNL     1       0.232  -2.380   3.893  0.00  0.00    +0.035 A 
ATOM      3  C   UNL     1       0.178  -3.347   4.879  0.00  0.00    +0.126 A 
ATOM      4  N   UNL     1       0.159  -4.549   4.231  0.00  0.00    -0.272 N 
ATOM      5  H   UNL     1       0.122  -5.416   4.666  0.00  0.00    +0.189 HD
ATOM      6  N   UNL     1       0.193  -4.362   2.960  0.00  0.00    -0.173 NA
ATOM      7  C   UNL     1       0.164  -2.680   6.186  0.00  0.00    +0.266 C 
ATOM      8  O   UNL     1       0.119  -3.253   7.258  0.00  0.00    -0.268 OA
ATOM      9  N   UNL     1       0.207  -1.344   6.031  0.00  0.00    -0.281 N 
ATOM     10  C   UNL     1       0.253  -1.049   4.593  0.00  0.00    +0.142 C 
ENDROOT
BRANCH   1  16
ATOM     11  C   UNL     1      -1.383   0.310  -0.610  0.00  0.00    +0.044 C 
ATOM     12  C   UNL     1      -0.483  -0.847  -0.262  0.00  0.00    -0.049 A 
ATOM     13  C   UNL     1       0.391  -1.350  -1.209  0.00  0.00    +0.010 A 
ATOM     14  C   UNL     1       1.220  -2.411  -0.899  0.00  0.00    -0.008 A 
ATOM     15  C   UNL     1       1.178  -2.979   0.364  0.00  0.00    +0.129 A 
ATOM     16  C   UNL     1       0.295  -2.473   1.323  0.00  0.00    +0.044 A 
ATOM     17  C   UNL     1      -0.531  -1.399   1.002  0.00  0.00    +0.017 A 
ATOM     18  C   UNL     1       2.170  -2.953  -1.936  0.00  0.00    +0.047 C 
BRANCH  15  19
ATOM     19  O   UNL     1       1.992  -4.023   0.670  0.00  0.00    -0.506 OA
ATOM     20  H   UNL     1       2.849  -3.760   1.033  0.00  0.00    +0.292 HD
ENDBRANCH  15  19
ENDBRANCH   1  16
BRANCH  10  21
ATOM     21  C   UNL     1       1.520  -0.306   4.256  0.00  0.00    -0.019 A 
ATOM     22  C   UNL     1       2.740  -0.785   4.698  0.00  0.00    +0.006 A 
ATOM     23  C   UNL     1       3.904  -0.106   4.391  0.00  0.00    +0.004 A 
ATOM     24  C   UNL     1       3.852   1.054   3.643  0.00  0.00    +0.045 A 
ATOM     25  C   UNL     1       2.630   1.537   3.198  0.00  0.00    +0.117 A 
ATOM     26  C   UNL     1       1.463   0.850   3.503  0.00  0.00    +0.051 A 
BRANCH  25  27
ATOM     27  O   UNL     1       2.575   2.678   2.462  0.00  0.00    -0.507 OA
ATOM     28  H   UNL     1       2.642   2.534   1.508  0.00  0.00    +0.292 HD
ENDBRANCH  25  27
ENDBRANCH  10  21
BRANCH   9  29
ATOM     29  C   UNL     1       0.209  -0.354   7.111  0.00  0.00    +0.144 C 
BRANCH  29  30
ATOM     30  C   UNL     1       1.629  -0.057   7.517  0.00  0.00    -0.030 A 
ATOM     31  C   UNL     1       2.236  -0.806   8.508  0.00  0.00    +0.008 A 
ATOM     32  C   UNL     1       3.538  -0.534   8.881  0.00  0.00    +0.038 A 
ATOM     33  C   UNL     1       4.236   0.489   8.262  0.00  0.00    +0.123 A 
ATOM     34  C   UNL     1       3.627   1.239   7.270  0.00  0.00    +0.038 A 
ATOM     35  C   UNL     1       2.326   0.962   6.895  0.00  0.00    +0.008 A 
ATOM     36  F   UNL     1       5.509   0.756   8.627  0.00  0.00    -0.205 F 
ENDBRANCH  29  30
ENDBRANCH   9  29
TORSDOF 6
