REMARK  Name = ZINC40486928
REMARK  3 active torsions:
REMARK  status: ('A' for Active; 'I' for Inactive)
REMARK    1  A    between atoms: C_8  and  C_12
REMARK    2  A    between atoms: CG_16  and  OD_24
REMARK    3  A    between atoms: CA_19  and  C_21
REMARK                            x       y       z     vdW  Elec       q    Type
REMARK                         _______ _______ _______ _____ _____    ______ ____
ROOT
ATOM      1  C   UNK A   1       2.586  -4.234   0.117  0.00  0.00    +0.234 C 
ATOM      2  O   UNK A   1       3.121  -4.668  -0.881  0.00  0.00    -0.274 OA
ATOM      3  N   HYP A   2       2.025  -5.080   1.004  0.00  0.00    -0.284 N 
ATOM      4  CD  HYP A   2       1.340  -4.689   2.250  0.00  0.00    +0.140 C 
ATOM      5  CG  HYP A   2       1.442  -5.934   3.166  0.00  0.00    +0.134 C 
ATOM      6  CB  HYP A   2       1.276  -7.089   2.142  0.00  0.00    +0.067 C 
ATOM      7  CA  HYP A   2       1.990  -6.545   0.886  0.00  0.00    +0.192 C 
ENDROOT
BRANCH   1  15
ATOM      8  C   UNK A   0      -0.017   1.376   0.010  0.00  0.00    +0.000 A 
ATOM      9  C   UNK A   0       1.173   2.080   0.002  0.00  0.00    +0.000 A 
ATOM     10  C   UNK A   0       2.374   1.400  -0.011  0.00  0.00    +0.005 A 
ATOM     11  C   UNK A   0       2.395   0.013  -0.018  0.00  0.00    -0.030 A 
ATOM     12  C   UNK A   0       1.208  -0.688  -0.014  0.00  0.00    -0.041 A 
ATOM     13  C   UNK A   0       0.002  -0.004   0.002  0.00  0.00    +0.004 A 
ATOM     14  C   UNK A   1       1.180  -2.195  -0.033  0.00  0.00    +0.063 C 
ATOM     15  C   UNK A   1       2.548  -2.748   0.366  0.00  0.00    +0.145 C 
ATOM     16  N   UNK A   1       3.577  -2.081  -0.447  0.00  0.00    -0.301 NA
ATOM     17  C   UNK A   0       3.730  -0.684  -0.026  0.00  0.00    +0.117 C 
ATOM     18  H   UNK A   1       4.456  -2.573  -0.393  0.00  0.00    +0.123 HD
ENDBRANCH   1  15
BRANCH   7  19
ATOM     19  C   HYP A   2       1.228  -6.942  -0.352  0.00  0.00    +0.376 C 
ATOM     20  O   HYP A   2       1.240  -8.101  -0.729  0.00  0.00    -0.244 OA
ATOM     21  OXT HYP A   2       0.601  -6.103  -0.976  0.00  0.00    -0.244 OA
ENDBRANCH   7  19
BRANCH   5  22
ATOM     22  OD  HYP A   2       0.387  -5.949   4.130  0.00  0.00    -0.390 OA
ATOM     23  HD  HYP A   2       0.394  -5.191   4.731  0.00  0.00    +0.210 HD
ENDBRANCH   5  22
TORSDOF 3
