REMARK  Name = ZINC46286814
REMARK  7 active torsions:
REMARK  status: ('A' for Active; 'I' for Inactive)
REMARK    1  A    between atoms: C_1  and  N_2
REMARK    2  A    between atoms: N_2  and  C_3
REMARK    3  A    between atoms: C_7  and  C_10
REMARK    4  A    between atoms: C_10  and  N_11
REMARK    5  A    between atoms: N_14  and  N_15
REMARK    6  A    between atoms: C_16  and  C_18
REMARK    7  A    between atoms: C_18  and  C_19
REMARK                            x       y       z     vdW  Elec       q    Type
REMARK                         _______ _______ _______ _____ _____    ______ ____
ROOT
ATOM      1  N   UNL     1      -1.389  -2.939  -5.351  0.00  0.00    -0.294 N 
ATOM      2  C   UNL     1      -1.637  -3.548  -6.528  0.00  0.00    +0.316 C 
ATOM      3  O   UNL     1      -0.715  -3.901  -7.236  0.00  0.00    -0.251 OA
ATOM      4  N   UNL     1      -2.909  -3.766  -6.918  0.00  0.00    -0.218 N 
ATOM      5  H   UNL     1      -2.125  -2.658  -4.786  0.00  0.00    +0.151 HD
ATOM      6  H   UNL     1      -3.087  -4.205  -7.765  0.00  0.00    +0.174 HD
ENDROOT
BRANCH   4   7
ATOM      7  N   UNL     1      -3.972  -3.360  -6.101  0.00  0.00    -0.233 N 
ATOM      8  C   UNL     1      -5.243  -3.578  -6.492  0.00  0.00    +0.234 C 
ATOM      9  O   UNL     1      -5.467  -4.126  -7.551  0.00  0.00    -0.274 OA
ATOM     10  H   UNL     1      -3.793  -2.921  -5.255  0.00  0.00    +0.173 HD
BRANCH   8  11
ATOM     11  C   UNL     1      -6.387  -3.141  -5.614  0.00  0.00    +0.134 C 
BRANCH  11  12
ATOM     12  C   UNL     1      -7.693  -3.499  -6.274  0.00  0.00    -0.014 A 
ATOM     13  C   UNL     1      -8.442  -2.698  -7.049  0.00  0.00    +0.087 A 
ATOM     14  N   UNL     1      -9.559  -3.367  -7.471  0.00  0.00    -0.360 N 
ATOM     15  H   UNL     1     -10.249  -2.995  -8.041  0.00  0.00    +0.165 HD
ATOM     16  C   UNL     1      -9.555  -4.648  -6.965  0.00  0.00    +0.047 A 
ATOM     17  C   UNL     1      -8.383  -4.789  -6.199  0.00  0.00    +0.003 A 
ATOM     18  C   UNL     1      -8.108  -6.000  -5.563  0.00  0.00    +0.010 A 
ATOM     19  C   UNL     1      -8.978  -7.046  -5.691  0.00  0.00    +0.001 A 
ATOM     20  C   UNL     1     -10.133  -6.914  -6.449  0.00  0.00    +0.002 A 
ATOM     21  C   UNL     1     -10.429  -5.724  -7.077  0.00  0.00    +0.026 A 
ENDBRANCH  11  12
ENDBRANCH   8  11
ENDBRANCH   4   7
BRANCH   1  22
ATOM     22  C   UNL     1      -0.007  -2.702  -4.927  0.00  0.00    +0.142 C 
BRANCH  22  29
ATOM     23  C   UNL     1      -0.018   1.461   0.010  0.00  0.00    +0.130 C 
ATOM     24  N   UNL     1       0.002  -0.004   0.002  0.00  0.00    -0.323 N 
ATOM     25  C   UNL     1       0.024  -0.743   1.267  0.00  0.00    +0.130 C 
ATOM     26  C   UNL     1       0.000  -0.693  -1.206  0.00  0.00    +0.098 A 
ATOM     27  C   UNL     1       0.013  -2.084  -1.206  0.00  0.00    +0.042 A 
ATOM     28  C   UNL     1       0.011  -2.756  -2.415  0.00  0.00    +0.010 A 
ATOM     29  C   UNL     1      -0.004  -2.012  -3.587  0.00  0.00    -0.014 A 
ATOM     30  C   UNL     1      -0.017  -0.633  -3.513  0.00  0.00    +0.089 A 
ATOM     31  N   UNL     1      -0.020  -0.019  -2.345  0.00  0.00    -0.349 N 
ATOM     32  H   UNL     1      -0.033   0.951  -2.321  0.00  0.00    +0.167 HD
ENDBRANCH  22  29
ENDBRANCH   1  22
TORSDOF 5
