REMARK  Name = ZINC59435872
REMARK  9 active torsions:
REMARK  status: ('A' for Active; 'I' for Inactive)
REMARK    1  A    between atoms: C_4  and  C_7
REMARK    2  A    between atoms: C_7  and  C_8
REMARK    3  A    between atoms: C_8  and  N_9
REMARK    4  A    between atoms: N_9  and  C_10
REMARK    5  A    between atoms: N_9  and  S_23
REMARK    6  A    between atoms: C_10  and  C_11
REMARK    7  A    between atoms: N_13  and  N_14
REMARK    8  A    between atoms: C_15  and  C_16
REMARK    9  A    between atoms: S_23  and  C_26
REMARK                            x       y       z     vdW  Elec       q    Type
REMARK                         _______ _______ _______ _____ _____    ______ ____
ROOT
ATOM      1  N   UNL     1       5.450  -1.678   1.382  0.00  0.00    -0.167 NA
ENDROOT
BRANCH   1   2
ATOM      2  S   UNL     1       5.476  -3.330   1.498  0.00  0.00    +0.061 S 
ATOM      3  O   UNL     1       6.696  -3.672   2.142  0.00  0.00    -0.153 OA
ATOM      4  O   UNL     1       4.210  -3.721   2.010  0.00  0.00    -0.153 OA
BRANCH   2   5
ATOM      5  C   UNL     1       5.576  -3.966  -0.142  0.00  0.00    +0.106 A 
ATOM      6  C   UNL     1       4.419  -4.234  -0.850  0.00  0.00    +0.030 A 
ATOM      7  C   UNL     1       4.497  -4.734  -2.137  0.00  0.00    +0.022 A 
ATOM      8  C   UNL     1       5.732  -4.965  -2.715  0.00  0.00    +0.041 A 
ATOM      9  C   UNL     1       6.889  -4.697  -2.006  0.00  0.00    +0.022 A 
ATOM     10  C   UNL     1       6.810  -4.192  -0.721  0.00  0.00    +0.030 A 
ATOM     11 CL   UNL     1       5.830  -5.593  -4.331  0.00  0.00    -0.084 Cl
ENDBRANCH   2   5
ENDBRANCH   1   2
BRANCH   1  12
ATOM     12  C   UNL     1       4.171  -0.963   1.399  0.00  0.00    +0.114 C 
BRANCH  12  13
ATOM     13  C   UNL     1       3.711  -0.707  -0.038  0.00  0.00    +0.052 C 
BRANCH  13  17
ATOM     14  C   UNL     1      -0.017   1.378   0.010  0.00  0.00    +0.000 A 
ATOM     15  C   UNL     1       1.171   2.086   0.002  0.00  0.00    +0.000 A 
ATOM     16  C   UNL     1       2.377   1.411  -0.013  0.00  0.00    +0.003 A 
ATOM     17  C   UNL     1       2.396   0.029  -0.020  0.00  0.00    -0.046 A 
ATOM     18  C   UNL     1       1.208  -0.679  -0.012  0.00  0.00    +0.003 A 
ATOM     19  C   UNL     1       0.002  -0.004   0.002  0.00  0.00    +0.000 A 
ENDBRANCH  13  17
ENDBRANCH  12  13
ENDBRANCH   1  12
BRANCH   1  20
ATOM     20  C   UNL     1       6.705  -0.932   1.262  0.00  0.00    +0.206 C 
BRANCH  20  21
ATOM     21  C   UNL     1       7.147  -0.470   2.626  0.00  0.00    +0.248 C 
ATOM     22  O   UNL     1       6.479  -0.737   3.603  0.00  0.00    -0.273 OA
ATOM     23  N   UNL     1       8.284   0.241   2.761  0.00  0.00    -0.206 N 
ATOM     24  H   UNL     1       8.818   0.455   1.980  0.00  0.00    +0.177 HD
BRANCH  23  25
ATOM     25  N   UNL     1       8.695   0.671   4.030  0.00  0.00    -0.188 NA
ATOM     26  C   UNL     1       9.790   1.355   4.160  0.00  0.00    +0.138 C 
BRANCH  26  27
ATOM     27  C   UNL     1      10.222   1.808   5.495  0.00  0.00    -0.004 A 
ATOM     28  C   UNL     1       9.458   1.497   6.623  0.00  0.00    +0.009 A 
ATOM     29  C   UNL     1       9.868   1.923   7.869  0.00  0.00    +0.002 A 
ATOM     30  C   UNL     1      11.033   2.658   8.005  0.00  0.00    +0.020 A 
ATOM     31  C   UNL     1      11.795   2.970   6.892  0.00  0.00    +0.042 A 
ATOM     32  C   UNL     1      11.400   2.544   5.639  0.00  0.00    +0.029 A 
ATOM     33 CL   UNL     1      13.255   3.892   7.072  0.00  0.00    -0.084 Cl
ENDBRANCH  26  27
ENDBRANCH  23  25
ENDBRANCH  20  21
ENDBRANCH   1  20
TORSDOF 9
