REMARK  Name = ZINC34835338
REMARK  14 active torsions:
REMARK  status: ('A' for Active; 'I' for Inactive)
REMARK    1  A    between atoms: C_1  and  C_2
REMARK    2  A    between atoms: C_2  and  C_3
REMARK    3  A    between atoms: C_4  and  C_24
REMARK    4  A    between atoms: C_5  and  N_15
REMARK    5  A    between atoms: N_6  and  C_8
REMARK    6  A    between atoms: N_18  and  C_21
REMARK    7  A    between atoms: C_21  and  C_22
REMARK    8  A    between atoms: C_21  and  C_23
REMARK    9  A    between atoms: C_24  and  N_25
REMARK   10  A    between atoms: N_25  and  C_26
REMARK   11  A    between atoms: C_26  and  C_27
REMARK   12  A    between atoms: C_27  and  C_28
REMARK   13  A    between atoms: C_27  and  C_29
REMARK   14  A    between atoms: C_30  and  C_32
REMARK                            x       y       z     vdW  Elec       q    Type
REMARK                         _______ _______ _______ _____ _____    ______ ____
ROOT
ATOM      1  C   UNL     1       0.411   0.600   0.795  0.00  0.00    +0.070 A 
ATOM      2  C   UNL     1       1.792   0.815   0.783  0.00  0.00    +0.033 A 
ATOM      3  C   UNL     1       2.193   1.025   2.067  0.00  0.00    +0.130 A 
ATOM      4  N   UNL     1       1.089   0.943   2.858  0.00  0.00    -0.218 N 
ATOM      5  N   UNL     1      -0.011   0.682   2.031  0.00  0.00    -0.169 NA
ENDROOT
BRANCH   4   6
ATOM      6  C   UNL     1       1.058   1.097   4.252  0.00  0.00    +0.068 A 
ATOM      7  C   UNL     1       1.955   0.400   5.049  0.00  0.00    +0.030 A 
ATOM      8  C   UNL     1       1.923   0.553   6.421  0.00  0.00    +0.040 A 
ATOM      9  C   UNL     1       0.996   1.403   7.002  0.00  0.00    +0.124 A 
ATOM     10  C   UNL     1       0.100   2.100   6.208  0.00  0.00    +0.040 A 
ATOM     11  C   UNL     1       0.133   1.953   4.835  0.00  0.00    +0.030 A 
ATOM     12  F   UNL     1       0.966   1.552   8.344  0.00  0.00    -0.205 F 
ENDBRANCH   4   6
BRANCH   3  13
ATOM     13  N   UNL     1       3.494   1.277   2.492  0.00  0.00    -0.318 N 
ATOM     14  C   UNL     1       4.067   2.630   2.413  0.00  0.00    +0.088 C 
ATOM     15  C   UNL     1       4.670   2.983   3.776  0.00  0.00    -0.059 C 
ATOM     16  N   UNL     1       5.626   1.942   4.173  0.00  0.00    +0.383 N 
ATOM     17  C   UNL     1       4.925   0.667   4.369  0.00  0.00    -0.059 C 
ATOM     18  C   UNL     1       4.333   0.200   3.040  0.00  0.00    +0.088 C 
ATOM     19  H   UNL     1       6.322   1.834   3.451  0.00  0.00    -0.081 HD
BRANCH  16  20
ATOM     20  C   UNL     1       6.283   2.336   5.426  0.00  0.00    -0.075 C 
ATOM     21  C   UNL     1       7.280   1.252   5.841  0.00  0.00    -0.014 C 
ATOM     22  C   UNL     1       7.024   3.658   5.221  0.00  0.00    -0.014 C 
ENDBRANCH  16  20
ENDBRANCH   3  13
BRANCH   1  24
ATOM     23  C   UNL     1      -0.805   1.649  -1.094  0.00  0.00    +0.010 C 
ATOM     24  C   UNL     1      -0.449   0.327  -0.412  0.00  0.00    +0.054 C 
ENDBRANCH   1  24
BRANCH   2  25
ATOM     25  C   UNL     1       2.679   0.813  -0.435  0.00  0.00    +0.148 C 
BRANCH  25  26
ATOM     26  N   UNL     1       2.978  -0.568  -0.820  0.00  0.00    -0.293 N 
ATOM     27  C   UNL     1       3.966  -1.242  -0.199  0.00  0.00    +0.250 C 
ATOM     28  O   UNL     1       4.522  -0.753   0.765  0.00  0.00    -0.270 OA
BRANCH  27  29
ATOM     29  C   UNL     1       4.372  -2.575  -0.689  0.00  0.00    +0.072 A 
ATOM     30  C   UNL     1       3.789  -3.107  -1.841  0.00  0.00    +0.016 A 
ATOM     31  C   UNL     1       4.173  -4.351  -2.293  0.00  0.00    +0.001 A 
ATOM     32  C   UNL     1       5.135  -5.075  -1.609  0.00  0.00    +0.003 A 
ATOM     33  C   UNL     1       5.718  -4.557  -0.468  0.00  0.00    +0.039 A 
ATOM     34  C   UNL     1       5.347  -3.308  -0.005  0.00  0.00    +0.135 A 
ATOM     35  F   UNL     1       5.921  -2.799   1.107  0.00  0.00    -0.205 F 
ENDBRANCH  27  29
BRANCH  26  36
ATOM     36  C   UNL     1       2.203  -1.217  -1.881  0.00  0.00    +0.111 C 
BRANCH  36  37
ATOM     37  C   UNL     1       2.988  -1.163  -3.192  0.00  0.00    +0.000 C 
ATOM     38  C   UNL     1       2.065  -1.532  -4.355  0.00  0.00    +0.009 C 
ATOM     39  C   UNL     1       3.534   0.250  -3.402  0.00  0.00    +0.009 C 
ENDBRANCH  36  37
ENDBRANCH  26  36
ENDBRANCH  25  26
ENDBRANCH   2  25
TORSDOF 9
