REMARK  Name = ZINC06245455
REMARK  8 active torsions:
REMARK  status: ('A' for Active; 'I' for Inactive)
REMARK    1  A    between atoms: C_1  and  C_2
REMARK    2  A    between atoms: C_5  and  N_8
REMARK    3  A    between atoms: N_8  and  C_9
REMARK    4  A    between atoms: C_12  and  C_35
REMARK    5  A    between atoms: C_18  and  C_21
REMARK    6  A    between atoms: C_22  and  C_24
REMARK    7  A    between atoms: C_25  and  C_26
REMARK    8  A    between atoms: C_29  and  N_32
REMARK                            x       y       z     vdW  Elec       q    Type
REMARK                         _______ _______ _______ _____ _____    ______ ____
ROOT
ATOM      1  C   UNL     1      -1.525   1.867  -0.201  0.00  0.00    +0.104 C 
ATOM      2  C   UNL     1      -1.002   3.252  -0.581  0.00  0.00    +0.049 C 
ATOM      3  C   UNL     1      -2.142   4.268  -0.438  0.00  0.00    +0.081 C 
ATOM      4  N   UNL     1      -2.534   4.308   0.978  0.00  0.00    -0.265 N 
ATOM      5  C   UNL     1      -2.683   3.100   1.672  0.00  0.00    +0.042 A 
ATOM      6  C   UNL     1      -2.209   1.912   1.140  0.00  0.00    -0.006 A 
ATOM      7  C   UNL     1      -2.366   0.734   1.852  0.00  0.00    +0.010 A 
ATOM      8  C   UNL     1      -2.994   0.742   3.083  0.00  0.00    -0.050 A 
ATOM      9  C   UNL     1      -3.469   1.927   3.613  0.00  0.00    +0.005 A 
ATOM     10  C   UNL     1      -3.315   3.106   2.910  0.00  0.00    +0.024 A 
ATOM     11  C   UNL     1      -3.160  -0.545   3.850  0.00  0.00    +0.044 C 
ATOM     12  C   UNL     1      -2.745   5.486   1.598  0.00  0.00    +0.244 C 
ATOM     13  O   UNL     1      -2.933   6.493   0.942  0.00  0.00    -0.270 OA
ATOM     14  C   UNL     1      -1.661   5.652  -0.881  0.00  0.00    +0.028 C 
ENDROOT
BRANCH   1  15
ATOM     15  N   UNL     1      -0.403   0.926  -0.139  0.00  0.00    -0.337 N 
ATOM     16  H   UNL     1       0.493   1.251   0.038  0.00  0.00    +0.147 HD
BRANCH  15  21
ATOM     17  C   UNL     1      -1.299  -4.613  -0.961  0.00  0.00    +0.044 C 
ATOM     18  C   UNL     1      -1.061  -3.141  -0.743  0.00  0.00    -0.050 A 
ATOM     19  C   UNL     1       0.218  -2.679  -0.491  0.00  0.00    +0.005 A 
ATOM     20  C   UNL     1       0.440  -1.330  -0.290  0.00  0.00    +0.023 A 
ATOM     21  C   UNL     1      -0.624  -0.438  -0.342  0.00  0.00    +0.028 A 
ATOM     22  C   UNL     1      -1.908  -0.906  -0.590  0.00  0.00    +0.023 A 
ATOM     23  C   UNL     1      -2.121  -2.255  -0.795  0.00  0.00    +0.005 A 
ENDBRANCH  15  21
ENDBRANCH   1  15
BRANCH  12  24
ATOM     24  C   UNL     1      -2.748   5.553   3.060  0.00  0.00    +0.068 C 
ATOM     25  C   UNL     1      -3.122   6.689   3.682  0.00  0.00    +0.013 C 
BRANCH  25  26
ATOM     26  C   UNL     1      -3.126   6.757   5.152  0.00  0.00    -0.025 A 
ATOM     27  C   UNL     1      -2.747   5.643   5.908  0.00  0.00    +0.010 A 
ATOM     28  C   UNL     1      -2.748   5.716   7.285  0.00  0.00    +0.033 A 
ATOM     29  C   UNL     1      -3.132   6.884   7.919  0.00  0.00    +0.126 A 
ATOM     30  C   UNL     1      -3.513   7.989   7.178  0.00  0.00    +0.033 A 
ATOM     31  C   UNL     1      -3.513   7.934   5.801  0.00  0.00    +0.010 A 
BRANCH  29  32
ATOM     32  N   UNL     1      -3.135   6.952   9.398  0.00  0.00    +0.056 N 
ATOM     33  O   UNL     1      -3.473   7.979   9.960  0.00  0.00    -0.126 OA
ATOM     34  O   UNL     1      -2.800   5.981  10.053  0.00  0.00    -0.126 OA
ENDBRANCH  29  32
ENDBRANCH  25  26
ENDBRANCH  12  24
TORSDOF 5
