REMARK  Name = ZINC39226150
REMARK  9 active torsions:
REMARK  status: ('A' for Active; 'I' for Inactive)
REMARK    1  A    between atoms: C_1  and  C_2
REMARK    2  A    between atoms: C_2  and  O_3
REMARK    3  A    between atoms: O_3  and  C_4
REMARK    4  A    between atoms: C_4  and  C_6
REMARK    5  A    between atoms: C_6  and  C_7
REMARK    6  A    between atoms: C_7  and  N_8
REMARK    7  A    between atoms: C_9  and  C_11
REMARK    8  A    between atoms: C_15  and  C_17
REMARK    9  A    between atoms: N_30  and  C_33
REMARK                            x       y       z     vdW  Elec       q    Type
REMARK                         _______ _______ _______ _____ _____    ______ ____
ROOT
ATOM      1  C   UNL     1       3.912  -9.734   6.324  0.00  0.00    -0.017 A 
ATOM      2  C   UNL     1       3.374 -10.595   5.365  0.00  0.00    +0.012 A 
ATOM      3  C   UNL     1       3.487 -11.961   5.508  0.00  0.00    +0.047 A 
ATOM      4  C   UNL     1       4.139 -12.498   6.611  0.00  0.00    +0.132 A 
ATOM      5  C   UNL     1       4.686 -11.636   7.576  0.00  0.00    +0.060 A 
ATOM      6  C   UNL     1       4.574 -10.254   7.429  0.00  0.00    +0.023 A 
ATOM      7  C   UNL     1       5.387 -12.213   8.737  0.00  0.00    +0.170 C 
ATOM      8  O   UNL     1       6.054 -11.530   9.485  0.00  0.00    -0.292 OA
ATOM      9  C   UNL     1       5.229 -13.709   8.949  0.00  0.00    +0.127 C 
ATOM     10  C   UNL     1       5.284 -14.369   7.564  0.00  0.00    +0.114 C 
ATOM     11  O   UNL     1       4.242 -13.841   6.745  0.00  0.00    -0.485 OA
ATOM     12  C   UNL     1       6.642 -14.079   6.920  0.00  0.00    +0.030 C 
ATOM     13  C   UNL     1       6.731 -14.811   5.579  0.00  0.00    -0.075 C 
ATOM     14  N   UNL     1       6.585 -16.255   5.796  0.00  0.00    +0.378 N 
ATOM     15  C   UNL     1       5.256 -16.546   6.345  0.00  0.00    -0.075 C 
ATOM     16  C   UNL     1       5.109 -15.881   7.715  0.00  0.00    +0.030 C 
ATOM     17  C   UNL     1       6.750 -16.960   4.517  0.00  0.00    -0.096 C 
ATOM     18  H   UNL     1       7.292 -16.570   6.444  0.00  0.00    -0.082 HD
ENDROOT
BRANCH   1  23
ATOM     19  C   UNL     1       3.002  -6.363   4.904  0.00  0.00    +0.037 A 
ATOM     20  C   UNL     1       3.549  -5.512   5.866  0.00  0.00    +0.013 A 
ATOM     21  C   UNL     1       4.205  -6.036   6.962  0.00  0.00    +0.001 A 
ATOM     22  C   UNL     1       4.324  -7.404   7.113  0.00  0.00    +0.008 A 
ATOM     23  C   UNL     1       3.782  -8.265   6.159  0.00  0.00    -0.017 A 
ATOM     24  C   UNL     1       3.114  -7.744   5.055  0.00  0.00    +0.021 A 
BRANCH  19  26
ATOM     25  N   UNL     1       2.192  -4.465   3.586  0.00  0.00    -0.311 N 
ATOM     26  C   UNL     1       2.300  -5.801   3.730  0.00  0.00    +0.244 C 
ATOM     27  O   UNL     1       1.820  -6.543   2.896  0.00  0.00    -0.270 OA
ATOM     28  H   UNL     1       2.575  -3.873   4.251  0.00  0.00    +0.149 HD
BRANCH  25  29
ATOM     29  C   UNL     1       1.496  -3.909   2.423  0.00  0.00    +0.115 C 
BRANCH  29  30
ATOM     30  C   UNL     1       1.516  -2.381   2.500  0.00  0.00    +0.139 C 
BRANCH  30  31
ATOM     31  C   UNL     1       0.801  -1.808   1.304  0.00  0.00    +0.309 C 
ATOM     32  O   UNL     1       0.324  -2.546   0.475  0.00  0.00    -0.251 OA
BRANCH  31  33
ATOM     33  O   UNL     1       0.693  -0.477   1.160  0.00  0.00    -0.465 OA
BRANCH  33  35
ATOM     34  C   UNL     1      -0.019   1.526   0.010  0.00  0.00    +0.048 C 
ATOM     35  C   UNL     1       0.002  -0.004   0.002  0.00  0.00    +0.229 C 
ENDBRANCH  33  35
ENDBRANCH  31  33
ENDBRANCH  30  31
ENDBRANCH  29  30
ENDBRANCH  25  29
ENDBRANCH  19  26
ENDBRANCH   1  23
TORSDOF 7
