REMARK  Name = ZINC05559456
REMARK  5 active torsions:
REMARK  status: ('A' for Active; 'I' for Inactive)
REMARK    1  A    between atoms: C_1  and  C_2
REMARK    2  A    between atoms: C_2  and  C_4
REMARK    3  A    between atoms: C_2  and  N_6
REMARK    4  A    between atoms: C_7  and  O_22
REMARK    5  A    between atoms: C_8  and  C_12
REMARK                            x       y       z     vdW  Elec       q    Type
REMARK                         _______ _______ _______ _____ _____    ______ ____
ROOT
ATOM      1  N   UNL     1       0.002  -0.008  -0.039  0.00  0.00    -0.286 N 
ATOM      2  C   UNL     1       1.169  -0.666  -0.038  0.00  0.00    +0.209 A 
ATOM      3  C   UNL     1       2.353   0.073  -0.035  0.00  0.00    +0.075 A 
ATOM      4  S   UNL     1       1.723   1.745  -0.033  0.00  0.00    -0.059 S 
ATOM      5  C   UNL     1      -0.018   1.345  -0.036  0.00  0.00    +0.130 A 
ATOM      6  S   UNL     1      -1.365   2.401  -0.042  0.00  0.00    -0.025 S 
ENDROOT
BRANCH   3   7
ATOM      7  C   UNL     1       3.673  -0.373  -0.034  0.00  0.00    +0.030 C 
ATOM      8  C   UNL     1       4.722   0.545  -0.145  0.00  0.00    +0.003 C 
ATOM      9  C   UNL     1       4.633   1.954  -0.160  0.00  0.00    +0.120 C 
ATOM     10  N   UNL     1       5.832   2.467  -0.274  0.00  0.00    -0.254 NA
ATOM     11  C   UNL     1       6.789   1.516  -0.353  0.00  0.00    +0.072 A 
ATOM     12  C   UNL     1       6.160   0.253  -0.278  0.00  0.00    +0.009 A 
ATOM     13  C   UNL     1       6.916  -0.912  -0.336  0.00  0.00    +0.010 A 
ATOM     14  C   UNL     1       8.286  -0.830  -0.468  0.00  0.00    +0.001 A 
ATOM     15  C   UNL     1       8.912   0.407  -0.542  0.00  0.00    +0.002 A 
ATOM     16  C   UNL     1       8.182   1.572  -0.486  0.00  0.00    +0.028 A 
ENDBRANCH   3   7
BRANCH   1  18
ATOM     17  C   UNL     1      -2.067  -0.398   1.207  0.00  0.00    +0.043 C 
ATOM     18  C   UNL     1      -1.258  -0.756  -0.042  0.00  0.00    +0.201 C 
BRANCH  18  19
ATOM     19  C   UNL     1      -2.051  -0.400  -1.272  0.00  0.00    +0.378 C 
ATOM     20  O   UNL     1      -1.609   0.397  -2.066  0.00  0.00    -0.244 OA
ATOM     21  O   UNL     1      -3.248  -0.968  -1.488  0.00  0.00    -0.244 OA
ENDBRANCH  18  19
ENDBRANCH   1  18
BRANCH   2  22
ATOM     22  O   UNL     1       1.199  -2.016  -0.041  0.00  0.00    -0.493 OA
ATOM     23  H   UNL     1       1.209  -2.407  -0.925  0.00  0.00    +0.294 HD
ENDBRANCH   2  22
TORSDOF 4
