REMARK  Name = ZINC04091312
REMARK  11 active torsions:
REMARK  status: ('A' for Active; 'I' for Inactive)
REMARK    1  A    between atoms: C_1  and  C_2
REMARK    2  A    between atoms: C_4  and  C_18
REMARK    3  A    between atoms: C_5  and  C_17
REMARK    4  A    between atoms: N_6  and  C_7
REMARK    5  A    between atoms: C_12  and  C_13
REMARK    6  A    between atoms: N_19  and  N_20
REMARK    7  A    between atoms: C_21  and  C_23
REMARK    8  A    between atoms: N_25  and  C_26
REMARK    9  A    between atoms: C_26  and  C_27
REMARK   10  A    between atoms: C_26  and  C_28
REMARK   11  A    between atoms: C_26  and  C_29
REMARK                            x       y       z     vdW  Elec       q    Type
REMARK                         _______ _______ _______ _____ _____    ______ ____
ROOT
ATOM      1  C   UNL     1       1.737   3.295   0.003  0.00  0.00    +0.064 C 
ATOM      2  C   UNL     1       1.266   1.864   0.000  0.00  0.00    +0.022 A 
ATOM      3  C   UNL     1      -0.018   1.462   0.010  0.00  0.00    +0.032 A 
ATOM      4  C   UNL     1       0.002  -0.004   0.002  0.00  0.00    +0.016 A 
ATOM      5  C   UNL     1       1.319  -0.369  -0.013  0.00  0.00    +0.030 A 
ATOM      6  N   UNL     1       2.074   0.762  -0.014  0.00  0.00    -0.317 N 
ATOM      7  C   UNL     1       1.845  -1.781  -0.026  0.00  0.00    +0.064 C 
ENDROOT
BRANCH   6   8
ATOM      8  C   UNL     1       3.475   0.793  -0.026  0.00  0.00    +0.058 A 
ATOM      9  C   UNL     1       4.160   0.815  -1.234  0.00  0.00    +0.027 A 
ATOM     10  C   UNL     1       5.540   0.846  -1.244  0.00  0.00    +0.002 A 
ATOM     11  C   UNL     1       6.241   0.855  -0.052  0.00  0.00    +0.001 A 
ATOM     12  C   UNL     1       5.562   0.834   1.153  0.00  0.00    +0.014 A 
ATOM     13  C   UNL     1       4.181   0.808   1.169  0.00  0.00    +0.079 A 
BRANCH  13  14
ATOM     14  C   UNL     1       3.442   0.791   2.482  0.00  0.00    +0.419 C 
ATOM     15  F   UNL     1       4.363   0.811   3.535  0.00  0.00    -0.166 F 
ATOM     16  F   UNL     1       2.614   1.915   2.565  0.00  0.00    -0.166 F 
ATOM     17  F   UNL     1       2.664  -0.369   2.564  0.00  0.00    -0.166 F 
ENDBRANCH  13  14
ENDBRANCH   6   8
BRANCH   4  18
ATOM     18  C   UNL     1      -1.164  -0.904   0.009  0.00  0.00    +0.140 C 
ATOM     19  N   UNL     1      -0.991  -2.192   0.001  0.00  0.00    -0.187 NA
BRANCH  19  20
ATOM     20  N   UNL     1      -2.100  -3.048   0.007  0.00  0.00    -0.199 N 
ATOM     21  C   UNL     1      -1.921  -4.383  -0.001  0.00  0.00    +0.318 C 
ATOM     22  O   UNL     1      -0.797  -4.845  -0.015  0.00  0.00    -0.263 OA
ATOM     23  H   UNL     1      -2.997  -2.679   0.018  0.00  0.00    +0.178 HD
BRANCH  21  24
ATOM     24  C   UNL     1      -3.102  -5.294   0.005  0.00  0.00    +0.301 C 
ATOM     25  O   UNL     1      -4.224  -4.833   0.018  0.00  0.00    -0.265 OA
ATOM     26  N   UNL     1      -2.922  -6.630  -0.003  0.00  0.00    -0.303 N 
ATOM     27  H   UNL     1      -2.025  -6.999  -0.014  0.00  0.00    +0.150 HD
BRANCH  26  28
ATOM     28  C   UNL     1      -4.082  -7.525   0.004  0.00  0.00    +0.027 C 
ATOM     29  C   UNL     1      -4.939  -7.259  -1.236  0.00  0.00    +0.031 C 
ATOM     30  C   UNL     1      -3.605  -8.979  -0.008  0.00  0.00    +0.031 C 
ATOM     31  C   UNL     1      -4.914  -7.272   1.262  0.00  0.00    +0.031 C 
ENDBRANCH  26  28
ENDBRANCH  21  24
ENDBRANCH  19  20
ENDBRANCH   4  18
TORSDOF 6
