REMARK  Name = ZINC39379438
REMARK  13 active torsions:
REMARK  status: ('A' for Active; 'I' for Inactive)
REMARK    1  A    between atoms: C_1  and  C_2
REMARK    2  A    between atoms: C_7  and  C_21
REMARK    3  A    between atoms: N_15  and  C_18
REMARK    4  A    between atoms: C_18  and  C_19
REMARK    5  A    between atoms: C_19  and  O_20
REMARK    6  A    between atoms: C_21  and  N_22
REMARK    7  A    between atoms: N_22  and  C_23
REMARK    8  A    between atoms: C_23  and  C_24
REMARK    9  A    between atoms: C_24  and  O_25
REMARK   10  A    between atoms: O_25  and  C_26
REMARK   11  A    between atoms: C_27  and  C_29
REMARK   12  A    between atoms: C_32  and  C_40
REMARK   13  A    between atoms: C_33  and  C_39
REMARK                            x       y       z     vdW  Elec       q    Type
REMARK                         _______ _______ _______ _____ _____    ______ ____
ROOT
ATOM      1  C   UNL     1       4.298  -1.173   3.443  0.00  0.00    +0.044 C 
ATOM      2  C   UNL     1       3.494  -2.289   2.827  0.00  0.00    -0.048 A 
ATOM      3  C   UNL     1       3.346  -2.345   1.443  0.00  0.00    +0.004 A 
ATOM      4  C   UNL     1       2.625  -3.341   0.857  0.00  0.00    +0.010 A 
ATOM      5  C   UNL     1       2.023  -4.325   1.657  0.00  0.00    -0.001 A 
ATOM      6  C   UNL     1       1.270  -5.371   1.086  0.00  0.00    +0.018 A 
ATOM      7  C   UNL     1       0.713  -6.294   1.919  0.00  0.00    +0.008 A 
ATOM      8  C   UNL     1       0.896  -6.185   3.305  0.00  0.00    +0.104 A 
ATOM      9  N   UNL     1       1.601  -5.205   3.832  0.00  0.00    -0.343 N 
ATOM     10  C   UNL     1       2.172  -4.270   3.064  0.00  0.00    +0.048 A 
ATOM     11  C   UNL     1       2.928  -3.230   3.631  0.00  0.00    +0.029 A 
ATOM     12  N   UNL     1       0.323  -7.132   4.140  0.00  0.00    -0.314 N 
ATOM     13  C   UNL     1       1.082  -8.313   4.577  0.00  0.00    +0.122 C 
ATOM     14  C   UNL     1       0.984  -8.419   6.103  0.00  0.00    +0.103 C 
ATOM     15  N   UNL     1      -0.430  -8.407   6.501  0.00  0.00    -0.297 NA
ATOM     16  C   UNL     1      -1.075  -7.139   6.138  0.00  0.00    +0.103 C 
ATOM     17  C   UNL     1      -1.060  -6.978   4.618  0.00  0.00    +0.122 C 
ATOM     18  H   UNL     1       1.708  -5.160   4.795  0.00  0.00    +0.167 HD
ENDROOT
BRANCH  15  19
ATOM     19  C   UNL     1      -0.574  -8.679   7.938  0.00  0.00    +0.112 C 
BRANCH  19  20
ATOM     20  C   UNL     1      -2.050  -8.905   8.268  0.00  0.00    +0.171 C 
BRANCH  20  21
ATOM     21  O   UNL     1      -2.509 -10.089   7.612  0.00  0.00    -0.394 OA
ATOM     22  H   UNL     1      -3.439 -10.295   7.777  0.00  0.00    +0.209 HD
ENDBRANCH  20  21
ENDBRANCH  19  20
ENDBRANCH  15  19
BRANCH   7  23
ATOM     23  C   UNL     1      -0.101  -7.429   1.352  0.00  0.00    +0.146 C 
BRANCH  23  24
ATOM     24  N   UNL     1      -0.021  -7.403  -0.111  0.00  0.00    -0.291 N 
ATOM     25  C   UNL     1      -1.094  -7.030  -0.837  0.00  0.00    +0.247 C 
ATOM     26  O   UNL     1      -1.041  -7.048  -2.052  0.00  0.00    -0.270 OA
BRANCH  25  27
ATOM     27  C   UNL     1      -2.331  -6.601  -0.159  0.00  0.00    +0.037 C 
ATOM     28  C   UNL     1      -3.571  -6.879  -0.724  0.00  0.00    +0.019 C 
ATOM     29  C   UNL     1      -4.674  -6.371  -0.016  0.00  0.00    -0.014 C 
ATOM     30  C   UNL     1      -5.943  -6.795   0.114  0.00  0.00    -0.024 C 
ATOM     31  C   UNL     1      -6.575  -6.044   1.197  0.00  0.00    +0.037 C 
ATOM     32  N   UNL     1      -5.788  -5.112   1.647  0.00  0.00    -0.276 NA
ATOM     33  C   UNL     1      -4.573  -5.128   0.850  0.00  0.00    +0.159 C 
ATOM     34  C   UNL     1      -3.294  -5.205   1.626  0.00  0.00    +0.005 C 
ATOM     35  C   UNL     1      -2.260  -5.883   1.121  0.00  0.00    +0.011 C 
ATOM     36  C   UNL     1      -7.961  -6.316   1.725  0.00  0.00    +0.065 C 
ATOM     37  C   UNL     1      -6.603  -7.864  -0.718  0.00  0.00    +0.046 C 
ENDBRANCH  25  27
BRANCH  24  38
ATOM     38  C   UNL     1       1.223  -7.783  -0.784  0.00  0.00    +0.136 C 
BRANCH  38  39
ATOM     39  C   UNL     1       1.268  -9.303  -0.952  0.00  0.00    +0.178 C 
BRANCH  39  40
ATOM     40  O   UNL     1       0.221  -9.716  -1.833  0.00  0.00    -0.381 OA
ATOM     41  C   UNL     1       0.175 -11.127  -2.059  0.00  0.00    +0.194 C 
ENDBRANCH  39  40
ENDBRANCH  38  39
ENDBRANCH  24  38
ENDBRANCH  23  24
ENDBRANCH   7  23
TORSDOF 9
