REMARK  Name = ZINC64064888
REMARK  6 active torsions:
REMARK  status: ('A' for Active; 'I' for Inactive)
REMARK    1  A    between atoms: C_1  and  C_2
REMARK    2  A    between atoms: C_10  and  C_14
REMARK    3  A    between atoms: C_14  and  C_16
REMARK    4  A    between atoms: C_14  and  S_17
REMARK    5  A    between atoms: S_17  and  C_18
REMARK    6  A    between atoms: N_23  and  C_24
REMARK                            x       y       z     vdW  Elec       q    Type
REMARK                         _______ _______ _______ _____ _____    ______ ____
ROOT
ATOM      1  C   UNL     1      -1.563  -5.566   5.490  0.00  0.00    +0.112 C 
ATOM      2  C   UNL     1      -0.351  -6.373   5.961  0.00  0.00    +0.027 C 
ENDROOT
BRANCH   1  11
ATOM      3  C   UNL     1       0.023   2.458   0.948  0.00  0.00    +0.007 C 
ATOM      4  C   UNL     1       0.361   0.966   0.970  0.00  0.00    -0.012 C 
ATOM      5  C   UNL     1      -0.873   0.166   0.563  0.00  0.00    +0.008 C 
ATOM      6  C   UNL     1      -0.542  -1.332   0.498  0.00  0.00    +0.033 C 
ATOM      7  C   UNL     1       0.082  -1.700   1.842  0.00  0.00    -0.042 C 
ATOM      8  C   UNL     1      -0.349  -2.678   2.640  0.00  0.00    +0.071 C 
ATOM      9  C   UNL     1       0.242  -2.789   4.000  0.00  0.00    +0.112 C 
ATOM     10  N   UNL     1      -0.153  -3.691   4.866  0.00  0.00    -0.226 NA
ATOM     11  C   UNL     1      -1.118  -4.530   4.490  0.00  0.00    +0.136 C 
ATOM     12  N   UNL     1      -1.710  -4.530   3.323  0.00  0.00    -0.160 NA
ATOM     13  C   UNL     1      -1.431  -3.670   2.327  0.00  0.00    +0.271 C 
ATOM     14  O   UNL     1      -2.011  -3.694   1.255  0.00  0.00    -0.268 OA
ATOM     15  S   UNL     1       1.465  -1.518   4.064  0.00  0.00    -0.097 S 
ATOM     16  C   UNL     1       1.273  -0.887   2.352  0.00  0.00    +0.080 C 
ATOM     17  C   UNL     1       0.827   0.577   2.377  0.00  0.00    +0.022 C 
ENDBRANCH   1  11
BRANCH   1  18
ATOM     18  S   UNL     1      -2.766  -6.679   4.714  0.00  0.00    -0.107 S 
BRANCH  18  19
ATOM     19  C   UNL     1      -3.470  -7.604   6.107  0.00  0.00    +0.236 C 
ATOM     20  N   UNL     1      -3.865  -6.686   7.190  0.00  0.00    -0.259 N 
ATOM     21  N   UNL     1      -3.095  -7.046   8.304  0.00  0.00    -0.284 N 
ATOM     22  C   UNL     1      -2.311  -8.034   8.037  0.00  0.00    +0.173 C 
ATOM     23  N   UNL     1      -2.449  -8.466   6.724  0.00  0.00    -0.273 N 
ATOM     24  N   UNL     1      -1.434  -8.599   8.953  0.00  0.00    -0.331 N 
ATOM     25  H   UNL     1      -4.524  -5.977   7.142  0.00  0.00    +0.169 HD
ATOM     26  H   UNL     1      -1.330  -8.204   9.832  0.00  0.00    +0.145 HD
ATOM     27  H   UNL     1      -0.925  -9.389   8.713  0.00  0.00    +0.145 HD
ATOM     28  H   UNL     1      -3.146  -6.606   9.167  0.00  0.00    +0.187 HD
BRANCH  23  29
ATOM     29  C   UNL     1      -1.722  -9.562   6.079  0.00  0.00    +0.079 C 
ATOM     30  C   UNL     1      -1.994  -9.812   4.594  0.00  0.00    +0.024 C 
ATOM     31  C   UNL     1      -2.530 -10.787   5.645  0.00  0.00    +0.024 C 
ENDBRANCH  23  29
ENDBRANCH  18  19
ENDBRANCH   1  18
TORSDOF 4
