REMARK  Name = ZINC43199292
REMARK  2 active torsions:
REMARK  status: ('A' for Active; 'I' for Inactive)
REMARK    1  A    between atoms: N_9  and  S_11
REMARK    2  A    between atoms: S_11  and  C_14
REMARK                            x       y       z     vdW  Elec       q    Type
REMARK                         _______ _______ _______ _____ _____    ______ ____
ROOT
ATOM      1  C   UNL     1      -0.019   1.519   0.010  0.00  0.00    +0.020 C 
ATOM      2  C   UNL     1       1.404   2.075  -0.000  0.00  0.00    +0.035 C 
ATOM      3  C   UNL     1       1.858   2.328   1.440  0.00  0.00    +0.149 C 
ATOM      4  C   UNL     1       2.180   1.062   2.263  0.00  0.00    +0.163 C 
ATOM      5  O   UNL     1       3.198   1.997   1.797  0.00  0.00    -0.367 OA
ATOM      6  C   UNL     1       2.039  -0.263   1.490  0.00  0.00    +0.143 C 
ATOM      7  N   UNL     1       0.620  -0.508   1.230  0.00  0.00    -0.178 NA
ATOM      8  C   UNL     1       0.002  -0.004   0.002  0.00  0.00    +0.109 C 
ENDROOT
BRANCH   7   9
ATOM      9  S   UNL     1      -0.260  -1.392   2.320  0.00  0.00    +0.042 S 
ATOM     10  O   UNL     1      -1.316  -1.960   1.557  0.00  0.00    -0.157 OA
ATOM     11  O   UNL     1       0.694  -2.223   2.967  0.00  0.00    -0.157 OA
BRANCH   9  12
ATOM     12  C   UNL     1      -0.919  -0.171   3.488  0.00  0.00    +0.264 C 
ATOM     13 BR   UNL     1      -1.997  -1.086   4.854  0.00  0.00    -0.066 Br
ENDBRANCH   9  12
ENDBRANCH   7   9
TORSDOF 2
