REMARK  Name = ZINC16500640
REMARK  8 active torsions:
REMARK  status: ('A' for Active; 'I' for Inactive)
REMARK    1  A    between atoms: C_3  and  S_25
REMARK    2  A    between atoms: C_6  and  C_7
REMARK    3  A    between atoms: N_9  and  C_10
REMARK    4  A    between atoms: C_13  and  S_16
REMARK    5  A    between atoms: S_16  and  N_19
REMARK    6  A    between atoms: N_19  and  C_20
REMARK    7  A    between atoms: C_20  and  C_21
REMARK    8  A    between atoms: S_25  and  C_26
REMARK                            x       y       z     vdW  Elec       q    Type
REMARK                         _______ _______ _______ _____ _____    ______ ____
ROOT
ATOM      1  C   UNL     1       1.208   2.020   0.039  0.00  0.00    +0.034 A 
ATOM      2  C   UNL     1       2.397   1.310  -0.057  0.00  0.00    +0.025 A 
ATOM      3  C   UNL     1       3.604   1.981  -0.034  0.00  0.00    +0.030 A 
ATOM      4  C   UNL     1       3.629   3.358   0.096  0.00  0.00    +0.105 A 
ATOM      5  C   UNL     1       2.446   4.067   0.198  0.00  0.00    +0.030 A 
ATOM      6  C   UNL     1       1.236   3.402   0.170  0.00  0.00    +0.025 A 
ENDROOT
BRANCH   1   9
ATOM      7  C   UNL     1      -1.087   1.912  -0.580  0.00  0.00    +0.248 C 
ATOM      8  O   UNL     1      -1.012   3.047  -1.012  0.00  0.00    -0.270 OA
ATOM      9  N   UNL     1      -0.016   1.344   0.009  0.00  0.00    -0.282 N 
ATOM     10  H   UNL     1      -0.096   0.467   0.417  0.00  0.00    +0.155 HD
BRANCH   7  16
ATOM     11  C   UNL     1      -2.434  -0.148  -0.211  0.00  0.00    +0.014 A 
ATOM     12  C   UNL     1      -3.610  -0.843  -0.320  0.00  0.00    +0.016 A 
ATOM     13  C   UNL     1      -4.716  -0.254  -0.930  0.00  0.00    +0.016 A 
ATOM     14  C   UNL     1      -4.631   1.045  -1.425  0.00  0.00    +0.016 A 
ATOM     15  C   UNL     1      -3.460   1.748  -1.313  0.00  0.00    +0.014 A 
ATOM     16  C   UNL     1      -2.348   1.159  -0.702  0.00  0.00    +0.037 A 
BRANCH  13  17
ATOM     17  S   UNL     1      -6.224  -1.154  -1.074  0.00  0.00    -0.016 S 
BRANCH  17  18
ATOM     18  C   UNL     1      -5.855  -2.755  -0.306  0.00  0.00    +0.448 C 
ATOM     19  F   UNL     1      -5.485  -2.558   1.029  0.00  0.00    -0.160 F 
ATOM     20  F   UNL     1      -6.990  -3.571  -0.359  0.00  0.00    -0.160 F 
ATOM     21  F   UNL     1      -4.804  -3.372  -0.994  0.00  0.00    -0.160 F 
ENDBRANCH  17  18
ENDBRANCH  13  17
ENDBRANCH   7  16
ENDBRANCH   1   9
BRANCH   4  22
ATOM     22  S   UNL     1       5.171   4.210   0.133  0.00  0.00    +0.059 S 
ATOM     23  O   UNL     1       6.112   3.375  -0.527  0.00  0.00    -0.153 OA
ATOM     24  O   UNL     1       4.909   5.542  -0.286  0.00  0.00    -0.153 OA
BRANCH  22  25
ATOM     25  N   UNL     1       5.644   4.296   1.718  0.00  0.00    -0.181 NA
ATOM     26  H   UNL     1       5.709   5.158   2.158  0.00  0.00    +0.148 HD
BRANCH  25  27
ATOM     27  C   UNL     1       5.966   3.072   2.454  0.00  0.00    +0.219 C 
BRANCH  27  28
ATOM     28  C   UNL     1       6.718   3.431   3.737  0.00  0.00    +0.404 C 
ATOM     29  F   UNL     1       5.916   4.256   4.533  0.00  0.00    -0.169 F 
ATOM     30  F   UNL     1       7.025   2.261   4.441  0.00  0.00    -0.169 F 
ATOM     31  F   UNL     1       7.901   4.103   3.412  0.00  0.00    -0.169 F 
ENDBRANCH  27  28
ENDBRANCH  25  27
ENDBRANCH  22  25
ENDBRANCH   4  22
TORSDOF 8
