REMARK  Name = ZINC45777372
REMARK  8 active torsions:
REMARK  status: ('A' for Active; 'I' for Inactive)
REMARK    1  A    between atoms: C_1  and  C_2
REMARK    2  A    between atoms: C_4  and  S_10
REMARK    3  A    between atoms: C_5  and  C_9
REMARK    4  A    between atoms: S_10  and  C_11
REMARK    5  A    between atoms: C_11  and  C_12
REMARK    6  A    between atoms: N_14  and  C_15
REMARK    7  A    between atoms: C_15  and  C_16
REMARK    8  A    between atoms: C_19  and  N_22
REMARK                            x       y       z     vdW  Elec       q    Type
REMARK                         _______ _______ _______ _____ _____    ______ ____
ROOT
ATOM      1  C   UNL     1      -0.247  -2.306  -5.393  0.00  0.00    +0.223 C 
ATOM      2  O   UNL     1      -0.098  -3.504  -5.511  0.00  0.00    -0.275 OA
ATOM      3  N   UNL     1      -0.225  -1.513  -6.482  0.00  0.00    -0.311 N 
ATOM      4  H   UNL     1      -0.345  -0.555  -6.388  0.00  0.00    +0.149 HD
ENDROOT
BRANCH   1   5
ATOM      5  C   UNL     1      -0.458  -1.704  -4.027  0.00  0.00    +0.170 C 
BRANCH   5   6
ATOM      6  S   UNL     1      -0.436  -3.019  -2.778  0.00  0.00    -0.116 S 
BRANCH   6  10
ATOM      7  C   UNL     1      -1.223   1.377  -0.051  0.00  0.00    +0.045 C 
ATOM      8  C   UNL     1      -1.051  -0.120  -0.058  0.00  0.00    -0.035 A 
ATOM      9  C   UNL     1      -0.851  -0.786  -1.251  0.00  0.00    +0.019 A 
ATOM     10  C   UNL     1      -0.692  -2.166  -1.257  0.00  0.00    +0.012 A 
ATOM     11  C   UNL     1      -0.735  -2.873  -0.061  0.00  0.00    -0.036 A 
ATOM     12  C   UNL     1      -0.936  -2.202   1.129  0.00  0.00    +0.020 A 
ATOM     13  C   UNL     1      -1.089  -0.826   1.131  0.00  0.00    +0.021 A 
ATOM     14 BR   UNL     1      -1.356   0.090   2.764  0.00  0.00    -0.050 Br
ATOM     15  C   UNL     1      -0.564  -4.370  -0.063  0.00  0.00    +0.045 C 
ENDBRANCH   6  10
ENDBRANCH   5   6
ENDBRANCH   1   5
BRANCH   3  16
ATOM     16  C   UNL     1      -0.021  -2.098  -7.810  0.00  0.00    +0.139 C 
BRANCH  16  17
ATOM     17  C   UNL     1      -0.038  -1.006  -8.848  0.00  0.00    -0.030 A 
ATOM     18  C   UNL     1      -1.231  -0.637  -9.442  0.00  0.00    +0.007 A 
ATOM     19  C   UNL     1      -1.251   0.363 -10.394  0.00  0.00    +0.023 A 
ATOM     20  C   UNL     1      -0.070   1.000 -10.754  0.00  0.00    +0.035 A 
ATOM     21  C   UNL     1       1.126   0.628 -10.156  0.00  0.00    +0.023 A 
ATOM     22  C   UNL     1       1.138  -0.370  -9.201  0.00  0.00    +0.007 A 
BRANCH  20  23
ATOM     23  N   UNL     1      -0.087   2.014 -11.719  0.00  0.00    -0.270 N 
ATOM     24  C   UNL     1      -1.154   2.830 -11.820  0.00  0.00    +0.301 C 
ATOM     25  O   UNL     1      -2.061   2.749 -11.014  0.00  0.00    -0.253 OA
ATOM     26  N   UNL     1      -1.218   3.736 -12.816  0.00  0.00    -0.313 N 
ATOM     27  H   UNL     1       0.670   2.129 -12.314  0.00  0.00    +0.156 HD
ATOM     28  H   UNL     1      -0.495   3.800 -13.460  0.00  0.00    +0.146 HD
ATOM     29  H   UNL     1      -1.986   4.324 -12.889  0.00  0.00    +0.146 HD
ENDBRANCH  20  23
ENDBRANCH  16  17
ENDBRANCH   3  16
TORSDOF 6
