REMARK  Name = ZINC64623201
REMARK  4 active torsions:
REMARK  status: ('A' for Active; 'I' for Inactive)
REMARK    1  A    between atoms: C_1  and  O_2
REMARK    2  A    between atoms: O_2  and  C_3
REMARK    3  A    between atoms: C_10  and  C_30
REMARK    4  A    between atoms: N_20  and  C_21
REMARK                            x       y       z     vdW  Elec       q    Type
REMARK                         _______ _______ _______ _____ _____    ______ ____
ROOT
ATOM      1  C   UNL     1      -0.550  -0.957   1.383  0.00  0.00    +0.121 A 
ATOM      2  C   UNL     1      -0.676  -0.212   2.569  0.00  0.00    +0.047 A 
ATOM      3  C   UNL     1      -0.277  -0.685   3.768  0.00  0.00    +0.029 A 
ATOM      4  C   UNL     1       0.314  -2.023   3.866  0.00  0.00    +0.043 A 
ATOM      5  N   UNL     1       0.757  -2.712   4.891  0.00  0.00    -0.375 N 
ATOM      6  C   UNL     1       1.311  -3.971   4.398  0.00  0.00    +0.131 C 
ATOM      7  C   UNL     1       0.634  -5.186   5.045  0.00  0.00    +0.134 C 
ATOM      8  N   UNL     1       0.947  -6.366   4.225  0.00  0.00    -0.276 N 
ATOM      9  C   UNL     1       0.551  -6.422   2.814  0.00  0.00    +0.114 C 
ATOM     10  C   UNL     1       1.179  -5.235   2.061  0.00  0.00    +0.052 C 
ATOM     11  C   UNL     1       0.988  -4.001   2.914  0.00  0.00    -0.035 C 
ATOM     12  C   UNL     1       0.441  -2.814   2.616  0.00  0.00    +0.003 A 
ATOM     13  C   UNL     1      -0.027  -2.205   1.365  0.00  0.00    +0.055 A 
ATOM     14  C   UNL     1       1.604  -7.407   4.776  0.00  0.00    +0.307 C 
ATOM     15  O   UNL     1       1.774  -7.450   5.979  0.00  0.00    -0.252 OA
ATOM     16  N   UNL     1       2.072  -8.398   3.993  0.00  0.00    -0.269 N 
ATOM     17  H   UNL     1       2.021  -8.319   3.027  0.00  0.00    +0.156 HD
ATOM     18  H   UNL     1       0.722  -2.433   5.819  0.00  0.00    +0.160 HD
ENDROOT
BRANCH  16  19
ATOM     19  C   UNL     1       2.634  -9.543   4.573  0.00  0.00    +0.038 A 
ATOM     20  C   UNL     1       3.296  -9.452   5.790  0.00  0.00    +0.027 A 
ATOM     21  C   UNL     1       3.850 -10.580   6.364  0.00  0.00    +0.051 A 
ATOM     22  C   UNL     1       3.746 -11.806   5.727  0.00  0.00    +0.166 A 
ATOM     23  C   UNL     1       3.082 -11.902   4.506  0.00  0.00    +0.168 A 
ATOM     24  C   UNL     1       2.523 -10.771   3.934  0.00  0.00    +0.073 A 
ATOM     25  O   UNL     1       3.118 -13.201   4.091  0.00  0.00    -0.453 OA
ATOM     26  C   UNL     1       4.160 -13.825   4.865  0.00  0.00    +0.466 C 
ATOM     27  O   UNL     1       4.197 -13.047   6.076  0.00  0.00    -0.453 OA
ENDBRANCH  16  19
BRANCH   7  28
ATOM     28  C   UNL     1       1.163  -5.379   6.443  0.00  0.00    -0.025 A 
ATOM     29  C   UNL     1       2.522  -5.304   6.684  0.00  0.00    +0.008 A 
ATOM     30  C   UNL     1       3.007  -5.481   7.966  0.00  0.00    +0.038 A 
ATOM     31  C   UNL     1       2.132  -5.734   9.008  0.00  0.00    +0.123 A 
ATOM     32  C   UNL     1       0.771  -5.810   8.765  0.00  0.00    +0.038 A 
ATOM     33  C   UNL     1       0.287  -5.627   7.484  0.00  0.00    +0.008 A 
ATOM     34  F   UNL     1       2.605  -5.908  10.262  0.00  0.00    -0.205 F 
ENDBRANCH   7  28
BRANCH   1  36
ATOM     35  C   UNL     1      -1.520   0.913   0.279  0.00  0.00    +0.277 C 
ATOM     36  O   UNL     1      -0.974  -0.406   0.215  0.00  0.00    -0.495 OA
ENDBRANCH   1  36
TORSDOF 3
