REMARK  Name = ZINC64679249
REMARK  5 active torsions:
REMARK  status: ('A' for Active; 'I' for Inactive)
REMARK    1  A    between atoms: C_1  and  C_2
REMARK    2  A    between atoms: C_4  and  C_14
REMARK    3  A    between atoms: C_19  and  O_20
REMARK    4  A    between atoms: O_20  and  C_21
REMARK    5  A    between atoms: C_21  and  C_22
REMARK                            x       y       z     vdW  Elec       q    Type
REMARK                         _______ _______ _______ _____ _____    ______ ____
ROOT
ATOM      1  C   UNL     1      -3.316  -1.025   0.983  0.00  0.00    +0.002 A 
ATOM      2  C   UNL     1      -3.274  -2.372   1.288  0.00  0.00    +0.008 A 
ATOM      3  C   UNL     1      -3.995  -2.861   2.362  0.00  0.00    +0.001 A 
ATOM      4  C   UNL     1      -4.759  -2.004   3.132  0.00  0.00    +0.004 A 
ATOM      5  C   UNL     1      -4.804  -0.657   2.831  0.00  0.00    +0.046 A 
ATOM      6  C   UNL     1      -4.077  -0.162   1.757  0.00  0.00    +0.125 A 
ENDROOT
BRANCH   1  10
ATOM      7  C   UNL     1      -0.018   1.503   0.010  0.00  0.00    +0.067 C 
ATOM      8  C   UNL     1       0.002  -0.004   0.002  0.00  0.00    +0.064 C 
ATOM      9  C   UNL     1      -1.065  -0.770   0.003  0.00  0.00    +0.005 C 
ATOM     10  C   UNL     1      -2.530  -0.492  -0.188  0.00  0.00    +0.063 C 
ATOM     11  C   UNL     1      -2.935  -1.225  -1.478  0.00  0.00    +0.108 C 
ATOM     12  C   UNL     1      -2.218  -2.527  -1.630  0.00  0.00    +0.216 C 
ATOM     13  O   UNL     1      -2.711  -3.319  -2.404  0.00  0.00    -0.276 OA
ATOM     14  N   UNL     1      -1.101  -2.925  -1.017  0.00  0.00    -0.289 N 
ATOM     15  C   UNL     1      -0.525  -2.191   0.101  0.00  0.00    +0.243 C 
ATOM     16  N   UNL     1       0.919  -1.988   0.009  0.00  0.00    -0.160 NA
ATOM     17  N   UNL     1       1.127  -0.766  -0.013  0.00  0.00    -0.157 NA
ATOM     18  H   UNL     1      -0.658  -3.731  -1.327  0.00  0.00    +0.151 HD
ENDBRANCH   1  10
BRANCH   6  19
ATOM     19  O   UNL     1      -4.115   1.164   1.462  0.00  0.00    -0.487 OA
BRANCH  19  20
ATOM     20  C   UNL     1      -4.920   1.992   2.303  0.00  0.00    +0.264 C 
BRANCH  20  21
ATOM     21  C   UNL     1      -4.840   3.420   1.827  0.00  0.00    -0.010 A 
ATOM     22  C   UNL     1      -3.859   4.259   2.321  0.00  0.00    +0.010 A 
ATOM     23  C   UNL     1      -3.784   5.568   1.884  0.00  0.00    +0.039 A 
ATOM     24  C   UNL     1      -4.693   6.039   0.951  0.00  0.00    +0.123 A 
ATOM     25  C   UNL     1      -5.675   5.197   0.457  0.00  0.00    +0.039 A 
ATOM     26  C   UNL     1      -5.745   3.887   0.891  0.00  0.00    +0.010 A 
ATOM     27  F   UNL     1      -4.621   7.319   0.524  0.00  0.00    -0.205 F 
ENDBRANCH  20  21
ENDBRANCH  19  20
ENDBRANCH   6  19
TORSDOF 4
