REMARK  Name = ZINC59788654
REMARK  6 active torsions:
REMARK  status: ('A' for Active; 'I' for Inactive)
REMARK    1  A    between atoms: C_3  and  C_10
REMARK    2  A    between atoms: C_5  and  N_7
REMARK    3  A    between atoms: C_13  and  S_16
REMARK    4  A    between atoms: S_16  and  C_17
REMARK    5  A    between atoms: C_17  and  C_18
REMARK    6  A    between atoms: C_18  and  C_19
REMARK                            x       y       z     vdW  Elec       q    Type
REMARK                         _______ _______ _______ _____ _____    ______ ____
ROOT
ATOM      1  S   UNL     1       5.684   5.477  -0.025  0.00  0.00    -0.086 S 
ENDROOT
BRANCH   1   5
ATOM      2  C   UNL     1       3.660   2.164  -0.022  0.00  0.00    +0.182 A 
ATOM      3  N   UNL     1       3.775   3.500  -0.016  0.00  0.00    -0.201 NA
ATOM      4  H   UNL     1       6.746   2.631  -0.049  0.00  0.00    +0.191 HD
ATOM      5  C   UNL     1       5.046   3.835  -0.027  0.00  0.00    +0.185 A 
ATOM      6  N   UNL     1       5.778   2.699  -0.040  0.00  0.00    -0.253 N 
ATOM      7  N   UNL     1       4.862   1.634  -0.030  0.00  0.00    -0.152 NA
BRANCH   2  10
ATOM      8  C   UNL     1      -0.017   1.379   0.010  0.00  0.00    +0.003 A 
ATOM      9  C   UNL     1       1.168   2.088   0.002  0.00  0.00    +0.012 A 
ATOM     10  C   UNL     1       2.384   1.408  -0.013  0.00  0.00    +0.023 A 
ATOM     11  C   UNL     1       2.397   0.014  -0.021  0.00  0.00    +0.044 A 
ATOM     12  C   UNL     1       1.206  -0.684  -0.013  0.00  0.00    +0.127 A 
ATOM     13  C   UNL     1       0.002  -0.004   0.002  0.00  0.00    +0.033 A 
BRANCH  12  14
ATOM     14  N   UNL     1       1.219  -2.165  -0.021  0.00  0.00    +0.056 N 
ATOM     15  O   UNL     1       2.271  -2.760  -0.034  0.00  0.00    -0.126 OA
ATOM     16  O   UNL     1       0.177  -2.778  -0.014  0.00  0.00    -0.126 OA
ENDBRANCH  12  14
ENDBRANCH   2  10
ENDBRANCH   1   5
BRANCH   1  17
ATOM     17  C   UNL     1       4.203   6.524  -0.005  0.00  0.00    +0.086 C 
BRANCH  17  18
ATOM     18  C   UNL     1       4.619   7.996  -0.003  0.00  0.00    +0.107 C 
BRANCH  18  19
ATOM     19  C   UNL     1       3.388   8.866   0.014  0.00  0.00    +0.219 C 
ATOM     20  O   UNL     1       2.287   8.358   0.023  0.00  0.00    -0.275 OA
ATOM     21  N   UNL     1       3.511  10.208   0.019  0.00  0.00    -0.265 N 
ATOM     22  C   UNL     1       2.379  11.007   0.034  0.00  0.00    +0.165 A 
ATOM     23  N   UNL     1       1.117  10.647   0.051  0.00  0.00    -0.225 NA
ATOM     24  C   UNL     1       0.107  11.543   0.065  0.00  0.00    +0.080 A 
ATOM     25  C   UNL     1      -1.284  11.290   0.083  0.00  0.00    +0.030 A 
ATOM     26  C   UNL     1      -2.184  12.323   0.094  0.00  0.00    +0.017 A 
ATOM     27  C   UNL     1      -1.768  13.648   0.088  0.00  0.00    +0.019 A 
ATOM     28  C   UNL     1      -0.414  13.932   0.071  0.00  0.00    +0.032 A 
ATOM     29  C   UNL     1       0.494  12.903   0.060  0.00  0.00    +0.042 A 
ATOM     30  S   UNL     1       2.267  12.791   0.044  0.00  0.00    -0.052 S 
ATOM     31 BR   UNL     1      -3.038  15.048   0.103  0.00  0.00    -0.050 Br
ATOM     32  H   UNL     1       4.392  10.614   0.012  0.00  0.00    +0.157 HD
ENDBRANCH  18  19
ENDBRANCH  17  18
ENDBRANCH   1  17
TORSDOF 6
