REMARK  Name = ZINC40367406
REMARK  4 active torsions:
REMARK  status: ('A' for Active; 'I' for Inactive)
REMARK    1  A    between atoms: C_3  and  N_11
REMARK    2  A    between atoms: C_6  and  C_7
REMARK    3  A    between atoms: N_8  and  O_9
REMARK    4  A    between atoms: C_12  and  C_14
REMARK                            x       y       z     vdW  Elec       q    Type
REMARK                         _______ _______ _______ _____ _____    ______ ____
ROOT
ATOM      1  C   UNL     1      -0.049   1.406  -0.392  0.00  0.00    +0.013 A 
ATOM      2  C   UNL     1       1.140   2.101  -0.438  0.00  0.00    +0.024 A 
ATOM      3  C   UNL     1       2.334   1.461  -0.127  0.00  0.00    +0.034 A 
ATOM      4  C   UNL     1       2.333   0.117   0.231  0.00  0.00    +0.024 A 
ATOM      5  C   UNL     1       1.147  -0.583   0.278  0.00  0.00    +0.013 A 
ATOM      6  C   UNL     1      -0.053   0.057  -0.033  0.00  0.00    +0.018 A 
ENDROOT
BRANCH   6   7
ATOM      7  C   UNL     1      -1.327  -0.692   0.018  0.00  0.00    +0.162 C 
ATOM      8  N   UNL     1      -1.468  -1.681   0.852  0.00  0.00    -0.072 NA
ATOM      9  N   UNL     1      -2.371  -0.341  -0.822  0.00  0.00    -0.340 N 
ATOM     10  H   UNL     1      -2.266   0.396  -1.444  0.00  0.00    +0.144 HD
ATOM     11  H   UNL     1      -3.207  -0.832  -0.789  0.00  0.00    +0.144 HD
BRANCH   8  12
ATOM     12  O   UNL     1      -0.454  -1.956   1.801  0.00  0.00    -0.408 OA
ATOM     13  H   UNL     1      -0.648  -2.708   2.377  0.00  0.00    +0.328 HD
ENDBRANCH   8  12
ENDBRANCH   6   7
BRANCH   3  14
ATOM     14  N   UNL     1       3.537   2.168  -0.175  0.00  0.00    -0.281 N 
ATOM     15  C   UNL     1       3.575   3.459   0.209  0.00  0.00    +0.255 C 
ATOM     16  O   UNL     1       2.547   4.033   0.517  0.00  0.00    -0.269 OA
ATOM     17  H   UNL     1       4.345   1.730  -0.484  0.00  0.00    +0.155 HD
BRANCH  15  18
ATOM     18  C   UNL     1       4.853   4.172   0.256  0.00  0.00    +0.075 A 
ATOM     19  C   UNL     1       5.110   5.484   0.623  0.00  0.00    +0.022 A 
ATOM     20  C   UNL     1       6.426   5.875   0.566  0.00  0.00    +0.024 A 
ATOM     21  C   UNL     1       7.362   4.977   0.165  0.00  0.00    +0.056 A 
ATOM     22  S   UNL     1       6.487   3.576  -0.138  0.00  0.00    -0.077 S 
ATOM     23 BR   UNL     1       9.227   5.242  -0.005  0.00  0.00    -0.043 Br
ENDBRANCH  15  18
ENDBRANCH   3  14
TORSDOF 4
