REMARK  Name = ZINC16334914
REMARK  10 active torsions:
REMARK  status: ('A' for Active; 'I' for Inactive)
REMARK    1  A    between atoms: C_3  and  S_28
REMARK    2  A    between atoms: C_6  and  C_7
REMARK    3  A    between atoms: C_7  and  C_8
REMARK    4  A    between atoms: C_8  and  N_9
REMARK    5  A    between atoms: C_10  and  C_12
REMARK    6  A    between atoms: C_12  and  S_13
REMARK    7  A    between atoms: S_13  and  C_14
REMARK    8  A    between atoms: N_19  and  C_20
REMARK    9  A    between atoms: C_20  and  C_21
REMARK   10  A    between atoms: S_28  and  N_31
REMARK                            x       y       z     vdW  Elec       q    Type
REMARK                         _______ _______ _______ _____ _____    ______ ____
ROOT
ATOM      1  N   UNL     1       0.002  -0.004   0.002  0.00  0.00    -0.314 N 
ATOM      2  C   UNL     1      -0.016   1.344   0.009  0.00  0.00    +0.223 C 
ATOM      3  O   UNL     1      -1.075   1.936   0.018  0.00  0.00    -0.275 OA
ATOM      4  H   UNL     1       0.849  -0.478  -0.009  0.00  0.00    +0.149 HD
ENDROOT
BRANCH   1   5
ATOM      5  C   UNL     1      -1.256  -0.754   0.010  0.00  0.00    +0.109 C 
BRANCH   5   6
ATOM      6  C   UNL     1      -0.957  -2.254  -0.001  0.00  0.00    +0.054 C 
BRANCH   6  12
ATOM      7  C   UNL     1      -2.831  -3.390   1.208  0.00  0.00    +0.005 A 
ATOM      8  C   UNL     1      -4.021  -4.094   1.216  0.00  0.00    +0.029 A 
ATOM      9  C   UNL     1      -4.626  -4.440   0.022  0.00  0.00    +0.105 A 
ATOM     10  C   UNL     1      -4.044  -4.080  -1.179  0.00  0.00    +0.029 A 
ATOM     11  C   UNL     1      -2.857  -3.373  -1.186  0.00  0.00    +0.005 A 
ATOM     12  C   UNL     1      -2.251  -3.025   0.007  0.00  0.00    -0.046 A 
BRANCH   9  13
ATOM     13  S   UNL     1      -6.141  -5.341   0.032  0.00  0.00    +0.056 S 
ATOM     14  O   UNL     1      -6.759  -5.083   1.285  0.00  0.00    -0.153 OA
ATOM     15  O   UNL     1      -6.784  -5.068  -1.205  0.00  0.00    -0.153 OA
BRANCH  13  16
ATOM     16  N   UNL     1      -5.753  -6.951   0.018  0.00  0.00    -0.204 NA
ATOM     17  H   UNL     1      -6.343  -7.595   0.441  0.00  0.00    +0.144 HD
ATOM     18  H   UNL     1      -4.936  -7.250  -0.411  0.00  0.00    +0.144 HD
ENDBRANCH  13  16
ENDBRANCH   9  13
ENDBRANCH   6  12
ENDBRANCH   5   6
ENDBRANCH   1   5
BRANCH   2  19
ATOM     19  C   UNL     1       1.278   2.115   0.001  0.00  0.00    +0.172 C 
BRANCH  19  20
ATOM     20  S   UNL     1       0.923   3.893   0.014  0.00  0.00    -0.088 S 
BRANCH  20  21
ATOM     21  C   UNL     1       2.516   4.647   0.003  0.00  0.00    +0.160 A 
ATOM     22  N   UNL     1       3.708   4.082  -0.012  0.00  0.00    -0.133 NA
ATOM     23  N   UNL     1       4.837   4.867  -0.019  0.00  0.00    -0.125 NA
ATOM     24  C   UNL     1       4.723   6.181  -0.011  0.00  0.00    +0.183 A 
ATOM     25  S   UNL     1       2.948   6.380   0.001  0.00  0.00    -0.025 S 
ATOM     26  N   UNL     1       5.719   7.151  -0.016  0.00  0.00    -0.318 N 
ATOM     27  H   UNL     1       5.480   8.091  -0.009  0.00  0.00    +0.148 HD
BRANCH  26  28
ATOM     28  C   UNL     1       7.129   6.754  -0.032  0.00  0.00    +0.138 C 
BRANCH  28  29
ATOM     29  C   UNL     1       7.997   7.985  -0.034  0.00  0.00    -0.030 A 
ATOM     30  C   UNL     1       8.389   8.552  -1.233  0.00  0.00    +0.008 A 
ATOM     31  C   UNL     1       9.181   9.684  -1.236  0.00  0.00    +0.038 A 
ATOM     32  C   UNL     1       9.592  10.244  -0.039  0.00  0.00    +0.123 A 
ATOM     33  C   UNL     1       9.204   9.673   1.161  0.00  0.00    +0.038 A 
ATOM     34  C   UNL     1       8.407   8.544   1.162  0.00  0.00    +0.008 A 
ATOM     35  F   UNL     1      10.371  11.348  -0.041  0.00  0.00    -0.205 F 
ENDBRANCH  28  29
ENDBRANCH  26  28
ENDBRANCH  20  21
ENDBRANCH  19  20
ENDBRANCH   2  19
TORSDOF 10
