REMARK  Name = ZINC45626964
REMARK  1 active torsions:
REMARK  status: ('A' for Active; 'I' for Inactive)
REMARK    1  A    between atoms: C_6  and  C_7
REMARK                            x       y       z     vdW  Elec       q    Type
REMARK                         _______ _______ _______ _____ _____    ______ ____
ROOT
ATOM      1  C   UNL     1      -0.019   1.522   0.010  0.00  0.00    +0.048 C 
ATOM      2  C   UNL     1       1.414   2.063  -0.000  0.00  0.00    +0.072 C 
ATOM      3  S   UNL     1       2.255   1.516   1.516  0.00  0.00    -0.161 S 
ATOM      4  C   UNL     1       1.978  -0.281   1.513  0.00  0.00    +0.072 C 
ATOM      5  C   UNL     1       0.479  -0.547   1.346  0.00  0.00    +0.048 C 
ATOM      6  C   UNL     1       0.002  -0.004   0.002  0.00  0.00    +0.132 C 
ATOM      7 CL   UNL     1      -1.661  -0.618  -0.329  0.00  0.00    -0.102 Cl
ENDROOT
BRANCH   6   8
ATOM      8  C   UNL     1       0.910  -0.470  -1.059  0.00  0.00    +0.085 C 
ATOM      9  N   UNL     1       1.610  -0.830  -1.878  0.00  0.00    -0.195 NA
ENDBRANCH   6   8
TORSDOF 1
