REMARK  Name = ZINC08315026
REMARK  6 active torsions:
REMARK  status: ('A' for Active; 'I' for Inactive)
REMARK    1  A    between atoms: C_1  and  C_2
REMARK    2  A    between atoms: C_5  and  C_8
REMARK    3  A    between atoms: C_13  and  S_17
REMARK    4  A    between atoms: S_17  and  C_18
REMARK    5  A    between atoms: C_18  and  C_19
REMARK    6  A    between atoms: C_21  and  C_24
REMARK                            x       y       z     vdW  Elec       q    Type
REMARK                         _______ _______ _______ _____ _____    ______ ____
ROOT
ATOM      1  C   UNL     1       3.733  -0.515  -0.036  0.00  0.00    +0.001 A 
ATOM      2  C   UNL     1       4.751   0.361  -0.213  0.00  0.00    +0.056 A 
ATOM      3  S   UNL     1       3.953   1.952  -0.119  0.00  0.00    -0.076 S 
ATOM      4  C   UNL     1       2.285   1.413   0.153  0.00  0.00    +0.113 A 
ATOM      5  C   UNL     1       2.386   0.007   0.165  0.00  0.00    +0.047 A 
ATOM      6  C   UNL     1       1.165  -0.690   0.370  0.00  0.00    +0.109 A 
ATOM      7  N   UNL     1       0.046  -0.000   0.532  0.00  0.00    -0.229 NA
ATOM      8  C   UNL     1       0.025   1.320   0.509  0.00  0.00    +0.223 A 
ATOM      9  N   UNL     1       1.127   2.021   0.323  0.00  0.00    -0.228 NA
ENDROOT
BRANCH   1  14
ATOM     10  C   UNL     1       4.705  -6.190  -0.077  0.00  0.00    +0.044 C 
ATOM     11  C   UNL     1       4.451  -4.705  -0.066  0.00  0.00    -0.050 A 
ATOM     12  C   UNL     1       3.566  -4.150  -0.974  0.00  0.00    +0.004 A 
ATOM     13  C   UNL     1       3.329  -2.791  -0.969  0.00  0.00    +0.009 A 
ATOM     14  C   UNL     1       3.983  -1.976  -0.046  0.00  0.00    -0.017 A 
ATOM     15  C   UNL     1       4.879  -2.539   0.862  0.00  0.00    +0.009 A 
ATOM     16  C   UNL     1       5.103  -3.901   0.851  0.00  0.00    +0.004 A 
ENDBRANCH   1  14
BRANCH   6  17
ATOM     17  S   UNL     1       1.140  -2.452   0.410  0.00  0.00    -0.097 S 
BRANCH  17  18
ATOM     18  C   UNL     1      -0.625  -2.735   0.693  0.00  0.00    +0.153 C 
BRANCH  18  19
ATOM     19  C   UNL     1      -0.891  -4.216   0.765  0.00  0.00    +0.148 A 
ATOM     20  C   UNL     1      -0.866  -4.992   1.875  0.00  0.00    +0.071 A 
ATOM     21  C   UNL     1      -1.181  -6.284   1.396  0.00  0.00    +0.081 A 
ATOM     22  N   UNL     1      -1.357  -6.168   0.112  0.00  0.00    -0.083 NA
ATOM     23  O   UNL     1      -1.205  -5.026  -0.256  0.00  0.00    -0.359 OA
ATOM     24  C   UNL     1      -1.293  -7.547   2.212  0.00  0.00    +0.069 C 
ENDBRANCH  18  19
ENDBRANCH  17  18
ENDBRANCH   6  17
TORSDOF 4
