REMARK  Name = ZINC08254633
REMARK  6 active torsions:
REMARK  status: ('A' for Active; 'I' for Inactive)
REMARK    1  A    between atoms: C_1  and  C_2
REMARK    2  A    between atoms: C_5  and  N_8
REMARK    3  A    between atoms: C_11  and  C_25
REMARK    4  A    between atoms: C_14  and  O_24
REMARK    5  A    between atoms: C_16  and  O_23
REMARK    6  A    between atoms: N_27  and  C_28
REMARK                            x       y       z     vdW  Elec       q    Type
REMARK                         _______ _______ _______ _____ _____    ______ ____
ROOT
ATOM      1  N   UNL     1       2.612   1.139  -0.577  0.00  0.00    -0.277 N 
ATOM      2  C   UNL     1       3.897   1.838  -0.580  0.00  0.00    +0.115 C 
ATOM      3  C   UNL     1       3.897   3.141  -1.298  0.00  0.00    +0.100 C 
ATOM      4  C   UNL     1       4.395   3.102  -2.724  0.00  0.00    +0.048 C 
ATOM      5  C   UNL     1       5.668   2.291  -2.856  0.00  0.00    +0.146 C 
ATOM      6  C   UNL     1       5.518   0.896  -2.319  0.00  0.00    +0.165 C 
ATOM      7  C   UNL     1       4.926   0.790  -0.934  0.00  0.00    +0.124 C 
ATOM      8  N   UNL     1       4.153  -0.474  -0.861  0.00  0.00    -0.319 N 
ATOM      9  C   UNL     1       2.855  -0.177  -0.704  0.00  0.00    +0.138 C 
ATOM     10  S   UNL     1       1.622  -1.364  -0.668  0.00  0.00    -0.018 S 
ATOM     11  H   UNL     1       4.526  -1.367  -0.917  0.00  0.00    +0.148 HD
ENDROOT
BRANCH   1  16
ATOM     12  C   UNL     1      -2.501   3.557  -0.129  0.00  0.00    +0.044 C 
ATOM     13  C   UNL     1      -1.143   2.915  -0.248  0.00  0.00    -0.050 A 
ATOM     14  C   UNL     1      -0.237   3.019   0.791  0.00  0.00    +0.005 A 
ATOM     15  C   UNL     1       1.011   2.436   0.683  0.00  0.00    +0.024 A 
ATOM     16  C   UNL     1       1.351   1.736  -0.467  0.00  0.00    +0.036 A 
ATOM     17  C   UNL     1       0.437   1.629  -1.507  0.00  0.00    +0.024 A 
ATOM     18  C   UNL     1      -0.807   2.218  -1.395  0.00  0.00    +0.005 A 
ENDBRANCH   1  16
BRANCH   3  19
ATOM     19  C   UNL     1       2.487   3.674  -1.309  0.00  0.00    +0.218 C 
ATOM     20  O   UNL     1       1.717   3.332  -2.182  0.00  0.00    -0.275 OA
ATOM     21  N   UNL     1       2.083   4.529  -0.350  0.00  0.00    -0.312 N 
ATOM     22  H   UNL     1       2.699   4.801   0.348  0.00  0.00    +0.149 HD
BRANCH  21  23
ATOM     23  C   UNL     1       0.713   5.049  -0.362  0.00  0.00    +0.073 C 
ATOM     24  C   UNL     1       0.531   6.565  -0.260  0.00  0.00    +0.024 C 
ATOM     25  C   UNL     1       0.182   5.670   0.931  0.00  0.00    +0.024 C 
ENDBRANCH  21  23
ENDBRANCH   3  19
BRANCH   6  26
ATOM     26  O   UNL     1       4.684   0.167  -3.222  0.00  0.00    -0.387 OA
ATOM     27  H   UNL     1       4.990   0.180  -4.139  0.00  0.00    +0.210 HD
ENDBRANCH   6  26
BRANCH   5  28
ATOM     28  O   UNL     1       6.712   2.949  -2.134  0.00  0.00    -0.389 OA
ATOM     29  H   UNL     1       6.903   3.843  -2.447  0.00  0.00    +0.210 HD
ENDBRANCH   5  28
TORSDOF 5
