REMARK  Name = ZINC06193784
REMARK  12 active torsions:
REMARK  status: ('A' for Active; 'I' for Inactive)
REMARK    1  A    between atoms: C_1  and  C_2
REMARK    2  A    between atoms: C_2  and  N_67
REMARK    3  A    between atoms: C_3  and  C_4
REMARK    4  A    between atoms: C_3  and  N_67
REMARK    5  A    between atoms: C_10  and  C_12
REMARK    6  A    between atoms: C_10  and  C_25
REMARK    7  A    between atoms: C_10  and  N_67
REMARK    8  A    between atoms: C_17  and  C_24
REMARK    9  A    between atoms: N_29  and  C_30
REMARK   10  A    between atoms: C_30  and  C_31
REMARK   11  A    between atoms: C_34  and  O_37
REMARK   12  A    between atoms: O_37  and  C_38
REMARK                            x       y       z     vdW  Elec       q    Type
REMARK                         _______ _______ _______ _____ _____    ______ ____
ROOT
ATOM      1  C   UNL     1       2.883   1.693  -2.675  0.00  0.00    +0.039 C 
ENDROOT
BRANCH   1   2
ATOM      2  C   UNL     1       3.332   2.990  -3.298  0.00  0.00    +0.011 A 
ATOM      3  C   UNL     1       2.421   3.818  -3.865  0.00  0.00    +0.017 A 
ATOM      4  C   UNL     1       2.890   5.070  -4.462  0.00  0.00    -0.001 A 
ATOM      5  C   UNL     1       1.997   5.965  -5.062  0.00  0.00    +0.010 A 
ATOM      6  C   UNL     1       2.467   7.125  -5.610  0.00  0.00    +0.004 A 
ATOM      7  C   UNL     1       3.822   7.424  -5.577  0.00  0.00    -0.048 A 
ATOM      8  C   UNL     1       4.719   6.558  -4.991  0.00  0.00    +0.029 A 
ATOM      9  C   UNL     1       4.265   5.370  -4.427  0.00  0.00    +0.049 A 
ATOM     10  N   UNL     1       5.140   4.485  -3.834  0.00  0.00    -0.322 N 
ATOM     11  H   UNL     1       6.117   4.698  -3.813  0.00  0.00    +0.169 HD
ATOM     12  C   UNL     1       4.699   3.340  -3.284  0.00  0.00    +0.251 A 
ATOM     13  O   UNL     1       5.501   2.584  -2.764  0.00  0.00    -0.268 OA
ATOM     14  C   UNL     1       4.317   8.710  -6.187  0.00  0.00    +0.044 C 
ENDBRANCH   1   2
BRANCH   1  15
ATOM     15  C   UNL     1       3.110   1.747  -1.186  0.00  0.00    +0.143 A 
ATOM     16  N   UNL     1       4.261   1.658  -0.566  0.00  0.00    -0.115 NA
ATOM     17  N   UNL     1       4.039   1.746   0.700  0.00  0.00    -0.023 NA
ATOM     18  N   UNL     1       2.777   1.894   0.904  0.00  0.00    -0.044 NA
ATOM     19  N   UNL     1       2.169   1.894  -0.234  0.00  0.00    -0.226 N 
BRANCH  19  20
ATOM     20  C   UNL     1       0.727   2.034  -0.451  0.00  0.00    +0.182 C 
BRANCH  20  21
ATOM     21  C   UNL     1       0.069   0.683  -0.336  0.00  0.00    -0.026 A 
ATOM     22  C   UNL     1      -0.079  -0.111  -1.458  0.00  0.00    +0.009 A 
ATOM     23  C   UNL     1      -0.677  -1.351  -1.354  0.00  0.00    +0.046 A 
ATOM     24  C   UNL     1      -1.140  -1.796  -0.124  0.00  0.00    +0.120 A 
ATOM     25  C   UNL     1      -0.996  -0.996   0.999  0.00  0.00    +0.046 A 
ATOM     26  C   UNL     1      -0.392   0.242   0.891  0.00  0.00    +0.009 A 
BRANCH  24  27
ATOM     27  O   UNL     1      -1.734  -3.014  -0.021  0.00  0.00    -0.495 OA
ATOM     28  C   UNL     1      -1.848  -3.785  -1.219  0.00  0.00    +0.277 C 
ENDBRANCH  24  27
ENDBRANCH  20  21
ENDBRANCH  19  20
ENDBRANCH   1  15
BRANCH   1  29
ATOM     29  N   UNL     1       3.682   0.588  -3.245  0.00  0.00    +0.392 N 
ATOM     30  H   UNL     1       4.679   0.806  -3.137  0.00  0.00    -0.080 HD
BRANCH  29  32
ATOM     31  C   UNL     1       4.132   1.513  -5.462  0.00  0.00    -0.017 C 
ATOM     32  C   UNL     1       3.377   0.434  -4.683  0.00  0.00    -0.080 C 
ENDBRANCH  29  32
BRANCH  29  33
ATOM     33  C   UNL     1       3.385  -0.671  -2.528  0.00  0.00    -0.042 C 
BRANCH  33  34
ATOM     34  C   UNL     1       4.244  -0.733  -1.291  0.00  0.00    -0.064 A 
ATOM     35  C   UNL     1       5.621  -0.726  -1.405  0.00  0.00    +0.002 A 
ATOM     36  C   UNL     1       6.408  -0.778  -0.269  0.00  0.00    +0.000 A 
ATOM     37  C   UNL     1       5.818  -0.848   0.979  0.00  0.00    +0.000 A 
ATOM     38  C   UNL     1       4.440  -0.860   1.092  0.00  0.00    +0.000 A 
ATOM     39  C   UNL     1       3.653  -0.803  -0.043  0.00  0.00    +0.002 A 
ENDBRANCH  33  34
ENDBRANCH  29  33
ENDBRANCH   1  29
TORSDOF 9
