REMARK  Name = ZINC39453301
REMARK  3 active torsions:
REMARK  status: ('A' for Active; 'I' for Inactive)
REMARK    1  A    between atoms: C_4  and  C_7
REMARK    2  A    between atoms: C_7  and  N_8
REMARK    3  A    between atoms: C_25  and  O_30
REMARK                            x       y       z     vdW  Elec       q    Type
REMARK                         _______ _______ _______ _____ _____    ______ ____
ROOT
ATOM      1  N   UNL     1       4.210  -0.847   1.333  0.00  0.00    -0.299 N 
ATOM      2  C   UNL     1       4.938   0.198   1.892  0.00  0.00    +0.111 A 
ATOM      3  C   UNL     1       5.434   0.109   3.178  0.00  0.00    +0.083 A 
ATOM      4  C   UNL     1       5.187  -1.102   3.979  0.00  0.00    +0.100 A 
ATOM      5  C   UNL     1       4.440  -2.153   3.383  0.00  0.00    +0.067 A 
ATOM      6  C   UNL     1       3.945  -1.979   2.008  0.00  0.00    +0.261 A 
ATOM      7  O   UNL     1       3.298  -2.864   1.479  0.00  0.00    -0.267 OA
ATOM      8  C   UNL     1       4.180  -3.317   4.092  0.00  0.00    +0.026 A 
ATOM      9  C   UNL     1       4.679  -3.410   5.401  0.00  0.00    +0.014 A 
ATOM     10  C   UNL     1       5.440  -2.285   5.951  0.00  0.00    +0.073 A 
ATOM     11  N   UNL     1       5.651  -1.198   5.211  0.00  0.00    -0.245 NA
ATOM     12  C   UNL     1       5.935  -2.388   7.264  0.00  0.00    +0.028 A 
ATOM     13  C   UNL     1       5.699  -3.518   7.985  0.00  0.00    +0.003 A 
ATOM     14  C   UNL     1       4.978  -4.586   7.459  0.00  0.00    +0.015 A 
ATOM     15  C   UNL     1       4.470  -4.550   6.195  0.00  0.00    +0.023 A 
ATOM     16  I   UNL     1       3.388  -6.178   5.444  0.00  0.00    -0.043 I 
ATOM     17  N   UNL     1       6.165   1.155   3.708  0.00  0.00    -0.316 N 
ATOM     18  C   UNL     1       6.892   2.037   2.783  0.00  0.00    +0.207 C 
ATOM     19  C   UNL     1       5.905   2.537   1.722  0.00  0.00    +0.132 C 
ATOM     20  C   UNL     1       5.173   1.363   1.127  0.00  0.00    +0.185 C 
ATOM     21  O   UNL     1       4.781   1.418  -0.021  0.00  0.00    -0.290 OA
ATOM     22  H   UNL     1       6.197   1.303   4.666  0.00  0.00    +0.149 HD
ENDROOT
BRANCH  18  23
ATOM     23  O   UNL     1       7.949   1.309   2.153  0.00  0.00    -0.374 OA
ATOM     24  H   UNL     1       8.600   0.948   2.771  0.00  0.00    +0.212 HD
ENDBRANCH  18  23
BRANCH   1  25
ATOM     25  C   UNL     1       3.711  -0.707  -0.038  0.00  0.00    +0.160 C 
BRANCH  25  29
ATOM     26  C   UNL     1      -0.203   1.001   0.039  0.00  0.00    +0.000 A 
ATOM     27  C   UNL     1       0.899   1.808  -0.175  0.00  0.00    +0.000 A 
ATOM     28  C   UNL     1       2.166   1.255  -0.200  0.00  0.00    +0.005 A 
ATOM     29  C   UNL     1       2.330  -0.104  -0.010  0.00  0.00    -0.028 A 
ATOM     30  C   UNL     1       1.228  -0.911   0.205  0.00  0.00    +0.005 A 
ATOM     31  C   UNL     1      -0.039  -0.358   0.229  0.00  0.00    +0.000 A 
ENDBRANCH  25  29
ENDBRANCH   1  25
TORSDOF 3
