REMARK  Name = ZINC39597682
REMARK  5 active torsions:
REMARK  status: ('A' for Active; 'I' for Inactive)
REMARK    1  A    between atoms: C_7  and  C_10
REMARK    2  A    between atoms: C_10  and  C_11
REMARK    3  A    between atoms: C_11  and  N_12
REMARK    4  A    between atoms: C_13  and  C_15
REMARK    5  A    between atoms: C_26  and  C_28
REMARK                            x       y       z     vdW  Elec       q    Type
REMARK                         _______ _______ _______ _____ _____    ______ ____
ROOT
ATOM      1  C   UNL     1      -6.078   6.594  -2.696  0.00  0.00    +0.100 C 
ATOM      2  C   UNL     1      -7.463   6.905  -2.086  0.00  0.00    +0.121 C 
ATOM      3  N   UNL     1      -8.008   7.993  -2.930  0.00  0.00    -0.296 N 
ATOM      4  C   UNL     1      -7.602   7.630  -4.308  0.00  0.00    +0.115 C 
ATOM      5  C   UNL     1      -6.173   7.071  -4.155  0.00  0.00    -0.004 C 
ATOM      6  C   UNL     1      -5.960   5.899  -5.109  0.00  0.00    -0.010 C 
ATOM      7  C   UNL     1      -6.002   6.408  -6.552  0.00  0.00    -0.082 C 
ATOM      8  N   UNL     1      -4.956   7.419  -6.747  0.00  0.00    +0.379 N 
ATOM      9  C   UNL     1      -5.220   8.584  -5.893  0.00  0.00    -0.082 C 
ATOM     10  C   UNL     1      -5.146   8.167  -4.421  0.00  0.00    -0.010 C 
ATOM     11  C   UNL     1      -8.715   9.071  -2.534  0.00  0.00    +0.247 C 
ATOM     12  O   UNL     1      -8.861   9.300  -1.349  0.00  0.00    -0.270 OA
ATOM     13  H   UNL     1      -4.059   7.024  -6.506  0.00  0.00    -0.086 HD
ATOM     14  H   UNL     1      -4.945   7.708  -7.713  0.00  0.00    -0.086 HD
ENDROOT
BRANCH  11  15
ATOM     15  C   UNL     1      -9.312   9.973  -3.540  0.00  0.00    +0.037 A 
ATOM     16  C   UNL     1      -9.532   9.523  -4.843  0.00  0.00    +0.014 A 
ATOM     17  C   UNL     1     -10.090  10.370  -5.778  0.00  0.00    +0.016 A 
ATOM     18  C   UNL     1     -10.431  11.665  -5.426  0.00  0.00    +0.018 A 
ATOM     19  C   UNL     1     -10.216  12.118  -4.136  0.00  0.00    +0.016 A 
ATOM     20  C   UNL     1      -9.664  11.278  -3.191  0.00  0.00    +0.014 A 
ATOM     21 BR   UNL     1     -11.195  12.820  -6.714  0.00  0.00    -0.050 Br
ENDBRANCH  11  15
BRANCH   1  23
ATOM     22  N   UNL     1      -4.534   4.668  -2.534  0.00  0.00    -0.315 N 
ATOM     23  C   UNL     1      -5.801   5.114  -2.644  0.00  0.00    +0.218 C 
ATOM     24  O   UNL     1      -6.720   4.323  -2.702  0.00  0.00    -0.275 OA
ATOM     25  H   UNL     1      -3.800   5.300  -2.488  0.00  0.00    +0.149 HD
BRANCH  22  26
ATOM     26  C   UNL     1      -4.266   3.229  -2.485  0.00  0.00    +0.109 C 
BRANCH  26  27
ATOM     27  C   UNL     1      -2.759   2.995  -2.360  0.00  0.00    +0.056 C 
BRANCH  27  34
ATOM     28  C   UNL     1      -2.193  -0.279  -5.667  0.00  0.00    +0.001 A 
ATOM     29  C   UNL     1      -1.952  -1.541  -5.143  0.00  0.00    +0.002 A 
ATOM     30  C   UNL     1      -1.898  -1.737  -3.780  0.00  0.00    +0.026 A 
ATOM     31  C   UNL     1      -2.086  -0.661  -2.919  0.00  0.00    +0.047 A 
ATOM     32  N   UNL     1      -2.093  -0.534  -1.548  0.00  0.00    -0.360 N 
ATOM     33  C   UNL     1      -2.330   0.768  -1.203  0.00  0.00    +0.087 A 
ATOM     34  C   UNL     1      -2.483   1.514  -2.308  0.00  0.00    -0.021 A 
ATOM     35  C   UNL     1      -2.330   0.616  -3.455  0.00  0.00    +0.003 A 
ATOM     36  C   UNL     1      -2.376   0.793  -4.839  0.00  0.00    +0.010 A 
ATOM     37  H   UNL     1      -1.950  -1.260  -0.920  0.00  0.00    +0.165 HD
ENDBRANCH  27  34
ENDBRANCH  26  27
ENDBRANCH  22  26
ENDBRANCH   1  23
TORSDOF 5
