REMARK  Name = ZINC40728537
REMARK  7 active torsions:
REMARK  status: ('A' for Active; 'I' for Inactive)
REMARK    1  A    between atoms: C_1  and  C_2
REMARK    2  A    between atoms: C_3  and  C_19
REMARK    3  A    between atoms: N_5  and  C_8
REMARK    4  A    between atoms: C_6  and  C_7
REMARK    5  A    between atoms: C_11  and  S_15
REMARK    6  A    between atoms: C_13  and  N_14
REMARK    7  A    between atoms: S_15  and  N_18
REMARK                            x       y       z     vdW  Elec       q    Type
REMARK                         _______ _______ _______ _____ _____    ______ ____
ROOT
ATOM      1  C   UNL     1       0.024  -3.238   1.472  0.00  0.00    +0.086 A 
ATOM      2  C   UNL     1       0.124  -3.114   2.850  0.00  0.00    +0.031 A 
ATOM      3  C   UNL     1       0.171  -4.244   3.643  0.00  0.00    +0.031 A 
ATOM      4  C   UNL     1       0.118  -5.501   3.068  0.00  0.00    +0.107 A 
ATOM      5  C   UNL     1       0.018  -5.634   1.697  0.00  0.00    +0.053 A 
ATOM      6  C   UNL     1      -0.036  -4.505   0.892  0.00  0.00    +0.052 A 
ENDROOT
BRANCH   1  11
ATOM      7  C   UNL     1       1.087   1.187  -0.490  0.00  0.00    +0.047 C 
ATOM      8  C   UNL     1       0.434  -0.142  -0.210  0.00  0.00    -0.007 A 
ATOM      9  C   UNL     1      -0.672  -0.673  -0.882  0.00  0.00    +0.064 A 
ATOM     10  N   UNL     1      -0.947  -1.842  -0.359  0.00  0.00    -0.171 NA
ATOM     11  N   UNL     1      -0.024  -2.091   0.664  0.00  0.00    -0.235 N 
ATOM     12  C   UNL     1       0.817  -1.035   0.732  0.00  0.00    +0.045 A 
ATOM     13  C   UNL     1       1.972  -0.878   1.688  0.00  0.00    +0.066 C 
ATOM     14  C   UNL     1      -1.418  -0.015  -2.014  0.00  0.00    +0.068 C 
ENDBRANCH   1  11
BRANCH   6  15
ATOM     15  N   UNL     1      -0.143  -4.636  -0.495  0.00  0.00    -0.356 N 
ATOM     16  H   UNL     1      -0.084  -3.852  -1.063  0.00  0.00    +0.142 HD
ATOM     17  H   UNL     1      -0.277  -5.512  -0.890  0.00  0.00    +0.142 HD
ENDBRANCH   6  15
BRANCH   4  18
ATOM     18  S   UNL     1       0.178  -6.937   4.088  0.00  0.00    +0.056 S 
ATOM     19  O   UNL     1       0.661  -7.995   3.272  0.00  0.00    -0.153 OA
ATOM     20  O   UNL     1       0.821  -6.551   5.295  0.00  0.00    -0.153 OA
BRANCH  18  21
ATOM     21  N   UNL     1      -1.383  -7.321   4.486  0.00  0.00    -0.204 NA
ATOM     22  H   UNL     1      -2.115  -6.778   4.155  0.00  0.00    +0.144 HD
ATOM     23  H   UNL     1      -1.565  -8.090   5.048  0.00  0.00    +0.144 HD
ENDBRANCH  18  21
ENDBRANCH   4  18
TORSDOF 4
