REMARK  Name = ZINC53123352
REMARK  13 active torsions:
REMARK  status: ('A' for Active; 'I' for Inactive)
REMARK    1  A    between atoms: C_1  and  C_2
REMARK    2  A    between atoms: C_2  and  C_3
REMARK    3  A    between atoms: C_2  and  C_4
REMARK    4  A    between atoms: C_2  and  C_5
REMARK    5  A    between atoms: C_5  and  C_6
REMARK    6  A    between atoms: C_6  and  C_7
REMARK    7  A    between atoms: C_6  and  C_8
REMARK    8  A    between atoms: C_6  and  N_9
REMARK    9  A    between atoms: N_9  and  C_10
REMARK   10  A    between atoms: C_10  and  C_11
REMARK   11  A    between atoms: N_13  and  C_14
REMARK   12  A    between atoms: C_18  and  S_20
REMARK   13  A    between atoms: S_20  and  N_23
REMARK                            x       y       z     vdW  Elec       q    Type
REMARK                         _______ _______ _______ _____ _____    ______ ____
ROOT
ATOM      1  C   UNL     1       4.411  -0.488  -3.352  0.00  0.00    +0.200 C 
ATOM      2  O   UNL     1       3.852  -1.210  -4.151  0.00  0.00    -0.278 OA
ATOM      3  N   UNL     1       5.701  -0.145  -3.542  0.00  0.00    -0.287 N 
ATOM      4  H   UNL     1       6.173   0.360  -2.862  0.00  0.00    +0.155 HD
ENDROOT
BRANCH   3   5
ATOM      5  C   UNL     1       6.358  -0.517  -4.720  0.00  0.00    +0.035 A 
ATOM      6  C   UNL     1       7.712  -0.825  -4.694  0.00  0.00    +0.023 A 
ATOM      7  C   UNL     1       8.358  -1.192  -5.858  0.00  0.00    +0.004 A 
ATOM      8  C   UNL     1       7.657  -1.254  -7.049  0.00  0.00    +0.028 A 
ATOM      9  C   UNL     1       6.309  -0.948  -7.078  0.00  0.00    +0.107 A 
ATOM     10  C   UNL     1       5.656  -0.587  -5.916  0.00  0.00    +0.051 A 
BRANCH   9  11
ATOM     11  S   UNL     1       5.421  -1.028  -8.598  0.00  0.00    +0.056 S 
ATOM     12  O   UNL     1       4.299  -0.168  -8.458  0.00  0.00    -0.153 OA
ATOM     13  O   UNL     1       6.379  -0.868  -9.636  0.00  0.00    -0.153 OA
BRANCH  11  14
ATOM     14  N   UNL     1       4.825  -2.567  -8.737  0.00  0.00    -0.204 NA
ATOM     15  H   UNL     1       3.997  -2.724  -9.217  0.00  0.00    +0.144 HD
ATOM     16  H   UNL     1       5.304  -3.310  -8.338  0.00  0.00    +0.144 HD
ENDBRANCH  11  14
ENDBRANCH   9  11
ENDBRANCH   3   5
BRANCH   1  17
ATOM     17  C   UNL     1       3.665   0.024  -2.148  0.00  0.00    +0.016 C 
BRANCH  17  18
ATOM     18  N   UNL     1       2.288  -0.488  -2.170  0.00  0.00    +0.388 N 
ATOM     19  H   UNL     1       2.305  -1.497  -2.152  0.00  0.00    -0.084 HD
ATOM     20  H   UNL     1       1.826  -0.175  -3.011  0.00  0.00    -0.084 HD
BRANCH  18  21
ATOM     21  C   UNL     1       1.560   0.011  -0.996  0.00  0.00    -0.073 C 
ATOM     22  C   UNL     1       1.353   1.521  -1.129  0.00  0.00    -0.010 C 
ATOM     23  C   UNL     1       2.369  -0.283   0.269  0.00  0.00    -0.010 C 
BRANCH  21  24
ATOM     24  C   UNL     1       0.201  -0.685  -0.905  0.00  0.00    -0.007 C 
BRANCH  24  26
ATOM     25  C   UNL     1       0.442  -1.920  -3.063  0.00  0.00    +0.010 C 
ATOM     26  C   UNL     1      -0.374  -0.867  -2.311  0.00  0.00    -0.039 C 
ATOM     27  C   UNL     1      -0.309   0.463  -3.065  0.00  0.00    +0.010 C 
ATOM     28  C   UNL     1      -1.831  -1.325  -2.211  0.00  0.00    +0.010 C 
ENDBRANCH  24  26
ENDBRANCH  21  24
ENDBRANCH  18  21
ENDBRANCH  17  18
ENDBRANCH   1  17
TORSDOF 8
