REMARK  Name = ZINC35775086
REMARK  13 active torsions:
REMARK  status: ('A' for Active; 'I' for Inactive)
REMARK    1  A    between atoms: C_1  and  C_2
REMARK    2  A    between atoms: C_5  and  N_9
REMARK    3  A    between atoms: C_6  and  C_8
REMARK    4  A    between atoms: N_12  and  C_13
REMARK    5  A    between atoms: N_12  and  C_17
REMARK    6  A    between atoms: C_13  and  C_14
REMARK    7  A    between atoms: C_14  and  O_15
REMARK    8  A    between atoms: O_15  and  C_16
REMARK    9  A    between atoms: C_17  and  C_18
REMARK   10  A    between atoms: N_20  and  C_21
REMARK   11  A    between atoms: N_20  and  C_31
REMARK   12  A    between atoms: C_21  and  C_22
REMARK   13  A    between atoms: C_31  and  C_32
REMARK                            x       y       z     vdW  Elec       q    Type
REMARK                         _______ _______ _______ _____ _____    ______ ____
ROOT
ATOM      1  C   UNL     1       1.148  -7.248  -2.958  0.00  0.00    +0.234 C 
ATOM      2  O   UNL     1       2.125  -6.914  -2.321  0.00  0.00    -0.274 OA
ATOM      3  N   UNL     1       1.297  -7.921  -4.117  0.00  0.00    -0.291 N 
ENDROOT
BRANCH   1   4
ATOM      4  C   UNL     1      -0.231  -6.911  -2.454  0.00  0.00    +0.205 C 
BRANCH   4   8
ATOM      5  N   UNL     1       0.058  -4.170  -0.021  0.00  0.00    -0.269 N 
ATOM      6  C   UNL     1      -0.041  -4.839  -1.187  0.00  0.00    +0.307 C 
ATOM      7  O   UNL     1      -0.054  -4.229  -2.239  0.00  0.00    -0.252 OA
ATOM      8  N   UNL     1      -0.124  -6.184  -1.187  0.00  0.00    -0.274 N 
ATOM      9  H   UNL     1       0.134  -4.659   0.814  0.00  0.00    +0.156 HD
BRANCH   5  14
ATOM     10  C   UNL     1       0.027   1.503   0.005  0.00  0.00    +0.044 C 
ATOM     11  C   UNL     1       0.035  -0.004  -0.001  0.00  0.00    -0.050 A 
ATOM     12  C   UNL     1       0.633  -0.686  -1.046  0.00  0.00    +0.005 A 
ATOM     13  C   UNL     1       0.643  -2.067  -1.055  0.00  0.00    +0.024 A 
ATOM     14  C   UNL     1       0.051  -2.771  -0.014  0.00  0.00    +0.038 A 
ATOM     15  C   UNL     1      -0.549  -2.083   1.033  0.00  0.00    -0.029 A 
ATOM     16  C   UNL     1      -0.550  -0.702   1.039  0.00  0.00    +0.008 A 
ATOM     17  C   UNL     1      -1.192  -2.843   2.164  0.00  0.00    +0.045 C 
ENDBRANCH   5  14
BRANCH   8  18
ATOM     18  C   UNL     1      -0.108  -6.919   0.080  0.00  0.00    +0.138 C 
BRANCH  18  19
ATOM     19  C   UNL     1      -1.540  -7.085   0.591  0.00  0.00    +0.178 C 
BRANCH  19  20
ATOM     20  O   UNL     1      -2.277  -7.910  -0.315  0.00  0.00    -0.381 OA
ATOM     21  C   UNL     1      -3.635  -8.129   0.072  0.00  0.00    +0.194 C 
ENDBRANCH  19  20
ENDBRANCH  18  19
ENDBRANCH   8  18
ENDBRANCH   4   8
ENDBRANCH   1   4
BRANCH   3  22
ATOM     22  C   UNL     1       2.638  -8.249  -4.606  0.00  0.00    +0.143 C 
BRANCH  22  23
ATOM     23  C   UNL     1       3.056  -9.592  -4.065  0.00  0.00    -0.026 A 
ATOM     24  C   UNL     1       3.723  -9.671  -2.857  0.00  0.00    +0.009 A 
ATOM     25  C   UNL     1       4.108 -10.901  -2.356  0.00  0.00    +0.050 A 
ATOM     26  C   UNL     1       3.826 -12.057  -3.064  0.00  0.00    +0.166 A 
ATOM     27  C   UNL     1       3.155 -11.978  -4.282  0.00  0.00    +0.167 A 
ATOM     28  C   UNL     1       2.767 -10.742  -4.775  0.00  0.00    +0.054 A 
ATOM     29  O   UNL     1       2.999 -13.240  -4.777  0.00  0.00    -0.453 OA
ATOM     30  C   UNL     1       3.939 -14.056  -4.054  0.00  0.00    +0.466 C 
ATOM     31  O   UNL     1       4.092 -13.370  -2.797  0.00  0.00    -0.453 OA
ENDBRANCH  22  23
ENDBRANCH   3  22
BRANCH   3  32
ATOM     32  C   UNL     1       0.117  -8.325  -4.886  0.00  0.00    +0.150 C 
BRANCH  32  33
ATOM     33  C   UNL     1      -0.245  -7.232  -5.859  0.00  0.00    +0.007 A 
ATOM     34  C   UNL     1       0.168  -7.057  -7.138  0.00  0.00    +0.013 A 
ATOM     35  C   UNL     1      -0.301  -5.970  -7.851  0.00  0.00    +0.008 A 
ATOM     36  C   UNL     1      -1.162  -5.112  -7.250  0.00  0.00    +0.045 A 
ATOM     37  S   UNL     1      -1.338  -5.839  -5.629  0.00  0.00    -0.100 S 
ENDBRANCH  32  33
ENDBRANCH   3  32
TORSDOF 10
