REMARK  Name = ZINC40985748
REMARK  8 active torsions:
REMARK  status: ('A' for Active; 'I' for Inactive)
REMARK    1  A    between atoms: C_4  and  C_7
REMARK    2  A    between atoms: C_7  and  S_8
REMARK    3  A    between atoms: S_8  and  C_9
REMARK    4  A    between atoms: C_12  and  C_16
REMARK    5  A    between atoms: N_18  and  C_19
REMARK    6  A    between atoms: C_19  and  C_20
REMARK    7  A    between atoms: C_20  and  C_22
REMARK    8  A    between atoms: C_20  and  N_29
REMARK                            x       y       z     vdW  Elec       q    Type
REMARK                         _______ _______ _______ _____ _____    ______ ____
ROOT
ATOM      1  C   UNL     1       9.411  -3.535   0.863  0.00  0.00    +0.248 C 
ATOM      2  O   UNL     1       9.947  -3.905   1.890  0.00  0.00    -0.270 OA
ATOM      3  N   UNL     1       9.913  -3.908  -0.331  0.00  0.00    -0.312 N 
ATOM      4  H   UNL     1       9.486  -3.613  -1.150  0.00  0.00    +0.149 HD
ENDROOT
BRANCH   1   8
ATOM      5  C   UNL     1       6.031  -1.120   1.034  0.00  0.00    +0.190 A 
ATOM      6  N   UNL     1       6.511  -1.476  -0.151  0.00  0.00    -0.229 NA
ATOM      7  C   UNL     1       7.581  -2.241  -0.248  0.00  0.00    +0.129 A 
ATOM      8  C   UNL     1       8.213  -2.678   0.924  0.00  0.00    +0.092 A 
ATOM      9  C   UNL     1       7.674  -2.279   2.157  0.00  0.00    +0.146 A 
ATOM     10  N   UNL     1       6.603  -1.507   2.168  0.00  0.00    -0.209 NA
ATOM     11 CL   UNL     1       8.410  -2.787   3.645  0.00  0.00    -0.061 Cl
BRANCH   5  12
ATOM     12  S   UNL     1       4.599  -0.096   1.105  0.00  0.00    -0.081 S 
BRANCH  12  13
ATOM     13  C   UNL     1       4.170   0.179  -0.636  0.00  0.00    +0.112 C 
BRANCH  13  17
ATOM     14  C   UNL     1       0.696   2.654  -0.874  0.00  0.00    +0.000 A 
ATOM     15  C   UNL     1       1.953   3.228  -0.852  0.00  0.00    +0.000 A 
ATOM     16  C   UNL     1       3.077   2.427  -0.775  0.00  0.00    +0.004 A 
ATOM     17  C   UNL     1       2.944   1.052  -0.719  0.00  0.00    -0.037 A 
ATOM     18  C   UNL     1       1.687   0.478  -0.740  0.00  0.00    +0.004 A 
ATOM     19  C   UNL     1       0.563   1.279  -0.819  0.00  0.00    +0.000 A 
ENDBRANCH  13  17
ENDBRANCH  12  13
ENDBRANCH   5  12
ENDBRANCH   1   8
BRANCH   3  20
ATOM     20  C   UNL     1      11.104  -4.759  -0.391  0.00  0.00    +0.094 C 
BRANCH  20  21
ATOM     21  C   UNL     1      11.389  -5.135  -1.846  0.00  0.00    -0.019 C 
BRANCH  21  22
ATOM     22  C   UNL     1      11.752  -3.896  -2.623  0.00  0.00    -0.041 A 
ATOM     23  C   UNL     1      10.781  -3.213  -3.330  0.00  0.00    +0.003 A 
ATOM     24  C   UNL     1      11.114  -2.077  -4.043  0.00  0.00    +0.000 A 
ATOM     25  C   UNL     1      12.420  -1.623  -4.049  0.00  0.00    +0.001 A 
ATOM     26  C   UNL     1      13.393  -2.305  -3.343  0.00  0.00    +0.020 A 
ATOM     27  C   UNL     1      13.058  -3.439  -2.625  0.00  0.00    +0.043 A 
ATOM     28 CL   UNL     1      14.278  -4.293  -1.732  0.00  0.00    -0.083 Cl
ENDBRANCH  21  22
BRANCH  21  29
ATOM     29  N   UNL     1      10.192  -5.750  -2.437  0.00  0.00    +0.385 N 
ATOM     30  C   UNL     1      10.483  -6.214  -3.817  0.00  0.00    -0.078 C 
ATOM     31  C   UNL     1       9.392  -7.285  -4.068  0.00  0.00    -0.020 C 
ATOM     32  C   UNL     1       9.266  -7.979  -2.692  0.00  0.00    -0.020 C 
ATOM     33  C   UNL     1       9.811  -6.959  -1.676  0.00  0.00    -0.078 C 
ATOM     34  H   UNL     1       9.429  -5.089  -2.444  0.00  0.00    -0.081 HD
ENDBRANCH  21  29
ENDBRANCH  20  21
ENDBRANCH   3  20
TORSDOF 8
