REMARK  Name = ZINC01833893
REMARK  12 active torsions:
REMARK  status: ('A' for Active; 'I' for Inactive)
REMARK    1  A    between atoms: C_1  and  C_2
REMARK    2  A    between atoms: C_5  and  C_8
REMARK    3  A    between atoms: C_11  and  S_21
REMARK    4  A    between atoms: N_12  and  C_13
REMARK    5  A    between atoms: C_16  and  O_19
REMARK    6  A    between atoms: O_19  and  C_20
REMARK    7  A    between atoms: S_21  and  C_22
REMARK    8  A    between atoms: C_22  and  C_23
REMARK    9  A    between atoms: N_25  and  N_26
REMARK   10  A    between atoms: C_27  and  C_28
REMARK   11  A    between atoms: C_28  and  C_36
REMARK   12  A    between atoms: C_29  and  C_30
REMARK                            x       y       z     vdW  Elec       q    Type
REMARK                         _______ _______ _______ _____ _____    ______ ____
ROOT
ATOM      1  C   UNL     1      -4.805  -0.727  -1.169  0.00  0.00    +0.169 A 
ATOM      2  N   UNL     1      -5.350  -1.913  -1.022  0.00  0.00    -0.128 NA
ATOM      3  N   UNL     1      -6.554  -1.793  -0.588  0.00  0.00    -0.122 NA
ATOM      4  C   UNL     1      -6.853  -0.522  -0.430  0.00  0.00    +0.197 A 
ATOM      5  N   UNL     1      -5.749   0.201  -0.788  0.00  0.00    -0.270 N 
ENDROOT
BRANCH   1  10
ATOM      6  C   UNL     1       0.531   0.384  -3.014  0.00  0.00    +0.044 C 
ATOM      7  C   UNL     1      -0.867   0.092  -2.533  0.00  0.00    -0.050 A 
ATOM      8  C   UNL     1      -1.819   1.096  -2.533  0.00  0.00    +0.004 A 
ATOM      9  C   UNL     1      -3.100   0.836  -2.094  0.00  0.00    +0.012 A 
ATOM     10  C   UNL     1      -3.435  -0.443  -1.646  0.00  0.00    +0.020 A 
ATOM     11  C   UNL     1      -2.471  -1.452  -1.653  0.00  0.00    +0.012 A 
ATOM     12  C   UNL     1      -1.193  -1.179  -2.094  0.00  0.00    +0.004 A 
ENDBRANCH   1  10
BRANCH   5  13
ATOM     13  C   UNL     1      -5.608   1.597  -0.773  0.00  0.00    +0.051 A 
ATOM     14  C   UNL     1      -4.778   2.202   0.161  0.00  0.00    +0.030 A 
ATOM     15  C   UNL     1      -4.635   3.575   0.171  0.00  0.00    +0.047 A 
ATOM     16  C   UNL     1      -5.331   4.352  -0.744  0.00  0.00    +0.120 A 
ATOM     17  C   UNL     1      -6.165   3.749  -1.674  0.00  0.00    +0.047 A 
ATOM     18  C   UNL     1      -6.304   2.375  -1.689  0.00  0.00    +0.030 A 
BRANCH  16  19
ATOM     19  O   UNL     1      -5.195   5.704  -0.730  0.00  0.00    -0.495 OA
ATOM     20  C   UNL     1      -4.319   6.258   0.255  0.00  0.00    +0.277 C 
ENDBRANCH  16  19
ENDBRANCH   5  13
BRANCH   4  21
ATOM     21  S   UNL     1      -8.388   0.127   0.143  0.00  0.00    -0.076 S 
BRANCH  21  22
ATOM     22  C   UNL     1      -9.301  -1.413   0.407  0.00  0.00    +0.174 C 
BRANCH  22  23
ATOM     23  C   UNL     1     -10.685  -1.096   0.912  0.00  0.00    +0.242 C 
ATOM     24  O   UNL     1     -11.020   0.058   1.079  0.00  0.00    -0.273 OA
ATOM     25  N   UNL     1     -11.550  -2.095   1.181  0.00  0.00    -0.206 N 
ATOM     26  H   UNL     1     -11.281  -3.018   1.048  0.00  0.00    +0.177 HD
BRANCH  25  27
ATOM     27  N   UNL     1     -12.836  -1.800   1.651  0.00  0.00    -0.188 NA
ATOM     28  C   UNL     1     -13.672  -2.765   1.910  0.00  0.00    +0.133 C 
BRANCH  28  29
ATOM     29  C   UNL     1     -14.974  -2.466   2.386  0.00  0.00    -0.030 C 
ATOM     30  C   UNL     1     -15.839  -3.466   2.654  0.00  0.00    +0.012 C 
ATOM     31  C   UNL     1     -15.390  -1.033   2.592  0.00  0.00    +0.045 C 
BRANCH  30  32
ATOM     32  C   UNL     1     -17.239  -3.157   2.990  0.00  0.00    -0.025 A 
ATOM     33  C   UNL     1     -17.898  -3.881   3.987  0.00  0.00    +0.008 A 
ATOM     34  C   UNL     1     -19.208  -3.583   4.299  0.00  0.00    +0.001 A 
ATOM     35  C   UNL     1     -19.873  -2.576   3.620  0.00  0.00    +0.000 A 
ATOM     36  C   UNL     1     -19.228  -1.858   2.628  0.00  0.00    +0.001 A 
ATOM     37  C   UNL     1     -17.917  -2.141   2.308  0.00  0.00    +0.008 A 
ENDBRANCH  30  32
ENDBRANCH  28  29
ENDBRANCH  25  27
ENDBRANCH  22  23
ENDBRANCH  21  22
ENDBRANCH   4  21
TORSDOF 9
