REMARK  Name = ZINC41004978
REMARK  15 active torsions:
REMARK  status: ('A' for Active; 'I' for Inactive)
REMARK    1  A    between atoms: C_1  and  C_2
REMARK    2  A    between atoms: C_2  and  S_3
REMARK    3  A    between atoms: S_3  and  C_4
REMARK    4  A    between atoms: C_9  and  C_18
REMARK    5  A    between atoms: C_11  and  C_15
REMARK    6  A    between atoms: C_12  and  C_14
REMARK    7  A    between atoms: C_21  and  O_26
REMARK    8  A    between atoms: C_22  and  O_24
REMARK    9  A    between atoms: O_24  and  C_25
REMARK   10  A    between atoms: O_26  and  C_27
REMARK   11  A    between atoms: C_27  and  C_28
REMARK   12  A    between atoms: C_31  and  C_34
REMARK   13  A    between atoms: C_34  and  C_35
REMARK   14  A    between atoms: C_34  and  C_36
REMARK   15  A    between atoms: C_34  and  C_37
REMARK                            x       y       z     vdW  Elec       q    Type
REMARK                         _______ _______ _______ _____ _____    ______ ____
ROOT
ATOM      1  C   UNL     1       2.946  -5.788  -2.026  0.00  0.00    -0.015 A 
ATOM      2  C   UNL     1       3.463  -5.646  -0.751  0.00  0.00    +0.010 A 
ATOM      3  C   UNL     1       4.830  -5.669  -0.550  0.00  0.00    +0.050 A 
ATOM      4  C   UNL     1       5.687  -5.836  -1.626  0.00  0.00    +0.162 A 
ATOM      5  C   UNL     1       5.167  -5.980  -2.909  0.00  0.00    +0.162 A 
ATOM      6  C   UNL     1       3.795  -5.960  -3.103  0.00  0.00    +0.055 A 
ENDROOT
BRANCH   1  12
ATOM      7  C   UNL     1       0.393  -2.381  -1.573  0.00  0.00    +0.210 A 
ATOM      8  N   UNL     1      -0.128  -3.067  -0.544  0.00  0.00    -0.187 NA
ATOM      9  C   UNL     1       0.180  -4.330  -0.663  0.00  0.00    +0.219 A 
ATOM     10  N   UNL     1       0.921  -4.479  -1.788  0.00  0.00    -0.220 N 
ATOM     11  N   UNL     1       1.038  -3.214  -2.361  0.00  0.00    -0.141 NA
ATOM     12  C   UNL     1       1.455  -5.762  -2.240  0.00  0.00    +0.177 C 
ATOM     13  C   UNL     1       0.815  -6.875  -1.455  0.00  0.00    +0.060 C 
ATOM     14  C   UNL     1       0.087  -6.667  -0.348  0.00  0.00    +0.018 C 
ATOM     15  N   UNL     1      -0.141  -5.408   0.151  0.00  0.00    -0.287 N 
ATOM     16  C   UNL     1      -0.500  -7.853   0.372  0.00  0.00    +0.061 C 
ATOM     17  H   UNL     1      -0.512  -5.277   1.038  0.00  0.00    +0.155 HD
BRANCH  13  18
ATOM     18  C   UNL     1       0.990  -8.205  -1.906  0.00  0.00    +0.241 C 
ATOM     19  O   UNL     1       0.385  -8.600  -2.886  0.00  0.00    -0.271 OA
ATOM     20  N   UNL     1       1.827  -9.035  -1.251  0.00  0.00    -0.325 N 
ATOM     21  H   UNL     1       2.309  -8.720  -0.470  0.00  0.00    +0.145 HD
ATOM     22  H   UNL     1       1.946  -9.946  -1.560  0.00  0.00    +0.145 HD
ENDBRANCH  13  18
BRANCH   7  23
ATOM     23  S   UNL     1       0.232  -0.645  -1.830  0.00  0.00    -0.085 S 
BRANCH  23  25
ATOM     24  C   UNL     1      -0.971   1.430  -0.516  0.00  0.00    +0.016 C 
ATOM     25  C   UNL     1      -0.754  -0.081  -0.416  0.00  0.00    +0.074 C 
ENDBRANCH  23  25
ENDBRANCH   7  23
ENDBRANCH   1  12
BRANCH   5  26
ATOM     26  O   UNL     1       6.003  -6.144  -3.969  0.00  0.00    -0.491 OA
ATOM     27  C   UNL     1       5.399  -6.286  -5.256  0.00  0.00    +0.277 C 
ENDBRANCH   5  26
BRANCH   4  28
ATOM     28  O   UNL     1       7.032  -5.859  -1.430  0.00  0.00    -0.484 OA
BRANCH  28  29
ATOM     29  C   UNL     1       7.494  -5.705  -0.086  0.00  0.00    +0.264 C 
BRANCH  29  30
ATOM     30  C   UNL     1       9.000  -5.756  -0.064  0.00  0.00    -0.010 A 
ATOM     31  C   UNL     1       9.649  -6.967   0.091  0.00  0.00    +0.007 A 
ATOM     32  C   UNL     1      11.030  -7.014   0.111  0.00  0.00    +0.004 A 
ATOM     33  C   UNL     1      11.763  -5.849  -0.024  0.00  0.00    -0.042 A 
ATOM     34  C   UNL     1      11.115  -4.639  -0.180  0.00  0.00    +0.004 A 
ATOM     35  C   UNL     1       9.733  -4.593  -0.205  0.00  0.00    +0.007 A 
BRANCH  33  36
ATOM     36  C   UNL     1      13.269  -5.900  -0.001  0.00  0.00    -0.013 C 
ATOM     37  C   UNL     1      13.767  -6.785  -1.145  0.00  0.00    +0.015 C 
ATOM     38  C   UNL     1      13.830  -4.486  -0.169  0.00  0.00    +0.015 C 
ATOM     39  C   UNL     1      13.739  -6.480   1.335  0.00  0.00    +0.015 C 
ENDBRANCH  33  36
ENDBRANCH  29  30
ENDBRANCH  28  29
ENDBRANCH   4  28
TORSDOF 9
