REMARK  Name = ZINC33612864
REMARK  10 active torsions:
REMARK  status: ('A' for Active; 'I' for Inactive)
REMARK    1  A    between atoms: C_1  and  C_2
REMARK    2  A    between atoms: C_2  and  C_3
REMARK    3  A    between atoms: C_2  and  N_4
REMARK    4  A    between atoms: C_5  and  C_7
REMARK    5  A    between atoms: C_11  and  N_12
REMARK    6  A    between atoms: C_13  and  C_15
REMARK    7  A    between atoms: C_23  and  C_27
REMARK    8  A    between atoms: C_27  and  C_28
REMARK    9  A    between atoms: C_27  and  C_29
REMARK   10  A    between atoms: C_27  and  C_30
REMARK                            x       y       z     vdW  Elec       q    Type
REMARK                         _______ _______ _______ _____ _____    ______ ____
ROOT
ATOM      1  C   UNL     1      -1.642   3.873   5.020  0.00  0.00    +0.069 A 
ATOM      2  C   UNL     1      -1.266   3.377   3.707  0.00  0.00    -0.023 A 
ATOM      3  C   UNL     1      -0.519   2.252   3.708  0.00  0.00    -0.004 A 
ATOM      4  S   UNL     1      -0.311   1.849   5.420  0.00  0.00    -0.077 S 
ATOM      5  C   UNL     1      -1.204   3.156   6.125  0.00  0.00    +0.085 A 
ATOM      6  C   UNL     1       0.010   1.518   2.515  0.00  0.00    +0.046 C 
ATOM      7  C   UNL     1      -0.735   2.019   1.269  0.00  0.00    -0.000 C 
ATOM      8  C   UNL     1      -0.751   3.550   1.284  0.00  0.00    +0.009 C 
ATOM      9  C   UNL     1      -1.667   4.051   2.400  0.00  0.00    +0.037 C 
ENDROOT
BRANCH   1  11
ATOM     10  N   UNL     1      -3.797   4.995   5.209  0.00  0.00    -0.309 N 
ATOM     11  C   UNL     1      -2.453   5.084   5.173  0.00  0.00    +0.247 C 
ATOM     12  O   UNL     1      -1.912   6.171   5.266  0.00  0.00    -0.270 OA
ATOM     13  H   UNL     1      -4.286   4.013   5.124  0.00  0.00    +0.149 HD
BRANCH  10  15
ATOM     14  C   UNL     1      -5.999   5.966   4.771  0.00  0.00    +0.027 C 
ATOM     15  C   UNL     1      -4.608   6.206   5.361  0.00  0.00    +0.067 C 
ATOM     16  C   UNL     1      -4.737   6.549   6.847  0.00  0.00    +0.027 C 
ENDBRANCH  10  15
ENDBRANCH   1  11
BRANCH   5  17
ATOM     17  N   UNL     1      -1.426   3.421   7.467  0.00  0.00    -0.275 N 
ATOM     18  C   UNL     1      -0.915   2.604   8.409  0.00  0.00    +0.249 C 
ATOM     19  O   UNL     1      -0.260   1.634   8.082  0.00  0.00    -0.270 OA
ATOM     20  H   UNL     1      -2.019   4.298   7.763  0.00  0.00    +0.156 HD
BRANCH  18  21
ATOM     21  C   UNL     1      -1.152   2.886   9.839  0.00  0.00    +0.037 A 
ATOM     22  C   UNL     1      -1.900   4.003  10.219  0.00  0.00    +0.014 A 
ATOM     23  C   UNL     1      -2.123   4.258  11.556  0.00  0.00    +0.016 A 
ATOM     24  C   UNL     1      -1.597   3.416  12.521  0.00  0.00    +0.018 A 
ATOM     25  C   UNL     1      -0.850   2.311  12.152  0.00  0.00    +0.016 A 
ATOM     26  C   UNL     1      -0.625   2.041  10.818  0.00  0.00    +0.014 A 
ATOM     27 BR   UNL     1      -1.902   3.777  14.352  0.00  0.00    -0.050 Br
ENDBRANCH  18  21
ENDBRANCH   5  17
BRANCH   7  28
ATOM     28  C   UNL     1      -0.019   1.526   0.010  0.00  0.00    -0.035 C 
ATOM     29  C   UNL     1       0.002  -0.004   0.002  0.00  0.00    +0.011 C 
ATOM     30  C   UNL     1       1.417   2.055  -0.000  0.00  0.00    +0.011 C 
ATOM     31  C   UNL     1      -0.759   2.033  -1.229  0.00  0.00    +0.011 C 
ENDBRANCH   7  28
TORSDOF 5
