REMARK  Name = ZINC55364179
REMARK  9 active torsions:
REMARK  status: ('A' for Active; 'I' for Inactive)
REMARK    1  A    between atoms: C_1  and  C_2
REMARK    2  A    between atoms: C_2  and  N_3
REMARK    3  A    between atoms: N_3  and  C_4
REMARK    4  A    between atoms: N_3  and  C_6
REMARK    5  A    between atoms: C_4  and  C_5
REMARK    6  A    between atoms: C_9  and  C_12
REMARK    7  A    between atoms: C_12  and  C_14
REMARK    8  A    between atoms: C_12  and  N_25
REMARK    9  A    between atoms: C_23  and  O_24
REMARK                            x       y       z     vdW  Elec       q    Type
REMARK                         _______ _______ _______ _____ _____    ______ ____
ROOT
ATOM      1  C   UNL     1      -1.095  -6.571   1.089  0.00  0.00    +0.136 C 
ENDROOT
BRANCH   1   2
ATOM      2  C   UNL     1      -0.572  -6.854   2.474  0.00  0.00    +0.021 A 
ATOM      3  C   UNL     1      -1.471  -7.063   3.517  0.00  0.00    +0.010 A 
ATOM      4  C   UNL     1      -1.031  -7.321   4.779  0.00  0.00    +0.010 A 
ATOM      5  C   UNL     1       0.348  -7.378   5.038  0.00  0.00    +0.004 A 
ATOM      6  C   UNL     1       0.841  -7.643   6.330  0.00  0.00    +0.011 A 
ATOM      7  C   UNL     1       2.194  -7.684   6.508  0.00  0.00    +0.020 A 
ATOM      8  C   UNL     1       3.044  -7.466   5.425  0.00  0.00    +0.111 A 
ATOM      9  N   UNL     1       2.581  -7.220   4.224  0.00  0.00    -0.251 NA
ATOM     10  C   UNL     1       1.268  -7.167   3.983  0.00  0.00    +0.113 A 
ATOM     11  C   UNL     1       0.776  -6.907   2.686  0.00  0.00    +0.148 A 
BRANCH  11  12
ATOM     12  O   UNL     1       1.637  -6.706   1.656  0.00  0.00    -0.504 OA
ATOM     13  H   UNL     1       1.894  -5.782   1.532  0.00  0.00    +0.292 HD
ENDBRANCH  11  12
ENDBRANCH   1   2
BRANCH   1  14
ATOM     14  N   UNL     1      -2.446  -7.123   0.955  0.00  0.00    -0.320 N 
ATOM     15  C   UNL     1      -2.620  -8.466   0.644  0.00  0.00    +0.097 A 
ATOM     16  C   UNL     1      -1.513  -9.307   0.575  0.00  0.00    +0.041 A 
ATOM     17  C   UNL     1      -1.701 -10.642   0.265  0.00  0.00    +0.005 A 
ATOM     18  C   UNL     1      -2.994 -11.093   0.033  0.00  0.00    +0.018 A 
ATOM     19  C   UNL     1      -4.046 -10.203   0.119  0.00  0.00    +0.084 A 
ATOM     20  N   UNL     1      -3.837  -8.936   0.422  0.00  0.00    -0.350 N 
ATOM     21  H   UNL     1      -3.218  -6.550   1.083  0.00  0.00    +0.148 HD
ATOM     22  H   UNL     1      -4.595  -8.333   0.480  0.00  0.00    +0.166 HD
ENDBRANCH   1  14
BRANCH   1  26
ATOM     23  C   UNL     1      -1.212  -2.350   0.445  0.00  0.00    +0.013 A 
ATOM     24  C   UNL     1      -0.244  -3.117  -0.175  0.00  0.00    +0.022 A 
ATOM     25  C   UNL     1      -0.206  -4.483   0.034  0.00  0.00    +0.007 A 
ATOM     26  C   UNL     1      -1.136  -5.082   0.863  0.00  0.00    -0.023 A 
ATOM     27  C   UNL     1      -2.104  -4.314   1.483  0.00  0.00    +0.007 A 
ATOM     28  C   UNL     1      -2.140  -2.948   1.278  0.00  0.00    +0.022 A 
BRANCH  23  29
ATOM     29  N   UNL     1      -1.251  -0.968   0.234  0.00  0.00    -0.394 NA
ATOM     30  H   UNL     1      -2.012  -0.569   0.762  0.00  0.00    +0.126 HD
BRANCH  29  32
ATOM     31  C   UNL     1       0.162  -0.536   2.187  0.00  0.00    +0.022 C 
ATOM     32  C   UNL     1       0.017  -0.370   0.673  0.00  0.00    +0.081 C 
ENDBRANCH  29  32
BRANCH  29  33
ATOM     33  C   UNL     1      -1.451  -0.697  -1.196  0.00  0.00    +0.081 C 
ATOM     34  C   UNL     1      -2.840  -1.181  -1.617  0.00  0.00    +0.022 C 
ENDBRANCH  29  33
ENDBRANCH  23  29
ENDBRANCH   1  26
TORSDOF 7
