REMARK  Name = ZINC65253956
REMARK  10 active torsions:
REMARK  status: ('A' for Active; 'I' for Inactive)
REMARK    1  A    between atoms: C_1  and  C_2
REMARK    2  A    between atoms: C_2  and  C_3
REMARK    3  A    between atoms: C_3  and  C_4
REMARK    4  A    between atoms: C_4  and  N_5
REMARK    5  A    between atoms: C_6  and  C_8
REMARK    6  A    between atoms: N_12  and  C_14
REMARK    7  A    between atoms: C_14  and  C_15
REMARK    8  A    between atoms: C_14  and  C_16
REMARK    9  A    between atoms: N_18  and  C_19
REMARK   10  A    between atoms: C_22  and  C_25
REMARK                            x       y       z     vdW  Elec       q    Type
REMARK                         _______ _______ _______ _____ _____    ______ ____
ROOT
ATOM      1  C   UNL     1       3.010  -7.819   4.885  0.00  0.00    +0.016 C 
ATOM      2  C   UNL     1       4.101  -7.569   5.928  0.00  0.00    -0.004 C 
ENDROOT
BRANCH   1   7
ATOM      3  C   UNL     1       0.498  -5.502   3.335  0.00  0.00    +0.058 C 
ATOM      4  C   UNL     1      -0.185  -5.013   4.616  0.00  0.00    +0.009 C 
ATOM      5  C   UNL     1       0.870  -4.851   5.715  0.00  0.00    -0.018 C 
ATOM      6  C   UNL     1       1.597  -6.182   5.917  0.00  0.00    -0.078 C 
ATOM      7  N   UNL     1       2.250  -6.582   4.665  0.00  0.00    +0.388 N 
ATOM      8  C   UNL     1       1.238  -6.809   3.626  0.00  0.00    -0.065 C 
ATOM      9  H   UNL     1       2.879  -5.851   4.367  0.00  0.00    -0.081 HD
BRANCH   3  11
ATOM     10  N   UNL     1      -1.321  -4.722   1.851  0.00  0.00    -0.315 N 
ATOM     11  C   UNL     1      -0.542  -5.739   2.270  0.00  0.00    +0.214 C 
ATOM     12  O   UNL     1      -0.677  -6.844   1.790  0.00  0.00    -0.276 OA
ATOM     13  H   UNL     1      -1.212  -3.838   2.235  0.00  0.00    +0.149 HD
BRANCH  10  14
ATOM     14  C   UNL     1      -2.331  -4.952   0.815  0.00  0.00    +0.104 C 
BRANCH  14  15
ATOM     15  C   UNL     1      -3.071  -3.645   0.525  0.00  0.00    +0.018 C 
BRANCH  15  17
ATOM     16  C   UNL     1      -4.866  -2.578  -0.846  0.00  0.00    +0.004 C 
ATOM     17  C   UNL     1      -4.126  -3.885  -0.556  0.00  0.00    -0.002 C 
ENDBRANCH  15  17
ENDBRANCH  14  15
ENDBRANCH  10  14
ENDBRANCH   3  11
ENDBRANCH   1   7
BRANCH   1  18
ATOM     18  C   UNL     1       3.645  -8.256   3.590  0.00  0.00    +0.203 C 
ATOM     19  O   UNL     1       3.943  -7.431   2.752  0.00  0.00    -0.277 OA
ATOM     20  N   UNL     1       3.882  -9.563   3.362  0.00  0.00    -0.287 N 
ATOM     21  H   UNL     1       3.580 -10.229   4.000  0.00  0.00    +0.155 HD
BRANCH  20  22
ATOM     22  C   UNL     1       4.560  -9.959   2.210  0.00  0.00    +0.033 A 
ATOM     23  C   UNL     1       5.556  -9.146   1.677  0.00  0.00    +0.024 A 
ATOM     24  C   UNL     1       6.228  -9.534   0.540  0.00  0.00    +0.015 A 
ATOM     25  C   UNL     1       5.907 -10.745  -0.080  0.00  0.00    +0.037 A 
ATOM     26  C   UNL     1       4.906 -11.558   0.457  0.00  0.00    +0.015 A 
ATOM     27  C   UNL     1       4.242 -11.167   1.598  0.00  0.00    +0.024 A 
BRANCH  25  28
ATOM     28  C   UNL     1       6.625 -11.163  -1.301  0.00  0.00    +0.242 C 
ATOM     29  O   UNL     1       7.495 -10.454  -1.767  0.00  0.00    -0.270 OA
ATOM     30  N   UNL     1       6.315 -12.331  -1.897  0.00  0.00    -0.325 N 
ATOM     31  H   UNL     1       5.620 -12.897  -1.525  0.00  0.00    +0.145 HD
ATOM     32  H   UNL     1       6.786 -12.606  -2.699  0.00  0.00    +0.145 HD
ENDBRANCH  25  28
ENDBRANCH  20  22
ENDBRANCH   1  18
TORSDOF 8
