REMARK  Name = ZINC02727498
REMARK  10 active torsions:
REMARK  status: ('A' for Active; 'I' for Inactive)
REMARK    1  A    between atoms: C_1  and  C_2
REMARK    2  A    between atoms: C_4  and  C_36
REMARK    3  A    between atoms: C_5  and  C_17
REMARK    4  A    between atoms: C_7  and  C_8
REMARK    5  A    between atoms: C_8  and  O_9
REMARK    6  A    between atoms: O_9  and  C_10
REMARK    7  A    between atoms: C_26  and  C_34
REMARK    8  A    between atoms: C_27  and  N_33
REMARK    9  A    between atoms: C_28  and  C_29
REMARK   10  A    between atoms: C_28  and  C_31
REMARK                            x       y       z     vdW  Elec       q    Type
REMARK                         _______ _______ _______ _____ _____    ______ ____
ROOT
ATOM      1  C   UNL     1       0.008   0.094  -2.467  0.00  0.00    +0.066 C 
ATOM      2  C   UNL     1      -1.433  -0.092  -2.946  0.00  0.00    +0.030 C 
ATOM      3  C   UNL     1      -2.419   0.635  -2.063  0.00  0.00    +0.009 C 
ATOM      4  C   UNL     1      -3.078  -0.302  -1.053  0.00  0.00    +0.005 C 
ATOM      5  C   UNL     1      -3.799  -1.415  -1.825  0.00  0.00    +0.027 C 
ATOM      6  C   UNL     1      -2.764  -2.169  -2.619  0.00  0.00    -0.022 C 
ATOM      7  C   UNL     1      -1.695  -1.561  -3.094  0.00  0.00    -0.029 C 
ATOM      8  C   UNL     1      -0.647  -2.366  -3.776  0.00  0.00    +0.074 C 
ATOM      9  C   UNL     1       0.586  -1.831  -3.962  0.00  0.00    +0.054 C 
ATOM     10  C   UNL     1       0.960  -0.444  -3.536  0.00  0.00    +0.188 C 
ENDROOT
BRANCH   1  15
ATOM     11  C   UNL     1       0.784  -2.816   2.465  0.00  0.00    +0.044 C 
ATOM     12  C   UNL     1       0.585  -2.057   1.178  0.00  0.00    -0.044 A 
ATOM     13  C   UNL     1       0.523  -0.676   1.193  0.00  0.00    +0.007 A 
ATOM     14  C   UNL     1       0.340   0.020   0.013  0.00  0.00    -0.047 A 
ATOM     15  C   UNL     1       0.214  -0.665  -1.181  0.00  0.00    -0.038 A 
ATOM     16  C   UNL     1       0.281  -2.046  -1.196  0.00  0.00    +0.011 A 
ATOM     17  C   UNL     1       0.464  -2.742  -0.016  0.00  0.00    -0.007 A 
ATOM     18  C   UNL     1       0.272   1.525   0.029  0.00  0.00    +0.044 C 
BRANCH  17  19
ATOM     19  C   UNL     1       0.532  -4.247  -0.032  0.00  0.00    +0.264 C 
BRANCH  19  20
ATOM     20  O   UNL     1       0.420  -4.715  -1.378  0.00  0.00    -0.487 OA
BRANCH  20  21
ATOM     21  C   UNL     1       0.455  -6.060  -1.569  0.00  0.00    +0.121 A 
ATOM     22  C   UNL     1       0.486  -6.916  -0.477  0.00  0.00    +0.048 A 
ATOM     23  C   UNL     1       0.515  -8.283  -0.672  0.00  0.00    +0.042 A 
ATOM     24  C   UNL     1       0.525  -8.799  -1.957  0.00  0.00    +0.124 A 
ATOM     25  C   UNL     1       0.500  -7.947  -3.047  0.00  0.00    +0.042 A 
ATOM     26  C   UNL     1       0.465  -6.579  -2.855  0.00  0.00    +0.048 A 
ATOM     27  F   UNL     1       0.559 -10.137  -2.147  0.00  0.00    -0.205 F 
ENDBRANCH  20  21
ENDBRANCH  19  20
ENDBRANCH  17  19
ENDBRANCH   1  15
BRANCH   9  28
ATOM     28  N   UNL     1       1.538  -2.600  -4.571  0.00  0.00    -0.358 N 
ATOM     29  H   UNL     1       2.548  -2.195  -4.737  0.00  0.00    +0.142 HD
ATOM     30  H   UNL     1       1.296  -3.622  -4.895  0.00  0.00    +0.142 HD
ENDBRANCH   9  28
BRANCH  10  31
ATOM     31  C   UNL     1       0.917   0.446  -4.708  0.00  0.00    +0.091 C 
ATOM     32  N   UNL     1       0.884   1.133  -5.612  0.00  0.00    -0.194 NA
ENDBRANCH  10  31
BRANCH  10  33
ATOM     33  C   UNL     1       2.329  -0.460  -2.997  0.00  0.00    +0.091 C 
ATOM     34  N   UNL     1       3.386  -0.472  -2.580  0.00  0.00    -0.194 NA
ENDBRANCH  10  33
BRANCH   8  35
ATOM     35  C   UNL     1      -0.937  -3.692  -4.232  0.00  0.00    +0.101 C 
ATOM     36  N   UNL     1      -1.167  -4.744  -4.594  0.00  0.00    -0.191 NA
ENDBRANCH   8  35
TORSDOF 8
