REMARK  Name = ZINC37317671
REMARK  4 active torsions:
REMARK  status: ('A' for Active; 'I' for Inactive)
REMARK    1  A    between atoms: C_3  and  N_18
REMARK    2  A    between atoms: C_6  and  N_7
REMARK    3  A    between atoms: N_7  and  C_8
REMARK    4  A    between atoms: C_8  and  C_9
REMARK                            x       y       z     vdW  Elec       q    Type
REMARK                         _______ _______ _______ _____ _____    ______ ____
ROOT
ATOM      1  C   UNL     1      -0.013   1.382  -0.182  0.00  0.00    +0.025 A 
ATOM      2  C   UNL     1       1.175   2.086  -0.184  0.00  0.00    +0.025 A 
ATOM      3  C   UNL     1       2.380   1.416  -0.020  0.00  0.00    +0.035 A 
ATOM      4  C   UNL     1       2.390   0.037   0.146  0.00  0.00    +0.025 A 
ATOM      5  C   UNL     1       1.203  -0.667   0.148  0.00  0.00    +0.025 A 
ATOM      6  C   UNL     1      -0.002   0.003  -0.016  0.00  0.00    +0.027 A 
ENDROOT
BRANCH   3   7
ATOM      7  N   UNL     1       3.586   2.131  -0.022  0.00  0.00    -0.270 N 
ATOM      8  C   UNL     1       3.628   3.382   0.477  0.00  0.00    +0.301 C 
ATOM      9  O   UNL     1       2.647   3.855   1.017  0.00  0.00    -0.253 OA
ATOM     10  N   UNL     1       4.759   4.109   0.378  0.00  0.00    -0.313 N 
ATOM     11  H   UNL     1       4.389   1.725  -0.383  0.00  0.00    +0.156 HD
ATOM     12  H   UNL     1       5.542   3.732  -0.052  0.00  0.00    +0.146 HD
ATOM     13  H   UNL     1       4.789   5.010   0.737  0.00  0.00    +0.146 HD
ENDBRANCH   3   7
BRANCH   6  14
ATOM     14  N   UNL     1      -1.206  -0.711  -0.014  0.00  0.00    -0.340 N 
ATOM     15  H   UNL     1      -2.047  -0.242  -0.128  0.00  0.00    +0.146 HD
BRANCH  14  16
ATOM     16  C   UNL     1      -1.194  -2.165   0.161  0.00  0.00    +0.139 C 
BRANCH  16  17
ATOM     17  C   UNL     1      -2.608  -2.686   0.126  0.00  0.00    +0.008 A 
ATOM     18  C   UNL     1      -3.341  -2.778   1.295  0.00  0.00    +0.047 A 
ATOM     19  C   UNL     1      -4.639  -3.256   1.263  0.00  0.00    +0.022 A 
ATOM     20  C   UNL     1      -5.204  -3.642   0.062  0.00  0.00    +0.023 A 
ATOM     21  C   UNL     1      -4.472  -3.551  -1.108  0.00  0.00    +0.060 A 
ATOM     22  C   UNL     1      -3.174  -3.068  -1.077  0.00  0.00    +0.065 A 
ATOM     23 CL   UNL     1      -2.257  -2.946  -2.546  0.00  0.00    -0.082 Cl
ATOM     24 CL   UNL     1      -5.181  -4.037  -2.616  0.00  0.00    -0.082 Cl
ATOM     25 CL   UNL     1      -2.633  -2.293   2.804  0.00  0.00    -0.083 Cl
ENDBRANCH  16  17
ENDBRANCH  14  16
ENDBRANCH   6  14
TORSDOF 4
