REMARK  Name = ZINC04734220
REMARK  9 active torsions:
REMARK  status: ('A' for Active; 'I' for Inactive)
REMARK    1  A    between atoms: C_1  and  C_2
REMARK    2  A    between atoms: C_2  and  C_3
REMARK    3  A    between atoms: C_7  and  C_28
REMARK    4  A    between atoms: C_8  and  N_9
REMARK    5  A    between atoms: N_9  and  C_10
REMARK    6  A    between atoms: C_11  and  C_21
REMARK    7  A    between atoms: C_15  and  C_20
REMARK    8  A    between atoms: C_17  and  C_19
REMARK    9  A    between atoms: C_25  and  O_27
REMARK                            x       y       z     vdW  Elec       q    Type
REMARK                         _______ _______ _______ _____ _____    ______ ____
ROOT
ATOM      1  C   UNL     1       4.260  -1.074  -0.197  0.00  0.00    +0.137 A 
ATOM      2  C   UNL     1       5.207  -0.869   0.784  0.00  0.00    +0.114 A 
ATOM      3  N   UNL     1       6.314  -1.556   0.444  0.00  0.00    -0.208 NA
ATOM      4  C   UNL     1       6.107  -2.182  -0.703  0.00  0.00    +0.237 A 
ATOM      5  N   UNL     1       4.828  -1.903  -1.125  0.00  0.00    -0.269 N 
ATOM      6  C   UNL     1       4.361  -2.438  -2.294  0.00  0.00    +0.027 A 
ATOM      7  C   UNL     1       5.172  -3.244  -3.020  0.00  0.00    +0.044 A 
ATOM      8  C   UNL     1       6.470  -3.510  -2.557  0.00  0.00    +0.044 A 
ATOM      9  N   UNL     1       6.899  -2.979  -1.437  0.00  0.00    -0.217 NA
ATOM     10  C   UNL     1       7.381  -4.405  -3.358  0.00  0.00    +0.066 C 
ATOM     11  C   UNL     1       2.962  -2.137  -2.768  0.00  0.00    +0.064 C 
ENDROOT
BRANCH   2  12
ATOM     12  C   UNL     1       5.036  -0.039   1.998  0.00  0.00    +0.007 A 
ATOM     13  C   UNL     1       4.266   1.124   1.949  0.00  0.00    +0.010 A 
ATOM     14  C   UNL     1       4.108   1.895   3.083  0.00  0.00    +0.004 A 
ATOM     15  C   UNL     1       4.712   1.520   4.269  0.00  0.00    +0.045 A 
ATOM     16  C   UNL     1       5.481   0.365   4.327  0.00  0.00    +0.117 A 
ATOM     17  C   UNL     1       5.640  -0.419   3.196  0.00  0.00    +0.055 A 
BRANCH  16  18
ATOM     18  O   UNL     1       6.073   0.001   5.494  0.00  0.00    -0.507 OA
ATOM     19  H   UNL     1       5.527  -0.571   6.051  0.00  0.00    +0.292 HD
ENDBRANCH  16  18
ENDBRANCH   2  12
BRANCH   1  20
ATOM     20  N   UNL     1       2.971  -0.543  -0.233  0.00  0.00    -0.298 N 
ATOM     21  H   UNL     1       2.843   0.416  -0.301  0.00  0.00    +0.154 HD
BRANCH  20  27
ATOM     22  C   UNL     1       0.622  -0.951  -0.609  0.00  0.00    -0.026 A 
ATOM     23  C   UNL     1      -0.469  -1.795  -0.551  0.00  0.00    +0.005 A 
ATOM     24  C   UNL     1      -0.328  -3.077  -0.052  0.00  0.00    +0.001 A 
ATOM     25  C   UNL     1       0.906  -3.518   0.390  0.00  0.00    +0.005 A 
ATOM     26  C   UNL     1       2.002  -2.679   0.335  0.00  0.00    -0.029 A 
ATOM     27  C   UNL     1       1.864  -1.392  -0.171  0.00  0.00    +0.039 A 
ATOM     28  C   UNL     1       3.346  -3.161   0.818  0.00  0.00    +0.045 C 
BRANCH  22  30
ATOM     29  C   UNL     1       0.831   0.459  -2.638  0.00  0.00    +0.009 C 
ATOM     30  C   UNL     1       0.466   0.446  -1.152  0.00  0.00    +0.033 C 
ENDBRANCH  22  30
ENDBRANCH  20  27
ENDBRANCH   1  20
TORSDOF 5
