REMARK  Name = ZINC54200751
REMARK  9 active torsions:
REMARK  status: ('A' for Active; 'I' for Inactive)
REMARK    1  A    between atoms: C_1  and  C_2
REMARK    2  A    between atoms: C_4  and  N_31
REMARK    3  A    between atoms: C_7  and  N_8
REMARK    4  A    between atoms: C_9  and  C_11
REMARK    5  A    between atoms: C_11  and  C_12
REMARK    6  A    between atoms: C_12  and  C_14
REMARK    7  A    between atoms: C_12  and  N_20
REMARK    8  A    between atoms: N_20  and  S_21
REMARK    9  A    between atoms: S_21  and  C_24
REMARK                            x       y       z     vdW  Elec       q    Type
REMARK                         _______ _______ _______ _____ _____    ______ ____
ROOT
ATOM      1  C   UNL     1      -0.245  -0.948   6.037  0.00  0.00    +0.115 C 
ENDROOT
BRANCH   1   2
ATOM      2  C   UNL     1      -0.480  -0.207   7.329  0.00  0.00    -0.028 A 
ATOM      3  C   UNL     1       0.575   0.412   7.973  0.00  0.00    +0.005 A 
ATOM      4  C   UNL     1       0.359   1.091   9.157  0.00  0.00    +0.000 A 
ATOM      5  C   UNL     1      -0.912   1.153   9.697  0.00  0.00    +0.000 A 
ATOM      6  C   UNL     1      -1.967   0.535   9.052  0.00  0.00    +0.000 A 
ATOM      7  C   UNL     1      -1.752  -0.141   7.866  0.00  0.00    +0.005 A 
ENDBRANCH   1   2
BRANCH   1   8
ATOM      8  N   UNL     1       1.014  -1.692   6.124  0.00  0.00    -0.182 NA
ATOM      9  H   UNL     1       1.852  -1.252   5.915  0.00  0.00    +0.149 HD
BRANCH   8  10
ATOM     10  S   UNL     1       1.005  -3.285   6.577  0.00  0.00    +0.059 S 
ATOM     11  O   UNL     1       2.355  -3.725   6.539  0.00  0.00    -0.153 OA
ATOM     12  O   UNL     1       0.208  -3.369   7.750  0.00  0.00    -0.153 OA
BRANCH  10  13
ATOM     13  C   UNL     1       0.149  -4.178   5.322  0.00  0.00    +0.105 A 
ATOM     14  C   UNL     1      -1.220  -4.352   5.410  0.00  0.00    +0.030 A 
ATOM     15  C   UNL     1      -1.892  -5.053   4.426  0.00  0.00    +0.022 A 
ATOM     16  C   UNL     1      -1.194  -5.580   3.353  0.00  0.00    +0.041 A 
ATOM     17  C   UNL     1       0.175  -5.406   3.267  0.00  0.00    +0.022 A 
ATOM     18  C   UNL     1       0.845  -4.700   4.248  0.00  0.00    +0.030 A 
ATOM     19 CL   UNL     1      -2.038  -6.461   2.118  0.00  0.00    -0.084 Cl
ENDBRANCH  10  13
ENDBRANCH   8  10
ENDBRANCH   1   8
BRANCH   1  20
ATOM     20  C   UNL     1      -0.169   0.052   4.882  0.00  0.00    +0.121 C 
BRANCH  20  22
ATOM     21  N   UNL     1       0.025  -0.015   2.417  0.00  0.00    -0.285 N 
ATOM     22  C   UNL     1      -0.057  -0.694   3.578  0.00  0.00    +0.219 C 
ATOM     23  O   UNL     1      -0.040  -1.907   3.573  0.00  0.00    -0.275 OA
ATOM     24  H   UNL     1       0.077   0.954   2.425  0.00  0.00    +0.155 HD
BRANCH  21  31
ATOM     25  C   UNL     1      -1.266   1.183   0.181  0.00  0.00    +0.046 C 
ATOM     26  C   UNL     1      -0.585  -0.158   0.084  0.00  0.00    -0.027 A 
ATOM     27  C   UNL     1      -0.570  -0.841  -1.116  0.00  0.00    +0.038 A 
ATOM     28  C   UNL     1       0.055  -2.071  -1.206  0.00  0.00    +0.127 A 
ATOM     29  C   UNL     1       0.667  -2.622  -0.095  0.00  0.00    +0.034 A 
ATOM     30  C   UNL     1       0.656  -1.944   1.108  0.00  0.00    +0.026 A 
ATOM     31  C   UNL     1       0.034  -0.706   1.201  0.00  0.00    +0.036 A 
BRANCH  28  32
ATOM     32  N   UNL     1       0.069  -2.800  -2.494  0.00  0.00    +0.056 N 
ATOM     33  O   UNL     1      -0.465  -2.320  -3.466  0.00  0.00    -0.126 OA
ATOM     34  O   UNL     1       0.615  -3.876  -2.574  0.00  0.00    -0.126 OA
ENDBRANCH  28  32
ENDBRANCH  21  31
ENDBRANCH  20  22
ENDBRANCH   1  20
TORSDOF 8
