REMARK  Name = ZINC39290074
REMARK  4 active torsions:
REMARK  status: ('A' for Active; 'I' for Inactive)
REMARK    1  A    between atoms: C_4  and  N_7
REMARK    2  A    between atoms: N_7  and  C_8
REMARK    3  A    between atoms: C_10  and  C_18
REMARK    4  A    between atoms: C_12  and  C_15
REMARK                            x       y       z     vdW  Elec       q    Type
REMARK                         _______ _______ _______ _____ _____    ______ ____
ROOT
ATOM      1  C   UNL     1       3.770  -2.032   0.177  0.00  0.00    +0.142 C 
ATOM      2  C   UNL     1       4.653  -2.474  -1.012  0.00  0.00    +0.108 C 
ATOM      3  C   UNL     1       3.882  -3.002  -2.182  0.00  0.00    +0.046 C 
ATOM      4  C   UNL     1       2.372  -3.006  -2.002  0.00  0.00    +0.194 C 
ATOM      5  S   UNL     1       2.228  -2.991  -0.160  0.00  0.00    -0.114 S 
ATOM      6  N   UNL     1       4.450  -3.419  -3.250  0.00  0.00    -0.306 NA
ATOM      7  H   UNL     1       5.417  -3.490  -3.290  0.00  0.00    +0.186 HD
ENDROOT
BRANCH   2   8
ATOM      8  C   UNL     1       5.481  -1.274  -1.477  0.00  0.00    +0.185 C 
ATOM      9  N   UNL     1       6.454  -1.695  -2.492  0.00  0.00    -0.363 N 
ATOM     10  C   UNL     1       7.642  -1.438  -2.026  0.00  0.00    +0.060 A 
ATOM     11  C   UNL     1       8.993  -1.631  -2.571  0.00  0.00    +0.027 A 
ATOM     12  C   UNL     1      10.063  -1.259  -1.841  0.00  0.00    +0.002 A 
ATOM     13  C   UNL     1       9.948  -0.685  -0.563  0.00  0.00    +0.002 A 
ATOM     14  C   UNL     1       8.757  -0.464   0.029  0.00  0.00    +0.027 A 
ATOM     15  C   UNL     1       7.519  -0.829  -0.673  0.00  0.00    +0.060 A 
ATOM     16  N   UNL     1       6.260  -0.735  -0.355  0.00  0.00    -0.363 N 
ATOM     17  H   UNL     1       6.250  -2.094  -3.353  0.00  0.00    +0.162 HD
ATOM     18  H   UNL     1       5.903  -0.374   0.471  0.00  0.00    +0.162 HD
ENDBRANCH   2   8
BRANCH   1  19
ATOM     19  N   UNL     1       3.514  -0.590   0.139  0.00  0.00    -0.331 N 
ATOM     20  H   UNL     1       4.176   0.010  -0.238  0.00  0.00    +0.147 HD
BRANCH  19  24
ATOM     21  C   UNL     1      -0.055   0.933   1.650  0.00  0.00    +0.000 A 
ATOM     22  C   UNL     1       0.483  -0.223   2.185  0.00  0.00    +0.002 A 
ATOM     23  C   UNL     1       1.667  -0.731   1.686  0.00  0.00    +0.023 A 
ATOM     24  C   UNL     1       2.317  -0.079   0.646  0.00  0.00    +0.028 A 
ATOM     25  C   UNL     1       1.774   1.082   0.111  0.00  0.00    +0.023 A 
ATOM     26  C   UNL     1       0.590   1.585   0.614  0.00  0.00    +0.002 A 
ENDBRANCH  19  24
ENDBRANCH   1  19
BRANCH   4  27
ATOM     27  C   UNL     1       1.774  -4.226  -2.570  0.00  0.00    +0.083 C 
ATOM     28  N   UNL     1       1.313  -5.167  -3.008  0.00  0.00    -0.195 NA
ENDBRANCH   4  27
TORSDOF 4
