REMARK  Name = ZINC47257789
REMARK  5 active torsions:
REMARK  status: ('A' for Active; 'I' for Inactive)
REMARK    1  A    between atoms: C_8  and  C_10
REMARK    2  A    between atoms: N_13  and  C_16
REMARK    3  A    between atoms: C_16  and  C_17
REMARK    4  A    between atoms: N_19  and  C_20
REMARK    5  A    between atoms: C_21  and  C_25
REMARK                            x       y       z     vdW  Elec       q    Type
REMARK                         _______ _______ _______ _____ _____    ______ ____
ROOT
ATOM      1  C   UNL     1       0.159  -4.262   0.192  0.00  0.00    +0.072 C 
ATOM      2  C   UNL     1       0.821  -4.843  -1.061  0.00  0.00    -0.006 C 
ATOM      3  C   UNL     1       0.791  -6.371  -0.985  0.00  0.00    -0.077 C 
ATOM      4  N   UNL     1      -0.599  -6.834  -0.906  0.00  0.00    +0.385 N 
ATOM      5  C   UNL     1      -1.219  -6.339   0.330  0.00  0.00    -0.077 C 
ATOM      6  C   UNL     1      -1.267  -4.810   0.304  0.00  0.00    -0.006 C 
ATOM      7  H   UNL     1      -1.114  -6.487  -1.701  0.00  0.00    -0.081 HD
ENDROOT
BRANCH   1  15
ATOM      8  C   UNL     1       2.370   1.437  -0.007  0.00  0.00    +0.005 A 
ATOM      9  C   UNL     1       1.128   2.057   0.009  0.00  0.00    +0.020 A 
ATOM     10  C   UNL     1      -0.015   1.281   0.013  0.00  0.00    +0.113 A 
ATOM     11  N   UNL     1       0.061  -0.036   0.003  0.00  0.00    -0.240 NA
ATOM     12  C   UNL     1       1.226  -0.664  -0.012  0.00  0.00    +0.125 A 
ATOM     13  C   UNL     1       2.417   0.054  -0.017  0.00  0.00    +0.044 A 
ATOM     14  N   UNL     1       1.259  -2.057  -0.022  0.00  0.00    -0.270 N 
ATOM     15  C   UNL     1       0.114  -2.760   0.087  0.00  0.00    +0.221 C 
ATOM     16  O   UNL     1      -0.952  -2.182   0.101  0.00  0.00    -0.275 OA
ATOM     17  H   UNL     1       2.107  -2.522  -0.107  0.00  0.00    +0.156 HD
ENDBRANCH   1  15
BRANCH   4  18
ATOM     18  C   UNL     1      -0.626  -8.303  -0.911  0.00  0.00    +0.019 C 
BRANCH  18  19
ATOM     19  C   UNL     1      -2.055  -8.779  -0.954  0.00  0.00    +0.201 C 
ATOM     20  O   UNL     1      -2.962  -7.974  -0.978  0.00  0.00    -0.278 OA
ATOM     21  N   UNL     1      -2.326 -10.099  -0.966  0.00  0.00    -0.281 N 
ATOM     22  H   UNL     1      -1.601 -10.743  -0.947  0.00  0.00    +0.155 HD
BRANCH  21  23
ATOM     23  C   UNL     1      -3.641 -10.537  -1.005  0.00  0.00    +0.084 A 
ATOM     24  C   UNL     1      -4.104 -11.845  -1.017  0.00  0.00    +0.065 A 
ATOM     25  C   UNL     1      -5.538 -12.022  -1.061  0.00  0.00    +0.022 A 
ATOM     26  C   UNL     1      -6.268 -10.892  -1.085  0.00  0.00    +0.048 A 
ATOM     27  S   UNL     1      -5.037  -9.607  -1.042  0.00  0.00    -0.081 S 
BRANCH  24  28
ATOM     28  C   UNL     1      -3.187 -12.988  -0.988  0.00  0.00    +0.244 C 
ATOM     29  O   UNL     1      -1.984 -12.803  -0.952  0.00  0.00    -0.270 OA
ATOM     30  N   UNL     1      -3.675 -14.244  -1.001  0.00  0.00    -0.325 N 
ATOM     31  H   UNL     1      -4.633 -14.392  -1.030  0.00  0.00    +0.145 HD
ATOM     32  H   UNL     1      -3.068 -15.001  -0.982  0.00  0.00    +0.145 HD
ENDBRANCH  24  28
ENDBRANCH  21  23
ENDBRANCH  18  19
ENDBRANCH   4  18
TORSDOF 5
