REMARK  Name = ZINC36500544
REMARK  14 active torsions:
REMARK  status: ('A' for Active; 'I' for Inactive)
REMARK    1  A    between atoms: C_1  and  C_2
REMARK    2  A    between atoms: C_2  and  C_3
REMARK    3  A    between atoms: C_2  and  C_4
REMARK    4  A    between atoms: C_2  and  N_5
REMARK    5  A    between atoms: C_6  and  C_8
REMARK    6  A    between atoms: C_8  and  C_10
REMARK    7  A    between atoms: C_8  and  N_22
REMARK    8  A    between atoms: C_19  and  O_20
REMARK    9  A    between atoms: O_20  and  C_21
REMARK   10  A    between atoms: N_22  and  C_23
REMARK   11  A    between atoms: C_23  and  C_24
REMARK   12  A    between atoms: C_29  and  C_31
REMARK   13  A    between atoms: C_32  and  O_38
REMARK   14  A    between atoms: C_36  and  O_37
REMARK                            x       y       z     vdW  Elec       q    Type
REMARK                         _______ _______ _______ _____ _____    ______ ____
ROOT
ATOM      1  C   UNL     1       2.554  -0.488  -2.531  0.00  0.00    +0.197 C 
ENDROOT
BRANCH   1   2
ATOM      2  C   UNL     1       1.804  -0.067  -3.768  0.00  0.00    +0.031 A 
ATOM      3  C   UNL     1       0.893  -0.947  -4.375  0.00  0.00    -0.009 A 
ATOM      4  C   UNL     1       0.657  -2.229  -3.850  0.00  0.00    +0.009 A 
ATOM      5  C   UNL     1      -0.233  -3.055  -4.464  0.00  0.00    +0.001 A 
ATOM      6  C   UNL     1      -0.918  -2.648  -5.608  0.00  0.00    +0.001 A 
ATOM      7  C   UNL     1      -0.716  -1.414  -6.144  0.00  0.00    +0.008 A 
ATOM      8  C   UNL     1       0.196  -0.533  -5.538  0.00  0.00    -0.017 A 
ATOM      9  C   UNL     1       0.429   0.750  -6.064  0.00  0.00    +0.012 A 
ATOM     10  C   UNL     1       1.319   1.577  -5.453  0.00  0.00    +0.046 A 
ATOM     11  C   UNL     1       2.003   1.174  -4.303  0.00  0.00    +0.126 A 
BRANCH  11  12
ATOM     12  O   UNL     1       2.882   2.026  -3.711  0.00  0.00    -0.495 OA
ATOM     13  C   UNL     1       3.071   3.298  -4.334  0.00  0.00    +0.277 C 
ENDBRANCH  11  12
ENDBRANCH   1   2
BRANCH   1  15
ATOM     14  N   UNL     1       0.700   0.592  -1.301  0.00  0.00    -0.309 N 
ATOM     15  C   UNL     1       2.001   0.243  -1.335  0.00  0.00    +0.239 C 
ATOM     16  O   UNL     1       2.727   0.517  -0.403  0.00  0.00    -0.273 OA
ATOM     17  H   UNL     1       0.119   0.372  -2.046  0.00  0.00    +0.149 HD
BRANCH  14  19
ATOM     18  C   UNL     1       0.905   2.629   0.037  0.00  0.00    +0.031 C 
ATOM     19  C   UNL     1       0.162   1.303  -0.138  0.00  0.00    +0.026 C 
ATOM     20  C   UNL     1       0.347   0.445   1.115  0.00  0.00    +0.031 C 
ATOM     21  C   UNL     1      -1.328   1.578  -0.353  0.00  0.00    +0.031 C 
ENDBRANCH  14  19
ENDBRANCH   1  15
BRANCH   1  22
ATOM     22  N   UNL     1       3.975  -0.165  -2.687  0.00  0.00    -0.274 N 
ATOM     23  C   UNL     1       4.707  -0.785  -3.634  0.00  0.00    +0.255 C 
ATOM     24  O   UNL     1       4.188  -1.611  -4.359  0.00  0.00    -0.270 OA
BRANCH  23  25
ATOM     25  C   UNL     1       6.134  -0.460  -3.791  0.00  0.00    +0.119 A 
ATOM     26  C   UNL     1       7.104  -1.181  -3.080  0.00  0.00    +0.133 A 
ATOM     27  C   UNL     1       8.445  -0.867  -3.235  0.00  0.00    +0.046 A 
ATOM     28  C   UNL     1       8.827   0.152  -4.087  0.00  0.00    +0.007 A 
ATOM     29  C   UNL     1       7.879   0.869  -4.793  0.00  0.00    +0.046 A 
ATOM     30  C   UNL     1       6.533   0.569  -4.657  0.00  0.00    +0.133 A 
BRANCH  30  31
ATOM     31  O   UNL     1       5.605   1.270  -5.355  0.00  0.00    -0.506 OA
ATOM     32  H   UNL     1       5.277   2.054  -4.894  0.00  0.00    +0.292 HD
ENDBRANCH  30  31
BRANCH  26  33
ATOM     33  O   UNL     1       6.732  -2.181  -2.243  0.00  0.00    -0.506 OA
ATOM     34  H   UNL     1       6.682  -3.049  -2.665  0.00  0.00    +0.292 HD
ENDBRANCH  26  33
ENDBRANCH  23  25
BRANCH  22  35
ATOM     35  C   UNL     1       4.600   0.831  -1.813  0.00  0.00    +0.183 C 
BRANCH  35  36
ATOM     36  C   UNL     1       5.312   0.132  -0.684  0.00  0.00    +0.122 A 
ATOM     37  C   UNL     1       6.630  -0.133  -0.629  0.00  0.00    +0.046 A 
ATOM     38  C   UNL     1       6.864  -0.795   0.598  0.00  0.00    +0.041 A 
ATOM     39  C   UNL     1       5.676  -0.895   1.220  0.00  0.00    +0.195 A 
ATOM     40  O   UNL     1       4.740  -0.327   0.441  0.00  0.00    -0.466 OA
ENDBRANCH  35  36
ENDBRANCH  22  35
ENDBRANCH   1  22
TORSDOF 10
