REMARK  Name = ZINC29787286
REMARK  8 active torsions:
REMARK  status: ('A' for Active; 'I' for Inactive)
REMARK    1  A    between atoms: C_1  and  C_2
REMARK    2  A    between atoms: N_11  and  C_15
REMARK    3  A    between atoms: C_15  and  C_16
REMARK    4  A    between atoms: N_18  and  C_19
REMARK    5  A    between atoms: C_21  and  C_27
REMARK    6  A    between atoms: C_21  and  C_28
REMARK    7  A    between atoms: C_23  and  C_25
REMARK    8  A    between atoms: C_23  and  C_26
REMARK                            x       y       z     vdW  Elec       q    Type
REMARK                         _______ _______ _______ _____ _____    ______ ____
ROOT
ATOM      1  C   UNL     1       0.077   5.700  -2.358  0.00  0.00    +0.231 C 
ATOM      2  O   UNL     1      -0.186   5.073  -3.362  0.00  0.00    -0.274 OA
ATOM      3  N   UNL     1       0.376   5.050  -1.216  0.00  0.00    -0.311 N 
ATOM      4  H   UNL     1       0.615   5.618  -0.305  0.00  0.00    +0.149 HD
ENDROOT
BRANCH   3   5
ATOM      5  C   UNL     1       0.383   3.582  -1.188  0.00  0.00    +0.070 C 
ATOM      6  C   UNL     1       1.307   3.104  -0.068  0.00  0.00    +0.009 C 
ATOM      7  C   UNL     1       1.318   1.579  -0.002  0.00  0.00    -0.072 C 
ATOM      8  N   UNL     1      -0.012   1.005   0.008  0.00  0.00    +0.386 N 
ATOM      9  C   UNL     1      -1.049   1.551  -0.842  0.00  0.00    -0.072 C 
ATOM     10  C   UNL     1      -1.030   3.077  -0.900  0.00  0.00    +0.009 C 
ATOM     11  C   UNL     1      -0.958   0.983  -2.263  0.00  0.00    -0.010 C 
ATOM     12  C   UNL     1      -2.418   1.125  -0.266  0.00  0.00    -0.010 C 
ATOM     13  C   UNL     1       2.027   1.175   1.309  0.00  0.00    -0.010 C 
ATOM     14  C   UNL     1       2.153   1.022  -1.161  0.00  0.00    -0.010 C 
ATOM     15  H   UNL     1       0.043  -0.052  -0.292  0.00  0.00    -0.084 HD
ATOM     16  H   UNL     1      -0.435   1.078   1.020  0.00  0.00    -0.084 HD
ENDBRANCH   3   5
BRANCH   1  17
ATOM     17  C   UNL     1       0.070   7.207  -2.387  0.00  0.00    +0.213 C 
BRANCH  17  27
ATOM     18  C   UNL     1       0.025  10.710  -5.105  0.00  0.00    +0.010 C 
ATOM     19  C   UNL     1       0.190   9.776  -6.306  0.00  0.00    +0.018 C 
ATOM     20  C   UNL     1       1.648   9.797  -6.771  0.00  0.00    +0.006 C 
ATOM     21  C   UNL     1       1.817   8.848  -7.958  0.00  0.00    +0.000 C 
ATOM     22  C   UNL     1       1.448   7.425  -7.532  0.00  0.00    +0.003 C 
ATOM     23  C   UNL     1      -0.011   7.395  -7.070  0.00  0.00    +0.035 C 
ATOM     24  C   UNL     1      -0.197   8.357  -5.903  0.00  0.00    +0.115 C 
ATOM     25  C   UNL     1       0.616   7.911  -4.710  0.00  0.00    +0.247 C 
ATOM     26  O   UNL     1       1.821   7.794  -4.645  0.00  0.00    -0.273 OA
ATOM     27  N   UNL     1      -0.282   7.668  -3.732  0.00  0.00    -0.215 N 
ATOM     28  C   UNL     1      -1.534   7.905  -4.143  0.00  0.00    +0.310 C 
ATOM     29  O   UNL     1      -2.514   7.762  -3.439  0.00  0.00    -0.252 OA
ATOM     30  N   UNL     1      -1.585   8.320  -5.423  0.00  0.00    -0.285 N 
ATOM     31  H   UNL     1      -2.407   8.606  -6.095  0.00  0.00    +0.151 HD
ENDBRANCH  17  27
ENDBRANCH   1  17
TORSDOF 3
