REMARK  Name = ZINC12721936
REMARK  11 active torsions:
REMARK  status: ('A' for Active; 'I' for Inactive)
REMARK    1  A    between atoms: C_1  and  C_2
REMARK    2  A    between atoms: C_2  and  N_3
REMARK    3  A    between atoms: N_3  and  C_4
REMARK    4  A    between atoms: N_3  and  S_6
REMARK    5  A    between atoms: C_4  and  C_5
REMARK    6  A    between atoms: S_6  and  C_9
REMARK    7  A    between atoms: C_13  and  C_15
REMARK    8  A    between atoms: C_18  and  S_21
REMARK    9  A    between atoms: N_19  and  N_20
REMARK   10  A    between atoms: S_21  and  C_22
REMARK   11  A    between atoms: C_22  and  C_23
REMARK                            x       y       z     vdW  Elec       q    Type
REMARK                         _______ _______ _______ _____ _____    ______ ____
ROOT
ATOM      1  C   UNL     1       1.172   3.565   0.011  0.00  0.00    +0.182 A 
ATOM      2  N   UNL     1       2.187   4.352   0.278  0.00  0.00    -0.127 NA
ATOM      3  N   UNL     1       1.823   5.582   0.194  0.00  0.00    -0.121 NA
ATOM      4  C   UNL     1       0.552   5.655  -0.133  0.00  0.00    +0.209 A 
ATOM      5  N   UNL     1       0.095   4.375  -0.266  0.00  0.00    -0.224 N 
ENDROOT
BRANCH   1  10
ATOM      6  C   UNL     1       2.402   0.017  -0.021  0.00  0.00    +0.106 A 
ATOM      7  C   UNL     1       1.208  -0.682  -0.013  0.00  0.00    +0.028 A 
ATOM      8  C   UNL     1       0.002  -0.004   0.002  0.00  0.00    +0.003 A 
ATOM      9  C   UNL     1      -0.017   1.376   0.010  0.00  0.00    +0.012 A 
ATOM     10  C   UNL     1       1.184   2.087   0.002  0.00  0.00    +0.023 A 
ATOM     11  C   UNL     1       2.397   1.396  -0.013  0.00  0.00    +0.040 A 
BRANCH   6  12
ATOM     12  S   UNL     1       3.932  -0.857  -0.040  0.00  0.00    +0.061 S 
ATOM     13  O   UNL     1       4.907   0.020   0.506  0.00  0.00    -0.153 OA
ATOM     14  O   UNL     1       3.672  -2.143   0.506  0.00  0.00    -0.153 OA
BRANCH  12  15
ATOM     15  N   UNL     1       4.342  -1.091  -1.627  0.00  0.00    -0.177 NA
BRANCH  15  17
ATOM     16  C   UNL     1       6.626  -0.499  -2.268  0.00  0.00    +0.022 C 
ATOM     17  C   UNL     1       5.152  -0.093  -2.329  0.00  0.00    +0.106 C 
ENDBRANCH  15  17
BRANCH  15  18
ATOM     18  C   UNL     1       3.894  -2.297  -2.329  0.00  0.00    +0.106 C 
ATOM     19  C   UNL     1       2.600  -1.994  -3.088  0.00  0.00    +0.022 C 
ENDBRANCH  15  18
ENDBRANCH  12  15
ENDBRANCH   6  12
ENDBRANCH   1  10
BRANCH   5  20
ATOM     20  N   UNL     1      -1.170   3.982  -0.602  0.00  0.00    -0.295 N 
ATOM     21  H   UNL     1      -1.744   3.870   0.220  0.00  0.00    +0.163 HD
ATOM     22  H   UNL     1      -1.590   4.630  -1.251  0.00  0.00    +0.163 HD
ENDBRANCH   5  20
BRANCH   4  23
ATOM     23  S   UNL     1      -0.385   7.129  -0.363  0.00  0.00    -0.080 S 
BRANCH  23  24
ATOM     24  C   UNL     1       0.891   8.368  -0.024  0.00  0.00    +0.112 C 
BRANCH  24  25
ATOM     25  C   UNL     1       0.301   9.748  -0.165  0.00  0.00    -0.032 A 
ATOM     26  C   UNL     1       0.335  10.391  -1.389  0.00  0.00    +0.054 A 
ATOM     27  C   UNL     1      -0.211  11.657  -1.523  0.00  0.00    +0.168 A 
ATOM     28  C   UNL     1      -0.784  12.284  -0.420  0.00  0.00    +0.184 A 
ATOM     29  C   UNL     1      -0.810  11.636   0.805  0.00  0.00    +0.087 A 
ATOM     30  C   UNL     1      -0.268  10.370   0.930  0.00  0.00    +0.028 A 
ATOM     31 CL   UNL     1      -1.524  12.414   2.183  0.00  0.00    -0.080 Cl
ATOM     32  O   UNL     1      -1.242  13.511  -0.805  0.00  0.00    -0.451 OA
ATOM     33  C   UNL     1      -1.310  13.463  -2.242  0.00  0.00    +0.466 C 
ATOM     34  O   UNL     1      -0.309  12.491  -2.599  0.00  0.00    -0.453 OA
ENDBRANCH  24  25
ENDBRANCH  23  24
ENDBRANCH   4  23
TORSDOF 9
