REMARK  Name = ZINC15523995
REMARK  6 active torsions:
REMARK  status: ('A' for Active; 'I' for Inactive)
REMARK    1  A    between atoms: C_3  and  N_11
REMARK    2  A    between atoms: C_6  and  C_7
REMARK    3  A    between atoms: N_15  and  C_18
REMARK    4  A    between atoms: C_18  and  C_19
REMARK    5  A    between atoms: N_21  and  C_22
REMARK    6  A    between atoms: C_23  and  C_31
REMARK                            x       y       z     vdW  Elec       q    Type
REMARK                         _______ _______ _______ _____ _____    ______ ____
ROOT
ATOM      1  C   UNL     1      -3.557  -4.280   1.287  0.00  0.00    +0.019 C 
ENDROOT
BRANCH   1   6
ATOM      2  N   UNL     1      -1.196  -0.709   0.010  0.00  0.00    -0.317 N 
ATOM      3  C   UNL     1      -2.073  -0.252   1.110  0.00  0.00    +0.104 C 
ATOM      4  C   UNL     1      -3.505  -0.522   0.724  0.00  0.00    +0.000 C 
ATOM      5  C   UNL     1      -3.993  -1.889   1.231  0.00  0.00    -0.077 C 
ATOM      6  N   UNL     1      -2.973  -2.950   1.069  0.00  0.00    +0.386 N 
ATOM      7  C   UNL     1      -2.267  -2.894  -0.192  0.00  0.00    -0.059 C 
ATOM      8  C   UNL     1      -0.965  -2.090   0.000  0.00  0.00    +0.088 C 
ATOM      9  H   UNL     1      -2.198  -2.765   1.827  0.00  0.00    -0.081 HD
BRANCH   2  12
ATOM     10  C   UNL     1       1.183   2.076   0.002  0.00  0.00    +0.017 A 
ATOM     11  C   UNL     1      -0.017   1.387   0.010  0.00  0.00    +0.044 A 
ATOM     12  C   UNL     1       0.002  -0.004   0.002  0.00  0.00    +0.121 A 
ATOM     13  N   UNL     1       1.151  -0.662  -0.013  0.00  0.00    -0.240 NA
ATOM     14  C   UNL     1       2.310  -0.032  -0.020  0.00  0.00    +0.125 A 
ATOM     15  C   UNL     1       2.365   1.348  -0.013  0.00  0.00    +0.073 A 
BRANCH  15  16
ATOM     16  C   UNL     1       3.695   2.057  -0.022  0.00  0.00    +0.419 C 
ATOM     17  F   UNL     1       4.727   1.112  -0.037  0.00  0.00    -0.166 F 
ATOM     18  F   UNL     1       3.785   2.865  -1.160  0.00  0.00    -0.166 F 
ATOM     19  F   UNL     1       3.808   2.852   1.124  0.00  0.00    -0.166 F 
ENDBRANCH  15  16
ENDBRANCH   2  12
ENDBRANCH   1   6
BRANCH   1  20
ATOM     20  C   UNL     1      -2.453  -5.293   1.449  0.00  0.00    +0.201 C 
ATOM     21  O   UNL     1      -1.294  -4.941   1.389  0.00  0.00    -0.278 OA
ATOM     22  N   UNL     1      -2.754  -6.589   1.661  0.00  0.00    -0.281 N 
ATOM     23  H   UNL     1      -3.805  -6.908   1.716  0.00  0.00    +0.155 HD
BRANCH  22  24
ATOM     24  C   UNL     1      -1.738  -7.521   1.810  0.00  0.00    +0.084 A 
ATOM     25  C   UNL     1      -1.846  -8.886   2.038  0.00  0.00    +0.068 A 
ATOM     26  C   UNL     1      -0.615  -9.648   2.153  0.00  0.00    -0.023 A 
ATOM     27  C   UNL     1       0.521  -8.926   2.033  0.00  0.00    -0.004 A 
ATOM     28  S   UNL     1      -0.025  -7.264   1.764  0.00  0.00    -0.077 S 
ATOM     29  C   UNL     1       1.927  -9.435   2.114  0.00  0.00    +0.043 C 
ATOM     30  C   UNL     1       1.898 -10.843   2.726  0.00  0.00    +0.005 C 
ATOM     31  C   UNL     1       0.821 -11.668   2.015  0.00  0.00    +0.005 C 
ATOM     32  C   UNL     1      -0.567 -11.151   2.397  0.00  0.00    +0.037 C 
BRANCH  25  33
ATOM     33  C   UNL     1      -3.156  -9.535   2.155  0.00  0.00    +0.244 C 
ATOM     34  O   UNL     1      -3.706  -9.979   1.164  0.00  0.00    -0.270 OA
ATOM     35  N   UNL     1      -3.750  -9.641   3.360  0.00  0.00    -0.325 N 
ATOM     36  H   UNL     1      -4.733 -10.129   3.448  0.00  0.00    +0.145 HD
ATOM     37  H   UNL     1      -3.253  -9.240   4.256  0.00  0.00    +0.145 HD
ENDBRANCH  25  33
ENDBRANCH  22  24
ENDBRANCH   1  20
TORSDOF 6
