REMARK  Name = ZINC36495258
REMARK  13 active torsions:
REMARK  status: ('A' for Active; 'I' for Inactive)
REMARK    1  A    between atoms: C_1  and  C_2
REMARK    2  A    between atoms: C_7  and  C_8
REMARK    3  A    between atoms: C_8  and  C_9
REMARK    4  A    between atoms: N_11  and  C_12
REMARK    5  A    between atoms: N_11  and  C_18
REMARK    6  A    between atoms: C_12  and  C_13
REMARK    7  A    between atoms: C_18  and  C_20
REMARK    8  A    between atoms: C_18  and  C_30
REMARK    9  A    between atoms: C_22  and  N_27
REMARK   10  A    between atoms: N_32  and  C_33
REMARK   11  A    between atoms: C_33  and  C_34
REMARK   12  A    between atoms: C_33  and  C_35
REMARK   13  A    between atoms: C_33  and  C_36
REMARK                            x       y       z     vdW  Elec       q    Type
REMARK                         _______ _______ _______ _____ _____    ______ ____
ROOT
ATOM      1  C   UNL     1      -3.042   1.001   4.362  0.00  0.00    +0.194 C 
ENDROOT
BRANCH   1   2
ATOM      2  C   UNL     1      -3.212   2.477   4.112  0.00  0.00    +0.002 A 
ATOM      3  C   UNL     1      -3.358   3.346   5.178  0.00  0.00    +0.040 A 
ATOM      4  C   UNL     1      -3.515   4.700   4.950  0.00  0.00    +0.127 A 
ATOM      5  C   UNL     1      -3.525   5.187   3.656  0.00  0.00    +0.034 A 
ATOM      6  C   UNL     1      -3.379   4.319   2.590  0.00  0.00    +0.022 A 
ATOM      7  C   UNL     1      -3.216   2.964   2.818  0.00  0.00    +0.047 A 
ATOM      8 CL   UNL     1      -3.024   1.875   1.480  0.00  0.00    -0.083 Cl
BRANCH   4   9
ATOM      9  N   UNL     1      -3.672   5.629   6.091  0.00  0.00    +0.056 N 
ATOM     10  O   UNL     1      -3.578   5.217   7.224  0.00  0.00    -0.126 OA
ATOM     11  O   UNL     1      -3.895   6.800   5.891  0.00  0.00    -0.126 OA
ENDBRANCH   4   9
ENDBRANCH   1   2
BRANCH   1  12
ATOM     12  C   UNL     1      -3.460   0.678   5.773  0.00  0.00    +0.239 C 
ATOM     13  O   UNL     1      -2.619   0.462   6.620  0.00  0.00    -0.273 OA
ATOM     14  N   UNL     1      -4.768   0.629   6.094  0.00  0.00    -0.309 N 
ATOM     15  H   UNL     1      -5.441   0.727   5.403  0.00  0.00    +0.149 HD
BRANCH  14  16
ATOM     16  C   UNL     1      -5.173   0.429   7.488  0.00  0.00    +0.026 C 
ATOM     17  C   UNL     1      -4.623   1.569   8.348  0.00  0.00    +0.031 C 
ATOM     18  C   UNL     1      -6.700   0.413   7.577  0.00  0.00    +0.031 C 
ATOM     19  C   UNL     1      -4.618  -0.904   7.993  0.00  0.00    +0.031 C 
ENDBRANCH  14  16
ENDBRANCH   1  12
BRANCH   1  22
ATOM     20  C   UNL     1      -0.671   1.285   4.849  0.00  0.00    +0.221 C 
ATOM     21  O   UNL     1      -0.966   2.177   5.616  0.00  0.00    -0.275 OA
ATOM     22  N   UNL     1      -1.637   0.632   4.172  0.00  0.00    -0.278 N 
BRANCH  20  23
ATOM     23  C   UNL     1       0.774   0.906   4.654  0.00  0.00    +0.131 C 
BRANCH  23  30
ATOM     24  C   UNL     1       1.247   0.193   7.414  0.00  0.00    +0.044 C 
ATOM     25  C   UNL     1       1.870   1.439   6.840  0.00  0.00    -0.047 A 
ATOM     26  C   UNL     1       2.673   2.238   7.633  0.00  0.00    +0.003 A 
ATOM     27  C   UNL     1       3.244   3.381   7.107  0.00  0.00    +0.000 A 
ATOM     28  C   UNL     1       3.014   3.726   5.788  0.00  0.00    +0.000 A 
ATOM     29  C   UNL     1       2.212   2.926   4.995  0.00  0.00    +0.004 A 
ATOM     30  C   UNL     1       1.644   1.780   5.520  0.00  0.00    -0.036 A 
ENDBRANCH  23  30
ENDBRANCH  20  23
BRANCH  22  31
ATOM     31  C   UNL     1      -1.280  -0.446   3.246  0.00  0.00    +0.183 C 
BRANCH  31  32
ATOM     32  C   UNL     1      -1.345  -1.768   3.966  0.00  0.00    +0.122 A 
ATOM     33  C   UNL     1      -2.415  -2.581   4.023  0.00  0.00    +0.046 A 
ATOM     34  C   UNL     1      -2.036  -3.703   4.796  0.00  0.00    +0.041 A 
ATOM     35  C   UNL     1      -0.757  -3.508   5.164  0.00  0.00    +0.195 A 
ATOM     36  O   UNL     1      -0.342  -2.337   4.653  0.00  0.00    -0.466 OA
ENDBRANCH  31  32
ENDBRANCH  22  31
ENDBRANCH   1  22
TORSDOF 9
