REMARK  Name = ZINC15478329
REMARK  9 active torsions:
REMARK  status: ('A' for Active; 'I' for Inactive)
REMARK    1  A    between atoms: C_1  and  O_2
REMARK    2  A    between atoms: O_2  and  C_3
REMARK    3  A    between atoms: C_6  and  C_9
REMARK    4  A    between atoms: C_9  and  C_11
REMARK    5  A    between atoms: C_9  and  N_66
REMARK    6  A    between atoms: C_11  and  N_12
REMARK    7  A    between atoms: C_13  and  C_15
REMARK    8  A    between atoms: N_18  and  S_21
REMARK    9  A    between atoms: S_21  and  C_24
REMARK                            x       y       z     vdW  Elec       q    Type
REMARK                         _______ _______ _______ _____ _____    ______ ____
ROOT
ATOM      1  N   UNL     1       0.097  -1.722   6.394  0.00  0.00    -0.316 N 
ATOM      2  C   UNL     1      -0.360  -0.879   5.446  0.00  0.00    +0.216 C 
ATOM      3  O   UNL     1      -0.580   0.281   5.721  0.00  0.00    -0.276 OA
ATOM      4  H   UNL     1       0.273  -2.650   6.174  0.00  0.00    +0.149 HD
ENDROOT
BRANCH   2   5
ATOM      5  C   UNL     1      -0.597  -1.380   4.045  0.00  0.00    +0.077 C 
ATOM      6  C   UNL     1      -1.111  -0.231   3.173  0.00  0.00    +0.030 C 
ATOM      7  C   UNL     1      -1.384  -0.751   1.758  0.00  0.00    +0.110 C 
ATOM      8  N   UNL     1      -0.166  -1.398   1.249  0.00  0.00    -0.176 NA
ATOM      9  C   UNL     1       0.459  -2.458   2.051  0.00  0.00    +0.110 C 
ATOM     10  C   UNL     1       0.714  -1.915   3.465  0.00  0.00    +0.030 C 
BRANCH   8  11
ATOM     11  S   UNL     1       0.485  -0.944  -0.204  0.00  0.00    +0.067 S 
ATOM     12  O   UNL     1      -0.573  -0.373  -0.963  0.00  0.00    -0.152 OA
ATOM     13  O   UNL     1       1.246  -2.050  -0.671  0.00  0.00    -0.152 OA
BRANCH  11  14
ATOM     14  C   UNL     1       1.630   0.354   0.120  0.00  0.00    +0.143 A 
ATOM     15  C   UNL     1       2.954   0.275   0.401  0.00  0.00    +0.036 A 
ATOM     16  C   UNL     1       3.663   1.440   0.623  0.00  0.00    +0.010 A 
ATOM     17  C   UNL     1       3.014   2.628   0.554  0.00  0.00    +0.047 A 
ATOM     18  S   UNL     1       1.349   2.117   0.165  0.00  0.00    -0.077 S 
ENDBRANCH  11  14
ENDBRANCH   8  11
ENDBRANCH   2   5
BRANCH   1  19
ATOM     19  C   UNL     1       0.327  -1.235   7.756  0.00  0.00    +0.093 C 
BRANCH  19  20
ATOM     20  C   UNL     1       0.679  -2.414   8.666  0.00  0.00    -0.020 C 
BRANCH  20  26
ATOM     21  C   UNL     1      -0.265  -4.442   7.741  0.00  0.00    -0.078 C 
ATOM     22  C   UNL     1      -1.382  -5.474   7.914  0.00  0.00    -0.019 C 
ATOM     23  C   UNL     1      -2.737  -4.795   7.695  0.00  0.00    -0.004 C 
ATOM     24  C   UNL     1      -2.883  -3.635   8.684  0.00  0.00    -0.019 C 
ATOM     25  C   UNL     1      -1.723  -2.656   8.488  0.00  0.00    -0.078 C 
ATOM     26  N   UNL     1      -0.450  -3.365   8.737  0.00  0.00    +0.385 N 
ATOM     27  H   UNL     1      -0.477  -3.780   9.675  0.00  0.00    -0.081 HD
ENDBRANCH  20  26
BRANCH  20  31
ATOM     28  C   UNL     1       1.488  -0.978  12.609  0.00  0.00    +0.120 A 
ATOM     29  C   UNL     1       2.533  -1.362  11.781  0.00  0.00    +0.046 A 
ATOM     30  C   UNL     1       2.269  -1.826  10.507  0.00  0.00    +0.005 A 
ATOM     31  C   UNL     1       0.964  -1.907  10.057  0.00  0.00    -0.059 A 
ATOM     32  C   UNL     1      -0.079  -1.520  10.877  0.00  0.00    +0.005 A 
ATOM     33  C   UNL     1       0.180  -1.060  12.155  0.00  0.00    +0.046 A 
BRANCH  28  35
ATOM     34  C   UNL     1       0.621  -0.142  14.659  0.00  0.00    +0.277 C 
ATOM     35  O   UNL     1       1.746  -0.520  13.863  0.00  0.00    -0.495 OA
ENDBRANCH  28  35
ENDBRANCH  20  31
ENDBRANCH  19  20
ENDBRANCH   1  19
TORSDOF 8
