REMARK  Name = ZINC28707561
REMARK  8 active torsions:
REMARK  status: ('A' for Active; 'I' for Inactive)
REMARK    1  A    between atoms: C_3  and  C_8
REMARK    2  A    between atoms: C_5  and  O_7
REMARK    3  A    between atoms: C_10  and  C_14
REMARK    4  A    between atoms: C_14  and  N_15
REMARK    5  A    between atoms: N_24  and  C_25
REMARK    6  A    between atoms: C_25  and  C_26
REMARK    7  A    between atoms: C_30  and  C_32
REMARK    8  A    between atoms: C_36  and  O_38
REMARK                            x       y       z     vdW  Elec       q    Type
REMARK                         _______ _______ _______ _____ _____    ______ ____
ROOT
ATOM      1  N   UNL     1       4.934   6.130   1.631  0.00  0.00    -0.301 NA
ATOM      2  C   UNL     1       3.725   5.716   2.357  0.00  0.00    +0.069 C 
ATOM      3  C   UNL     1       3.859   6.132   3.831  0.00  0.00    -0.053 C 
ATOM      4  C   UNL     1       5.253   5.674   4.322  0.00  0.00    -0.016 C 
ATOM      5  C   UNL     1       6.199   6.838   3.960  0.00  0.00    -0.016 C 
ATOM      6  C   UNL     1       5.288   7.890   3.285  0.00  0.00    -0.053 C 
ATOM      7  C   UNL     1       5.192   7.569   1.784  0.00  0.00    +0.069 C 
ATOM      8  N   UNL     1       3.923   7.619   3.858  0.00  0.00    +0.388 N 
ATOM      9  H   UNL     1       3.195   8.018   3.283  0.00  0.00    -0.080 HD
ENDROOT
BRANCH   1  10
ATOM     10  C   UNL     1       4.850   5.758   0.213  0.00  0.00    +0.119 C 
BRANCH  10  13
ATOM     11  C   UNL     1       3.659   2.172  -0.022  0.00  0.00    +0.071 A 
ATOM     12  C   UNL     1       3.635   3.560   0.097  0.00  0.00    +0.033 A 
ATOM     13  C   UNL     1       4.832   4.256   0.088  0.00  0.00    -0.030 A 
ATOM     14  C   UNL     1       6.014   3.541  -0.040  0.00  0.00    +0.024 A 
ATOM     15  C   UNL     1       5.963   2.164  -0.153  0.00  0.00    +0.112 A 
ATOM     16  N   UNL     1       4.811   1.525  -0.137  0.00  0.00    -0.255 NA
BRANCH  11  19
ATOM     17  C   UNL     1      -0.017   1.378   0.010  0.00  0.00    +0.004 A 
ATOM     18  C   UNL     1       1.167   2.088   0.002  0.00  0.00    +0.010 A 
ATOM     19  C   UNL     1       2.385   1.411  -0.013  0.00  0.00    +0.004 A 
ATOM     20  C   UNL     1       2.404   0.019  -0.021  0.00  0.00    +0.055 A 
ATOM     21  C   UNL     1       1.211  -0.686  -0.013  0.00  0.00    +0.117 A 
ATOM     22  C   UNL     1       0.002  -0.004   0.002  0.00  0.00    +0.045 A 
BRANCH  21  23
ATOM     23  O   UNL     1       1.225  -2.045  -0.021  0.00  0.00    -0.507 OA
ATOM     24  H   UNL     1       1.238  -2.443   0.860  0.00  0.00    +0.292 HD
ENDBRANCH  21  23
ENDBRANCH  11  19
ENDBRANCH  10  13
ENDBRANCH   1  10
BRANCH   8  25
ATOM     25  C   UNL     1       3.831   8.118   5.237  0.00  0.00    -0.042 C 
BRANCH  25  26
ATOM     26  C   UNL     1       3.774   9.624   5.223  0.00  0.00    -0.060 A 
ATOM     27  C   UNL     1       4.938  10.379   5.274  0.00  0.00    +0.021 A 
ATOM     28  C   UNL     1       4.852  11.759   5.259  0.00  0.00    +0.111 A 
ATOM     29  N   UNL     1       3.683  12.363   5.198  0.00  0.00    -0.255 NA
ATOM     30  C   UNL     1       2.548  11.679   5.148  0.00  0.00    +0.071 A 
ATOM     31  C   UNL     1       2.560  10.286   5.154  0.00  0.00    +0.030 A 
BRANCH  30  32
ATOM     32  C   UNL     1       1.255  12.403   5.080  0.00  0.00    +0.004 A 
ATOM     33  C   UNL     1       0.057  11.692   5.033  0.00  0.00    +0.010 A 
ATOM     34  C   UNL     1      -1.145  12.368   4.971  0.00  0.00    +0.004 A 
ATOM     35  C   UNL     1      -1.165  13.750   4.954  0.00  0.00    +0.045 A 
ATOM     36  C   UNL     1       0.024  14.466   5.000  0.00  0.00    +0.117 A 
ATOM     37  C   UNL     1       1.234  13.796   5.069  0.00  0.00    +0.055 A 
BRANCH  36  38
ATOM     38  O   UNL     1      -0.001  15.825   4.982  0.00  0.00    -0.507 OA
ATOM     39  H   UNL     1      -0.048  16.229   5.859  0.00  0.00    +0.292 HD
ENDBRANCH  36  38
ENDBRANCH  30  32
ENDBRANCH  25  26
ENDBRANCH   8  25
TORSDOF 8
