REMARK  Name = ZINC63587469
REMARK  8 active torsions:
REMARK  status: ('A' for Active; 'I' for Inactive)
REMARK    1  A    between atoms: C_7  and  C_10
REMARK    2  A    between atoms: C_10  and  C_11
REMARK    3  A    between atoms: C_11  and  N_12
REMARK    4  A    between atoms: C_13  and  C_15
REMARK    5  A    between atoms: C_16  and  C_17
REMARK    6  A    between atoms: C_20  and  S_26
REMARK    7  A    between atoms: C_21  and  N_23
REMARK    8  A    between atoms: S_26  and  C_27
REMARK                            x       y       z     vdW  Elec       q    Type
REMARK                         _______ _______ _______ _____ _____    ______ ____
ROOT
ATOM      1  C   UNL     1      -1.743  -6.507  -2.622  0.00  0.00    +0.068 C 
ATOM      2  C   UNL     1      -2.087  -7.097  -3.788  0.00  0.00    +0.013 C 
ENDROOT
BRANCH   2   3
ATOM      3  C   UNL     1      -3.002  -8.247  -3.786  0.00  0.00    -0.023 A 
ATOM      4  C   UNL     1      -3.522  -8.728  -2.578  0.00  0.00    +0.009 A 
ATOM      5  C   UNL     1      -4.372  -9.797  -2.581  0.00  0.00    +0.018 A 
ATOM      6  C   UNL     1      -4.722 -10.409  -3.783  0.00  0.00    +0.043 A 
ATOM      7  C   UNL     1      -4.206  -9.933  -4.987  0.00  0.00    +0.140 A 
ATOM      8  C   UNL     1      -3.360  -8.860  -4.993  0.00  0.00    +0.041 A 
BRANCH   7   9
ATOM      9  N   UNL     1      -4.581 -10.586  -6.261  0.00  0.00    +0.058 N 
ATOM     10  O   UNL     1      -4.134 -10.174  -7.306  0.00  0.00    -0.126 OA
ATOM     11  O   UNL     1      -5.334 -11.532  -6.257  0.00  0.00    -0.126 OA
ENDBRANCH   7   9
BRANCH   6  12
ATOM     12  S   UNL     1      -5.819 -11.787  -3.781  0.00  0.00    -0.087 S 
BRANCH  12  13
ATOM     13  C   UNL     1      -6.075 -12.126  -2.071  0.00  0.00    +0.013 A 
ATOM     14  C   UNL     1      -7.179 -11.596  -1.414  0.00  0.00    +0.016 A 
ATOM     15  C   UNL     1      -7.377 -11.863  -0.074  0.00  0.00    +0.021 A 
ATOM     16  C   UNL     1      -6.478 -12.658   0.615  0.00  0.00    +0.041 A 
ATOM     17  C   UNL     1      -5.377 -13.187  -0.036  0.00  0.00    +0.021 A 
ATOM     18  C   UNL     1      -5.177 -12.928  -1.378  0.00  0.00    +0.016 A 
ATOM     19 CL   UNL     1      -6.730 -12.991   2.300  0.00  0.00    -0.084 Cl
ENDBRANCH  12  13
ENDBRANCH   6  12
ENDBRANCH   2   3
BRANCH   1  21
ATOM     20  N   UNL     1      -0.489  -4.774  -1.462  0.00  0.00    -0.312 N 
ATOM     21  C   UNL     1      -0.833  -5.363  -2.624  0.00  0.00    +0.237 C 
ATOM     22  O   UNL     1      -0.385  -4.943  -3.675  0.00  0.00    -0.271 OA
ATOM     23  H   UNL     1      -0.845  -5.109  -0.624  0.00  0.00    +0.149 HD
BRANCH  20  24
ATOM     24  C   UNL     1       0.423  -3.627  -1.463  0.00  0.00    +0.109 C 
BRANCH  24  25
ATOM     25  C   UNL     1       0.647  -3.152  -0.026  0.00  0.00    +0.052 C 
BRANCH  25  32
ATOM     26  C   UNL     1      -0.070   1.380  -0.020  0.00  0.00    +0.001 A 
ATOM     27  C   UNL     1       1.110   2.136  -0.023  0.00  0.00    +0.002 A 
ATOM     28  C   UNL     1       2.337   1.573  -0.028  0.00  0.00    +0.026 A 
ATOM     29  C   UNL     1       2.478   0.158  -0.029  0.00  0.00    +0.043 A 
ATOM     30  N   UNL     1       3.538  -0.614  -0.034  0.00  0.00    -0.380 N 
ATOM     31  C   UNL     1       3.097  -2.014  -0.033  0.00  0.00    +0.144 C 
ATOM     32  C   UNL     1       1.586  -1.973  -0.028  0.00  0.00    -0.040 C 
ATOM     33  C   UNL     1       1.246  -0.663  -0.025  0.00  0.00    -0.001 A 
ATOM     34  C   UNL     1      -0.049   0.028  -0.020  0.00  0.00    +0.010 A 
ATOM     35  H   UNL     1       4.459  -0.311  -0.037  0.00  0.00    +0.160 HD
ENDBRANCH  25  32
ENDBRANCH  24  25
ENDBRANCH  20  24
ENDBRANCH   1  21
TORSDOF 8
