REMARK  Name = ZINC19926539
REMARK  9 active torsions:
REMARK  status: ('A' for Active; 'I' for Inactive)
REMARK    1  A    between atoms: C_1  and  S_2
REMARK    2  A    between atoms: S_2  and  N_5
REMARK    3  A    between atoms: N_5  and  C_6
REMARK    4  A    between atoms: N_5  and  C_25
REMARK    5  A    between atoms: C_6  and  C_7
REMARK    6  A    between atoms: C_10  and  C_13
REMARK    7  A    between atoms: N_15  and  N_16
REMARK    8  A    between atoms: C_17  and  C_18
REMARK    9  A    between atoms: C_23  and  O_24
REMARK                            x       y       z     vdW  Elec       q    Type
REMARK                         _______ _______ _______ _____ _____    ______ ____
ROOT
ATOM      1  C   UNL     1       2.037  -2.263  -1.642  0.00  0.00    -0.028 A 
ATOM      2  C   UNL     1       2.374  -2.789  -0.408  0.00  0.00    +0.006 A 
ATOM      3  C   UNL     1       2.535  -4.151  -0.256  0.00  0.00    +0.013 A 
ATOM      4  C   UNL     1       2.358  -4.998  -1.351  0.00  0.00    +0.038 A 
ATOM      5  C   UNL     1       2.018  -4.460  -2.594  0.00  0.00    +0.013 A 
ATOM      6  C   UNL     1       1.854  -3.097  -2.731  0.00  0.00    +0.006 A 
ENDROOT
BRANCH   4   7
ATOM      7  C   UNL     1       2.529  -6.458  -1.196  0.00  0.00    +0.263 C 
ATOM      8  O   UNL     1       2.825  -6.923  -0.112  0.00  0.00    -0.268 OA
ATOM      9  N   UNL     1       2.357  -7.273  -2.255  0.00  0.00    -0.203 N 
ATOM     10  H   UNL     1       2.121  -6.902  -3.120  0.00  0.00    +0.178 HD
BRANCH   9  11
ATOM     11  N   UNL     1       2.520  -8.657  -2.108  0.00  0.00    -0.187 NA
ATOM     12  C   UNL     1       2.354  -9.442  -3.129  0.00  0.00    +0.142 C 
BRANCH  12  13
ATOM     13  C   UNL     1       2.525 -10.897  -2.974  0.00  0.00    +0.036 A 
ATOM     14  C   UNL     1       2.353 -11.745  -4.070  0.00  0.00    +0.013 A 
ATOM     15  C   UNL     1       2.515 -13.106  -3.919  0.00  0.00    +0.001 A 
ATOM     16  C   UNL     1       2.847 -13.637  -2.683  0.00  0.00    +0.004 A 
ATOM     17  C   UNL     1       3.019 -12.808  -1.591  0.00  0.00    +0.046 A 
ATOM     18  C   UNL     1       2.867 -11.438  -1.727  0.00  0.00    +0.125 A 
BRANCH  18  19
ATOM     19  O   UNL     1       3.042 -10.623  -0.655  0.00  0.00    -0.506 OA
ATOM     20  H   UNL     1       2.236 -10.466  -0.144  0.00  0.00    +0.292 HD
ENDBRANCH  18  19
ENDBRANCH  12  13
ENDBRANCH   9  11
ENDBRANCH   4   7
BRANCH   1  21
ATOM     21  C   UNL     1       1.863  -0.774  -1.801  0.00  0.00    +0.166 C 
BRANCH  21  22
ATOM     22  N   UNL     1       0.468  -0.415  -1.533  0.00  0.00    -0.202 N 
BRANCH  22  23
ATOM     23  C   UNL     1      -0.484  -0.500  -2.553  0.00  0.00    +0.071 A 
ATOM     24  C   UNL     1      -0.637   0.549  -3.451  0.00  0.00    +0.026 A 
ATOM     25  C   UNL     1      -1.578   0.463  -4.458  0.00  0.00    +0.003 A 
ATOM     26  C   UNL     1      -2.368  -0.666  -4.574  0.00  0.00    +0.021 A 
ATOM     27  C   UNL     1      -2.219  -1.714  -3.682  0.00  0.00    +0.061 A 
ATOM     28  C   UNL     1      -1.274  -1.636  -2.675  0.00  0.00    +0.082 A 
ATOM     29 CL   UNL     1      -1.082  -2.953  -1.560  0.00  0.00    -0.080 Cl
ATOM     30 CL   UNL     1      -3.214  -3.129  -3.831  0.00  0.00    -0.082 Cl
ENDBRANCH  22  23
BRANCH  22  32
ATOM     31  C   UNL     1       0.104   1.903  -0.093  0.00  0.00    +0.218 C 
ATOM     32  S   UNL     1       0.019   0.092  -0.022  0.00  0.00    +0.043 S 
ATOM     33  O   UNL     1       1.027  -0.412   0.844  0.00  0.00    -0.155 OA
ATOM     34  O   UNL     1      -1.331  -0.329   0.116  0.00  0.00    -0.155 OA
ENDBRANCH  22  32
ENDBRANCH  21  22
ENDBRANCH   1  21
TORSDOF 8
