REMARK  Name = ZINC39426045
REMARK  7 active torsions:
REMARK  status: ('A' for Active; 'I' for Inactive)
REMARK    1  A    between atoms: C_1  and  C_2
REMARK    2  A    between atoms: C_2  and  C_32
REMARK    3  A    between atoms: C_6  and  C_21
REMARK    4  A    between atoms: C_8  and  C_19
REMARK    5  A    between atoms: C_9  and  N_18
REMARK    6  A    between atoms: C_14  and  S_16
REMARK    7  A    between atoms: S_16  and  C_17
REMARK                            x       y       z     vdW  Elec       q    Type
REMARK                         _______ _______ _______ _____ _____    ______ ____
ROOT
ATOM      1  C   UNL     1      -0.019   1.553  -0.005  0.00  0.00    +0.011 C 
ATOM      2  C   UNL     1      -0.015   0.023  -0.030  0.00  0.00    -0.023 C 
ATOM      3  C   UNL     1       0.728  -0.469  -1.274  0.00  0.00    +0.058 C 
ATOM      4  C   UNL     1       2.160   0.005  -1.229  0.00  0.00    +0.027 C 
ATOM      5  C   UNL     1       2.797   0.183  -0.052  0.00  0.00    +0.025 C 
ATOM      6  C   UNL     1       4.228   0.657  -0.010  0.00  0.00    +0.100 C 
ATOM      7  C   UNL     1       4.901   0.469  -1.337  0.00  0.00    +0.077 C 
ATOM      8  C   UNL     1       4.178   0.279  -2.471  0.00  0.00    +0.108 C 
ATOM      9  N   UNL     1       2.803   0.247  -2.415  0.00  0.00    -0.237 N 
ATOM     10  C   UNL     1       2.059   0.462  -3.573  0.00  0.00    +0.194 A 
ATOM     11  N   UNL     1       1.669   1.594  -4.136  0.00  0.00    -0.124 NA
ATOM     12  N   UNL     1       0.992   1.614  -5.199  0.00  0.00    -0.133 NA
ATOM     13  C   UNL     1       0.628   0.500  -5.819  0.00  0.00    +0.160 A 
ATOM     14  S   UNL     1       1.364  -0.715  -4.730  0.00  0.00    -0.024 S 
ATOM     15  C   UNL     1       2.145  -0.063   1.169  0.00  0.00    +0.162 C 
ATOM     16  O   UNL     1       2.753   0.090   2.210  0.00  0.00    -0.292 OA
ATOM     17  C   UNL     1       0.710  -0.510   1.210  0.00  0.00    +0.086 C 
ATOM     18  C   UNL     1      -1.455  -0.494  -0.046  0.00  0.00    +0.011 C 
ENDROOT
BRANCH   6  19
ATOM     19  C   UNL     1       4.253   2.119   0.353  0.00  0.00    +0.002 A 
ATOM     20  C   UNL     1       3.609   3.043  -0.450  0.00  0.00    +0.046 A 
ATOM     21  C   UNL     1       3.632   4.385  -0.116  0.00  0.00    +0.020 A 
ATOM     22  C   UNL     1       4.300   4.804   1.020  0.00  0.00    +0.003 A 
ATOM     23  C   UNL     1       4.944   3.881   1.823  0.00  0.00    +0.020 A 
ATOM     24  C   UNL     1       4.916   2.538   1.493  0.00  0.00    +0.046 A 
ATOM     25 CL   UNL     1       5.718   1.378   2.506  0.00  0.00    -0.083 Cl
ATOM     26 CL   UNL     1       2.771   2.518  -1.877  0.00  0.00    -0.083 Cl
ENDBRANCH   6  19
BRANCH   8  27
ATOM     27  N   UNL     1       4.820   0.119  -3.675  0.00  0.00    -0.345 N 
ATOM     28  H   UNL     1       5.782   0.229  -3.730  0.00  0.00    +0.144 HD
ATOM     29  H   UNL     1       4.311  -0.104  -4.470  0.00  0.00    +0.144 HD
ENDBRANCH   8  27
BRANCH  13  30
ATOM     30  S   UNL     1      -0.307   0.279  -7.296  0.00  0.00    -0.100 S 
ATOM     31  C   UNL     1      -0.693   1.970  -7.828  0.00  0.00    +0.092 C 
ENDBRANCH  13  30
BRANCH   7  32
ATOM     32  C   UNL     1       6.331   0.491  -1.410  0.00  0.00    +0.099 C 
ATOM     33  N   UNL     1       7.466   0.509  -1.467  0.00  0.00    -0.191 NA
ENDBRANCH   7  32
TORSDOF 4
