REMARK  Name = ZINC19299201
REMARK  9 active torsions:
REMARK  status: ('A' for Active; 'I' for Inactive)
REMARK    1  A    between atoms: C_1  and  O_2
REMARK    2  A    between atoms: O_2  and  C_3
REMARK    3  A    between atoms: C_6  and  C_9
REMARK    4  A    between atoms: C_12  and  C_15
REMARK    5  A    between atoms: C_20  and  C_22
REMARK    6  A    between atoms: C_22  and  S_23
REMARK    7  A    between atoms: S_23  and  C_24
REMARK    8  A    between atoms: N_29  and  C_30
REMARK    9  A    between atoms: C_30  and  C_31
REMARK                            x       y       z     vdW  Elec       q    Type
REMARK                         _______ _______ _______ _____ _____    ______ ____
ROOT
ATOM      1  C   UNL     1      -1.315  -2.974   1.227  0.00  0.00    +0.069 C 
ATOM      2  N   UNL     1      -1.059  -3.228  -0.010  0.00  0.00    -0.181 NA
ATOM      3  N   UNL     1      -0.973  -2.096  -0.818  0.00  0.00    -0.181 N 
ATOM      4  C   UNL     1      -1.208  -0.902   0.009  0.00  0.00    +0.173 C 
ATOM      5  C   UNL     1      -1.449  -1.476   1.420  0.00  0.00    +0.090 C 
ATOM      6  C   UNL     1      -0.715  -2.095  -2.141  0.00  0.00    +0.246 C 
ATOM      7  O   UNL     1      -0.662  -1.045  -2.747  0.00  0.00    -0.273 OA
ENDROOT
BRANCH   1  11
ATOM      8  C   UNL     1      -1.730  -5.883   4.290  0.00  0.00    +0.120 A 
ATOM      9  C   UNL     1      -1.451  -6.282   2.990  0.00  0.00    +0.046 A 
ATOM     10  C   UNL     1      -1.316  -5.342   1.992  0.00  0.00    +0.013 A 
ATOM     11  C   UNL     1      -1.459  -3.984   2.291  0.00  0.00    -0.002 A 
ATOM     12  C   UNL     1      -1.734  -3.587   3.602  0.00  0.00    +0.013 A 
ATOM     13  C   UNL     1      -1.873  -4.535   4.592  0.00  0.00    +0.046 A 
BRANCH   8  15
ATOM     14  C   UNL     1      -2.149  -6.335   6.586  0.00  0.00    +0.277 C 
ATOM     15  O   UNL     1      -1.862  -6.814   5.271  0.00  0.00    -0.495 OA
ENDBRANCH   8  15
ENDBRANCH   1  11
BRANCH   4  16
ATOM     16  C   UNL     1       0.002  -0.004   0.002  0.00  0.00    +0.128 A 
ATOM     17  C   UNL     1      -0.016   1.341   0.009  0.00  0.00    +0.046 A 
ATOM     18  C   UNL     1       1.331   1.769  -0.001  0.00  0.00    +0.041 A 
ATOM     19  C   UNL     1       2.092   0.660  -0.014  0.00  0.00    +0.195 A 
ATOM     20  O   UNL     1       1.282  -0.411  -0.012  0.00  0.00    -0.466 OA
ENDBRANCH   4  16
BRANCH   6  21
ATOM     21  C   UNL     1      -0.492  -3.396  -2.866  0.00  0.00    +0.174 C 
BRANCH  21  22
ATOM     22  S   UNL     1      -0.171  -3.064  -4.620  0.00  0.00    -0.088 S 
BRANCH  22  23
ATOM     23  C   UNL     1       0.066  -4.663  -5.321  0.00  0.00    +0.160 A 
ATOM     24  N   UNL     1       0.025  -5.846  -4.738  0.00  0.00    -0.133 NA
ATOM     25  N   UNL     1       0.240  -6.983  -5.481  0.00  0.00    -0.125 NA
ATOM     26  C   UNL     1       0.486  -6.886  -6.773  0.00  0.00    +0.183 A 
ATOM     27  S   UNL     1       0.416  -5.117  -7.013  0.00  0.00    -0.025 S 
ATOM     28  N   UNL     1       0.729  -7.891  -7.702  0.00  0.00    -0.315 N 
ATOM     29  H   UNL     1       0.918  -7.634  -8.754  0.00  0.00    +0.148 HD
BRANCH  28  30
ATOM     30  C   UNL     1       0.734  -9.294  -7.278  0.00  0.00    +0.178 C 
BRANCH  30  31
ATOM     31  C   UNL     1       1.020 -10.176  -8.466  0.00  0.00    +0.122 A 
ATOM     32  C   UNL     1       2.238 -10.571  -8.878  0.00  0.00    +0.046 A 
ATOM     33  C   UNL     1       2.042 -11.382 -10.019  0.00  0.00    +0.041 A 
ATOM     34  C   UNL     1       0.715 -11.435 -10.236  0.00  0.00    +0.195 A 
ATOM     35  O   UNL     1       0.101 -10.707  -9.289  0.00  0.00    -0.466 OA
ENDBRANCH  30  31
ENDBRANCH  28  30
ENDBRANCH  22  23
ENDBRANCH  21  22
ENDBRANCH   6  21
TORSDOF 8
