REMARK  Name = ZINC05469905
REMARK  6 active torsions:
REMARK  status: ('A' for Active; 'I' for Inactive)
REMARK    1  A    between atoms: C_1  and  C_2
REMARK    2  A    between atoms: C_2  and  C_3
REMARK    3  A    between atoms: C_3  and  C_4
REMARK    4  A    between atoms: C_11  and  N_16
REMARK    5  A    between atoms: C_12  and  C_13
REMARK    6  A    between atoms: N_19  and  C_20
REMARK                            x       y       z     vdW  Elec       q    Type
REMARK                         _______ _______ _______ _____ _____    ______ ____
ROOT
ATOM      1  C   UNL     1      -0.913  11.241  -6.100  0.00  0.00    -0.006 C 
ATOM      2  C   UNL     1      -1.211  10.456  -7.380  0.00  0.00    +0.008 C 
ATOM      3  C   UNL     1      -2.211   9.337  -7.084  0.00  0.00    +0.037 C 
ATOM      4  C   UNL     1      -1.694   8.516  -5.909  0.00  0.00    -0.023 A 
ATOM      5  C   UNL     1      -0.750   9.009  -5.078  0.00  0.00    -0.004 A 
ATOM      6  S   UNL     1      -0.479   7.726  -3.889  0.00  0.00    -0.077 S 
ATOM      7  C   UNL     1      -1.597   6.546  -4.491  0.00  0.00    +0.086 A 
ATOM      8  C   UNL     1      -2.158   7.176  -5.593  0.00  0.00    +0.068 A 
ATOM      9  C   UNL     1      -0.091  10.352  -5.155  0.00  0.00    +0.046 C 
ENDROOT
BRANCH   7  10
ATOM     10  N   UNL     1      -1.869   5.283  -3.989  0.00  0.00    -0.263 N 
ATOM     11  C   UNL     1      -1.218   4.836  -2.897  0.00  0.00    +0.304 C 
ATOM     12  O   UNL     1      -0.391   5.542  -2.352  0.00  0.00    -0.252 OA
ATOM     13  N   UNL     1      -1.482   3.608  -2.410  0.00  0.00    -0.296 N 
ATOM     14  H   UNL     1      -2.529   4.720  -4.424  0.00  0.00    +0.157 HD
ATOM     15  H   UNL     1      -2.142   3.045  -2.845  0.00  0.00    +0.151 HD
BRANCH  13  16
ATOM     16  C   UNL     1      -0.773   3.123  -1.223  0.00  0.00    +0.074 C 
ATOM     17  C   UNL     1      -0.753   1.593  -1.232  0.00  0.00    +0.022 C 
ATOM     18  C   UNL     1      -0.013   1.086   0.008  0.00  0.00    +0.002 C 
ATOM     19  C   UNL     1      -0.729   1.579   1.267  0.00  0.00    +0.000 C 
ATOM     20  C   UNL     1      -0.750   3.109   1.275  0.00  0.00    +0.002 C 
ATOM     21  C   UNL     1      -1.490   3.616   0.036  0.00  0.00    +0.022 C 
ENDBRANCH  13  16
ENDBRANCH   7  10
BRANCH   8  22
ATOM     22  C   UNL     1      -3.181   6.514  -6.408  0.00  0.00    +0.244 C 
ATOM     23  O   UNL     1      -4.359   6.645  -6.131  0.00  0.00    -0.270 OA
ATOM     24  N   UNL     1      -2.817   5.760  -7.464  0.00  0.00    -0.325 N 
ATOM     25  H   UNL     1      -1.878   5.655  -7.684  0.00  0.00    +0.145 HD
ATOM     26  H   UNL     1      -3.493   5.321  -8.003  0.00  0.00    +0.145 HD
ENDBRANCH   8  22
BRANCH   1  27
ATOM     27  C   UNL     1      -0.114  12.499  -6.444  0.00  0.00    +0.003 C 
BRANCH  27  29
ATOM     28  C   UNL     1       0.874  14.603  -5.526  0.00  0.00    +0.004 C 
ATOM     29  C   UNL     1       0.075  13.344  -5.182  0.00  0.00    -0.003 C 
ENDBRANCH  27  29
ENDBRANCH   1  27
TORSDOF 5
