REMARK  Name = ZINC44983212
REMARK  4 active torsions:
REMARK  status: ('A' for Active; 'I' for Inactive)
REMARK    1  A    between atoms: C_1  and  C_2
REMARK    2  A    between atoms: C_5  and  C_8
REMARK    3  A    between atoms: C_10  and  C_13
REMARK    4  A    between atoms: C_16  and  N_20
REMARK                            x       y       z     vdW  Elec       q    Type
REMARK                         _______ _______ _______ _____ _____    ______ ____
ROOT
ATOM      1  C   UNL     1       1.499  -4.041  -0.034  0.00  0.00    +0.175 A 
ATOM      2  N   UNL     1       2.597  -4.800  -0.043  0.00  0.00    -0.191 NA
ATOM      3  C   UNL     1       2.264  -6.072  -0.049  0.00  0.00    +0.260 A 
ATOM      4  O   UNL     1       0.921  -6.149  -0.043  0.00  0.00    -0.333 OA
ATOM      5  N   UNL     1       0.448  -4.811  -0.028  0.00  0.00    -0.061 NA
ENDROOT
BRANCH   1  10
ATOM      6  C   UNL     1      -0.019   1.526   0.010  0.00  0.00    +0.007 C 
ATOM      7  C   UNL     1       0.002  -0.004   0.002  0.00  0.00    -0.014 C 
ATOM      8  C   UNL     1       0.718  -0.497  -1.257  0.00  0.00    +0.004 C 
ATOM      9  C   UNL     1       0.739  -2.027  -1.265  0.00  0.00    +0.011 C 
ATOM     10  C   UNL     1       1.479  -2.534  -0.026  0.00  0.00    +0.060 C 
ATOM     11  C   UNL     1       0.763  -2.041   1.233  0.00  0.00    +0.011 C 
ATOM     12  C   UNL     1       0.742  -0.511   1.242  0.00  0.00    +0.004 C 
ENDBRANCH   1  10
BRANCH   3  13
ATOM     13  C   UNL     1       3.198  -7.214  -0.060  0.00  0.00    +0.058 A 
ATOM     14  C   UNL     1       4.578  -6.990  -0.059  0.00  0.00    +0.016 A 
ATOM     15  C   UNL     1       5.447  -8.057  -0.069  0.00  0.00    +0.023 A 
ATOM     16  C   UNL     1       4.954  -9.359  -0.080  0.00  0.00    +0.026 A 
ATOM     17  C   UNL     1       3.582  -9.587  -0.080  0.00  0.00    +0.043 A 
ATOM     18  C   UNL     1       2.706  -8.523  -0.064  0.00  0.00    +0.055 A 
ATOM     19 CL   UNL     1       0.993  -8.807  -0.058  0.00  0.00    -0.083 Cl
BRANCH  16  20
ATOM     20  N   UNL     1       5.837 -10.436  -0.090  0.00  0.00    -0.358 N 
ATOM     21  H   UNL     1       6.794 -10.278  -0.090  0.00  0.00    +0.142 HD
ATOM     22  H   UNL     1       5.495 -11.344  -0.097  0.00  0.00    +0.142 HD
ENDBRANCH  16  20
ENDBRANCH   3  13
TORSDOF 3
