REMARK  Name = ZINC14187472
REMARK  4 active torsions:
REMARK  status: ('A' for Active; 'I' for Inactive)
REMARK    1  A    between atoms: C_1  and  C_2
REMARK    2  A    between atoms: C_2  and  C_22
REMARK    3  A    between atoms: N_5  and  C_9
REMARK    4  A    between atoms: C_9  and  N_10
REMARK                            x       y       z     vdW  Elec       q    Type
REMARK                         _______ _______ _______ _____ _____    ______ ____
ROOT
ATOM      1  C   UNL     1      -3.788   5.600  -0.826  0.00  0.00    +0.047 C 
ATOM      2  C   UNL     1      -2.584   5.064  -0.048  0.00  0.00    +0.135 C 
ATOM      3  C   UNL     1      -2.490   3.558  -0.192  0.00  0.00    +0.252 C 
ATOM      4  O   UNL     1      -3.309   2.736   0.158  0.00  0.00    -0.272 OA
ATOM      5  N   UNL     1      -1.304   3.323  -0.787  0.00  0.00    -0.210 N 
ATOM      6  C   UNL     1      -0.646   4.459  -1.044  0.00  0.00    +0.311 C 
ATOM      7  O   UNL     1       0.443   4.503  -1.581  0.00  0.00    -0.252 OA
ATOM      8  N   UNL     1      -1.326   5.548  -0.641  0.00  0.00    -0.281 N 
ATOM      9  H   UNL     1      -1.115   6.627  -0.680  0.00  0.00    +0.152 HD
ENDROOT
BRANCH   2  10
ATOM     10  C   UNL     1      -2.671   5.458   1.404  0.00  0.00    -0.015 A 
ATOM     11  C   UNL     1      -3.344   4.649   2.300  0.00  0.00    +0.007 A 
ATOM     12  C   UNL     1      -3.421   5.007   3.633  0.00  0.00    +0.015 A 
ATOM     13  C   UNL     1      -2.832   6.181   4.068  0.00  0.00    +0.018 A 
ATOM     14  C   UNL     1      -2.163   6.993   3.170  0.00  0.00    +0.015 A 
ATOM     15  C   UNL     1      -2.083   6.631   1.839  0.00  0.00    +0.007 A 
ATOM     16 BR   UNL     1      -2.942   6.675   5.890  0.00  0.00    -0.050 Br
ENDBRANCH   2  10
BRANCH   5  17
ATOM     17  C   UNL     1      -0.800   1.987  -1.118  0.00  0.00    +0.205 C 
BRANCH  17  18
ATOM     18  N   UNL     1      -0.018   1.465   0.010  0.00  0.00    -0.283 NA
ATOM     19  C   UNL     1       1.348   2.008   0.000  0.00  0.00    +0.105 C 
ATOM     20  C   UNL     1       2.103   1.504   1.232  0.00  0.00    +0.122 C 
ATOM     21  N   UNL     1       2.123   0.034   1.224  0.00  0.00    -0.314 N 
ATOM     22  C   UNL     1       0.757  -0.508   1.234  0.00  0.00    +0.122 C 
ATOM     23  C   UNL     1       0.002  -0.004   0.002  0.00  0.00    +0.105 C 
ATOM     24  C   UNL     1       2.863  -0.460   2.292  0.00  0.00    +0.099 A 
ATOM     25  C   UNL     1       4.186  -0.062   2.456  0.00  0.00    +0.042 A 
ATOM     26  C   UNL     1       4.911  -0.561   3.523  0.00  0.00    +0.005 A 
ATOM     27  C   UNL     1       4.286  -1.445   4.393  0.00  0.00    +0.018 A 
ATOM     28  C   UNL     1       2.970  -1.797   4.170  0.00  0.00    +0.084 A 
ATOM     29  N   UNL     1       2.301  -1.300   3.146  0.00  0.00    -0.350 N 
ATOM     30  H   UNL     1       1.252  -1.601   3.012  0.00  0.00    +0.166 HD
ENDBRANCH  17  18
ENDBRANCH   5  17
TORSDOF 3
