REMARK  Name = ZINC35465390
REMARK  8 active torsions:
REMARK  status: ('A' for Active; 'I' for Inactive)
REMARK    1  A    between atoms: C_1  and  C_2
REMARK    2  A    between atoms: C_4  and  C_21
REMARK    3  A    between atoms: C_5  and  C_18
REMARK    4  A    between atoms: C_5  and  O_20
REMARK    5  A    between atoms: C_6  and  O_17
REMARK    6  A    between atoms: C_13  and  C_15
REMARK    7  A    between atoms: C_13  and  C_16
REMARK    8  A    between atoms: C_18  and  O_19
REMARK                            x       y       z     vdW  Elec       q    Type
REMARK                         _______ _______ _______ _____ _____    ______ ____
ROOT
ATOM      1  C   UNL     1      -0.019   1.526   0.010  0.00  0.00    +0.012 C 
ATOM      2  C   UNL     1       0.002  -0.004   0.002  0.00  0.00    -0.009 C 
ATOM      3  C   UNL     1       1.377  -0.660  -0.195  0.00  0.00    +0.030 C 
ATOM      4  C   UNL     1       0.704  -0.677   1.172  0.00  0.00    +0.111 C 
ATOM      5  C   UNL     1       0.133  -1.973   1.717  0.00  0.00    +0.131 C 
ATOM      6  C   UNL     1      -0.672  -2.720   0.681  0.00  0.00    +0.153 C 
ATOM      7  C   UNL     1      -1.737  -1.882   0.001  0.00  0.00    +0.025 C 
ATOM      8  C   UNL     1      -1.167  -0.649  -0.695  0.00  0.00    +0.002 C 
ATOM      9  C   UNL     1      -0.811  -1.119  -2.122  0.00  0.00    +0.011 C 
ATOM     10  C   UNL     1      -2.018  -2.032  -2.464  0.00  0.00    -0.034 C 
ATOM     11  C   UNL     1      -2.361  -2.738  -1.130  0.00  0.00    +0.012 C 
ATOM     12  C   UNL     1      -1.631  -3.048  -3.540  0.00  0.00    +0.011 C 
ATOM     13  C   UNL     1      -3.211  -1.192  -2.925  0.00  0.00    +0.011 C 
ENDROOT
BRANCH   4  14
ATOM     14  C   UNL     1       1.288   0.239   2.216  0.00  0.00    +0.365 C 
ATOM     15  O   UNL     1       1.363  -0.129   3.376  0.00  0.00    -0.246 OA
ATOM     16  O   UNL     1       1.684   1.348   1.901  0.00  0.00    -0.246 OA
ENDBRANCH   4  14
BRANCH   6  17
ATOM     17  O   UNL     1       0.221  -3.215  -0.319  0.00  0.00    -0.389 OA
ATOM     18  H   UNL     1       0.895  -3.819   0.020  0.00  0.00    +0.210 HD
ENDBRANCH   6  17
BRANCH   5  19
ATOM     19  O   UNL     1      -0.709  -1.676   2.833  0.00  0.00    -0.383 OA
ATOM     20  H   UNL     1      -1.113  -2.455   3.240  0.00  0.00    +0.210 HD
ENDBRANCH   5  19
BRANCH   5  21
ATOM     21  C   UNL     1       1.284  -2.864   2.189  0.00  0.00    +0.194 C 
BRANCH  21  22
ATOM     22  O   UNL     1       0.769  -4.132   2.597  0.00  0.00    -0.392 OA
ATOM     23  H   UNL     1       1.444  -4.750   2.909  0.00  0.00    +0.210 HD
ENDBRANCH  21  22
ENDBRANCH   5  21
TORSDOF 5
