REMARK  Name = ZINC31899731
REMARK  9 active torsions:
REMARK  status: ('A' for Active; 'I' for Inactive)
REMARK    1  A    between atoms: C_1  and  C_2
REMARK    2  A    between atoms: C_5  and  N_9
REMARK    3  A    between atoms: C_6  and  C_8
REMARK    4  A    between atoms: N_9  and  C_10
REMARK    5  A    between atoms: C_10  and  C_11
REMARK    6  A    between atoms: C_11  and  C_12
REMARK    7  A    between atoms: C_12  and  C_13
REMARK    8  A    between atoms: C_16  and  N_20
REMARK    9  A    between atoms: C_17  and  N_19
REMARK                            x       y       z     vdW  Elec       q    Type
REMARK                         _______ _______ _______ _____ _____    ______ ____
ROOT
ATOM      1  C   UNL     1       1.169   3.150  -0.043  0.00  0.00    -0.045 A 
ATOM      2  C   UNL     1       1.164   1.789   0.201  0.00  0.00    +0.005 A 
ATOM      3  C   UNL     1      -0.032   1.097   0.261  0.00  0.00    +0.025 A 
ATOM      4  C   UNL     1      -1.230   1.768   0.069  0.00  0.00    +0.051 A 
ATOM      5  C   UNL     1      -1.226   3.142  -0.171  0.00  0.00    +0.046 A 
ATOM      6  C   UNL     1      -0.021   3.827  -0.229  0.00  0.00    +0.028 A 
ENDROOT
BRANCH   4   7
ATOM      7  N   UNL     1      -2.442   1.069   0.123  0.00  0.00    -0.328 N 
ATOM      8  C   UNL     1      -2.211  -0.381   0.348  0.00  0.00    +0.105 C 
ATOM      9  C   UNL     1      -3.574  -0.877   0.894  0.00  0.00    +0.020 C 
ATOM     10  C   UNL     1      -4.038   0.300   1.783  0.00  0.00    +0.020 C 
ATOM     11  C   UNL     1      -3.268   1.527   1.261  0.00  0.00    +0.105 C 
ENDBRANCH   4   7
BRANCH   5  12
ATOM     12  N   UNL     1      -2.433   3.826  -0.358  0.00  0.00    -0.357 N 
ATOM     13  H   UNL     1      -2.427   4.910  -0.548  0.00  0.00    +0.142 HD
ATOM     14  H   UNL     1      -3.387   3.280  -0.316  0.00  0.00    +0.142 HD
ENDBRANCH   5  12
BRANCH   1  15
ATOM     15  C   UNL     1       2.477   3.896  -0.107  0.00  0.00    +0.037 C 
BRANCH  15  16
ATOM     16  C   UNL     1       2.996   3.894  -1.546  0.00  0.00    +0.023 C 
BRANCH  16  17
ATOM     17  C   UNL     1       4.323   4.653  -1.611  0.00  0.00    +0.102 C 
BRANCH  17  18
ATOM     18  N   UNL     1       4.820   4.651  -2.989  0.00  0.00    -0.344 N 
ATOM     19  H   UNL     1       4.244   4.149  -3.781  0.00  0.00    +0.146 HD
BRANCH  18  24
ATOM     20  C   UNL     1       9.713   7.228  -4.242  0.00  0.00    +0.044 C 
ATOM     21  C   UNL     1       8.412   6.544  -3.909  0.00  0.00    -0.050 A 
ATOM     22  C   UNL     1       7.944   6.548  -2.608  0.00  0.00    +0.005 A 
ATOM     23  C   UNL     1       6.753   5.921  -2.299  0.00  0.00    +0.023 A 
ATOM     24  C   UNL     1       6.025   5.286  -3.298  0.00  0.00    +0.030 A 
ATOM     25  C   UNL     1       6.500   5.280  -4.603  0.00  0.00    -0.029 A 
ATOM     26  C   UNL     1       7.690   5.914  -4.905  0.00  0.00    +0.008 A 
ATOM     27  C   UNL     1       5.716   4.588  -5.688  0.00  0.00    +0.045 C 
ENDBRANCH  18  24
ENDBRANCH  17  18
ENDBRANCH  16  17
ENDBRANCH  15  16
ENDBRANCH   1  15
TORSDOF 7
