REMARK  Name = ZINC40003721
REMARK  16 active torsions:
REMARK  status: ('A' for Active; 'I' for Inactive)
REMARK    1  A    between atoms: C_1  and  C_2
REMARK    2  A    between atoms: C_2  and  C_3
REMARK    3  A    between atoms: C_3  and  C_4
REMARK    4  A    between atoms: C_4  and  C_5
REMARK    5  A    between atoms: C_5  and  O_6
REMARK    6  A    between atoms: O_6  and  C_7
REMARK    7  A    between atoms: C_11  and  C_13
REMARK    8  A    between atoms: C_15  and  C_26
REMARK    9  A    between atoms: N_19  and  C_20
REMARK   10  A    between atoms: C_20  and  C_21
REMARK   11  A    between atoms: C_21  and  N_22
REMARK   12  A    between atoms: N_22  and  C_23
REMARK   13  A    between atoms: N_22  and  C_24
REMARK   14  A    between atoms: C_26  and  C_28
REMARK   15  A    between atoms: C_29  and  C_38
REMARK   16  A    between atoms: C_36  and  C_37
REMARK                            x       y       z     vdW  Elec       q    Type
REMARK                         _______ _______ _______ _____ _____    ______ ____
ROOT
ATOM      1  C   UNL     1      -5.527  -8.478   0.013  0.00  0.00    +0.145 C 
ATOM      2  C   UNL     1      -5.957  -8.716  -1.416  0.00  0.00    +0.078 C 
ATOM      3  C   UNL     1      -7.223  -9.189  -1.370  0.00  0.00    +0.249 C 
ATOM      4  C   UNL     1      -7.658  -9.277   0.037  0.00  0.00    +0.288 C 
ATOM      5  O   UNL     1      -8.748  -9.667   0.407  0.00  0.00    -0.266 OA
ATOM      6  N   UNL     1      -6.668  -8.863   0.852  0.00  0.00    -0.285 N 
ATOM      7  O   UNL     1      -7.974  -9.528  -2.445  0.00  0.00    -0.282 OA
ENDROOT
BRANCH   1  12
ATOM      8  C   UNL     1      -3.590  -5.295   0.636  0.00  0.00    +0.121 A 
ATOM      9  C   UNL     1      -4.602  -4.346   0.600  0.00  0.00    +0.045 A 
ATOM     10  C   UNL     1      -5.907  -4.738   0.374  0.00  0.00    +0.004 A 
ATOM     11  C   UNL     1      -6.205  -6.075   0.184  0.00  0.00    +0.006 A 
ATOM     12  C   UNL     1      -5.199  -7.022   0.220  0.00  0.00    -0.019 A 
ATOM     13  C   UNL     1      -3.891  -6.635   0.440  0.00  0.00    +0.051 A 
BRANCH   8  14
ATOM     14  O   UNL     1      -2.305  -4.911   0.858  0.00  0.00    -0.492 OA
BRANCH  14  15
ATOM     15  C   UNL     1      -2.069  -3.515   1.051  0.00  0.00    +0.229 C 
BRANCH  15  16
ATOM     16  C   UNL     1      -0.575  -3.279   1.285  0.00  0.00    +0.041 C 
BRANCH  16  17
ATOM     17  C   UNL     1      -0.322  -1.784   1.492  0.00  0.00    +0.003 C 
BRANCH  17  19
ATOM     18  C   UNL     1       1.424  -0.052   1.933  0.00  0.00    +0.004 C 
ATOM     19  C   UNL     1       1.171  -1.547   1.726  0.00  0.00    -0.003 C 
ENDBRANCH  17  19
ENDBRANCH  16  17
ENDBRANCH  15  16
ENDBRANCH  14  15
ENDBRANCH   8  14
ENDBRANCH   1  12
BRANCH   2  20
ATOM     20  C   UNL     1      -5.154  -8.480  -2.623  0.00  0.00    +0.213 C 
ATOM     21  O   UNL     1      -5.034  -7.349  -3.064  0.00  0.00    -0.285 OA
BRANCH  20  22
ATOM     22  C   UNL     1      -4.519  -9.566  -3.275  0.00  0.00    +0.116 A 
ATOM     23  C   UNL     1      -4.540 -10.899  -2.884  0.00  0.00    +0.068 A 
ATOM     24  N   UNL     1      -3.829 -11.595  -3.754  0.00  0.00    -0.232 NA
ATOM     25  C   UNL     1      -3.344 -10.783  -4.695  0.00  0.00    +0.141 A 
ATOM     26  N   UNL     1      -3.760  -9.509  -4.430  0.00  0.00    -0.296 N 
ATOM     27  C   UNL     1      -3.407  -8.481  -5.245  0.00  0.00    +0.093 A 
ATOM     28  C   UNL     1      -2.639  -8.699  -6.338  0.00  0.00    +0.018 A 
ATOM     29  C   UNL     1      -2.199  -9.994  -6.640  0.00  0.00    +0.008 A 
ATOM     30  C   UNL     1      -2.542 -11.031  -5.822  0.00  0.00    -0.008 A 
ATOM     31  C   UNL     1      -2.079 -12.431  -6.133  0.00  0.00    +0.047 C 
ATOM     32  C   UNL     1      -5.249 -11.455  -1.677  0.00  0.00    +0.068 C 
ENDBRANCH  20  22
ENDBRANCH   2  20
BRANCH   6  33
ATOM     33  C   UNL     1      -6.721  -8.805   2.315  0.00  0.00    +0.090 C 
BRANCH  33  34
ATOM     34  C   UNL     1      -7.246  -7.437   2.753  0.00  0.00    -0.060 C 
BRANCH  34  35
ATOM     35  N   UNL     1      -7.298  -7.379   4.220  0.00  0.00    +0.377 N 
ATOM     36  C   UNL     1      -7.687  -6.027   4.644  0.00  0.00    -0.097 C 
ATOM     37  C   UNL     1      -8.285  -8.350   4.713  0.00  0.00    -0.097 C 
ATOM     38  H   UNL     1      -6.390  -7.602   4.598  0.00  0.00    -0.083 HD
ENDBRANCH  34  35
ENDBRANCH  33  34
ENDBRANCH   6  33
TORSDOF 11
