REMARK  Name = ZINC39550127
REMARK  13 active torsions:
REMARK  status: ('A' for Active; 'I' for Inactive)
REMARK    1  A    between atoms: C_1  and  C_2
REMARK    2  A    between atoms: C_4  and  C_38
REMARK    3  A    between atoms: C_5  and  C_9
REMARK    4  A    between atoms: C_7  and  C_8
REMARK    5  A    between atoms: C_11  and  N_20
REMARK    6  A    between atoms: N_12  and  C_14
REMARK    7  A    between atoms: C_21  and  C_23
REMARK    8  A    between atoms: C_23  and  S_24
REMARK    9  A    between atoms: S_24  and  C_25
REMARK   10  A    between atoms: N_33  and  C_34
REMARK   11  A    between atoms: C_34  and  C_35
REMARK   12  A    between atoms: C_35  and  O_36
REMARK   13  A    between atoms: O_36  and  C_37
REMARK                            x       y       z     vdW  Elec       q    Type
REMARK                         _______ _______ _______ _____ _____    ______ ____
ROOT
ATOM      1  C   UNL     1       0.061  -4.256  -0.021  0.00  0.00    +0.095 A 
ATOM      2  C   UNL     1       0.072  -5.088   1.114  0.00  0.00    +0.074 A 
ATOM      3  C   UNL     1       0.089  -6.377   0.685  0.00  0.00    +0.129 A 
ATOM      4  N   UNL     1       0.089  -6.359  -0.676  0.00  0.00    -0.218 N 
ATOM      5  N   UNL     1       0.065  -5.022  -1.092  0.00  0.00    -0.165 NA
ENDROOT
BRANCH   1  10
ATOM      6  C   UNL     1      -0.018   1.503   0.010  0.00  0.00    +0.044 C 
ATOM      7  C   UNL     1       0.002  -0.004   0.002  0.00  0.00    -0.047 A 
ATOM      8  C   UNL     1       0.006  -0.687  -1.201  0.00  0.00    +0.007 A 
ATOM      9  C   UNL     1       0.025  -2.066  -1.215  0.00  0.00    -0.041 A 
ATOM     10  C   UNL     1       0.041  -2.772  -0.013  0.00  0.00    +0.005 A 
ATOM     11  C   UNL     1       0.037  -2.080   1.196  0.00  0.00    +0.014 A 
ATOM     12  C   UNL     1       0.023  -0.699   1.197  0.00  0.00    -0.047 A 
ATOM     13  C   UNL     1       0.025   0.051   2.504  0.00  0.00    +0.044 C 
ATOM     14  C   UNL     1       0.028  -2.808  -2.526  0.00  0.00    +0.044 C 
ENDBRANCH   1  10
BRANCH   4  15
ATOM     15  C   UNL     1       0.104  -7.482  -1.514  0.00  0.00    +0.067 A 
ATOM     16  C   UNL     1       0.804  -8.621  -1.139  0.00  0.00    +0.028 A 
ATOM     17  C   UNL     1       0.817  -9.726  -1.967  0.00  0.00    +0.002 A 
ATOM     18  C   UNL     1       0.134  -9.700  -3.169  0.00  0.00    +0.000 A 
ATOM     19  C   UNL     1      -0.564  -8.567  -3.546  0.00  0.00    +0.002 A 
ATOM     20  C   UNL     1      -0.586  -7.460  -2.719  0.00  0.00    +0.028 A 
ENDBRANCH   4  15
BRANCH   3  21
ATOM     21  N   UNL     1       0.105  -7.513   1.494  0.00  0.00    -0.270 N 
ATOM     22  C   UNL     1       0.103  -7.385   2.836  0.00  0.00    +0.229 C 
ATOM     23  O   UNL     1       0.087  -6.282   3.340  0.00  0.00    -0.275 OA
ATOM     24  H   UNL     1       0.117  -8.395   1.091  0.00  0.00    +0.156 HD
BRANCH  22  25
ATOM     25  C   UNL     1       0.120  -8.613   3.709  0.00  0.00    +0.173 C 
BRANCH  25  26
ATOM     26  S   UNL     1       0.112  -8.114   5.453  0.00  0.00    -0.078 S 
BRANCH  26  27
ATOM     27  C   UNL     1       0.133  -9.641   6.333  0.00  0.00    +0.170 A 
ATOM     28  N   UNL     1       0.155 -10.829   5.780  0.00  0.00    -0.222 NA
ATOM     29  C   UNL     1       0.167 -11.782   6.748  0.00  0.00    +0.090 A 
ATOM     30  C   UNL     1       0.191 -13.179   6.719  0.00  0.00    +0.030 A 
ATOM     31  C   UNL     1       0.198 -13.888   7.899  0.00  0.00    +0.002 A 
ATOM     32  C   UNL     1       0.181 -13.226   9.118  0.00  0.00    +0.002 A 
ATOM     33  C   UNL     1       0.157 -11.847   9.164  0.00  0.00    +0.028 A 
ATOM     34  C   UNL     1       0.151 -11.117   7.985  0.00  0.00    +0.070 A 
ATOM     35  N   UNL     1       0.135  -9.762   7.694  0.00  0.00    -0.316 N 
BRANCH  35  36
ATOM     36  C   UNL     1       0.118  -8.665   8.665  0.00  0.00    +0.152 C 
BRANCH  36  37
ATOM     37  C   UNL     1      -1.330  -8.305   9.003  0.00  0.00    +0.181 C 
BRANCH  37  38
ATOM     38  O   UNL     1      -1.345  -7.235   9.950  0.00  0.00    -0.381 OA
ATOM     39  C   UNL     1      -2.657  -6.819  10.335  0.00  0.00    +0.194 C 
ENDBRANCH  37  38
ENDBRANCH  36  37
ENDBRANCH  35  36
ENDBRANCH  26  27
ENDBRANCH  25  26
ENDBRANCH  22  25
ENDBRANCH   3  21
TORSDOF 9
