REMARK  Name = ZINC12279713
REMARK  8 active torsions:
REMARK  status: ('A' for Active; 'I' for Inactive)
REMARK    1  A    between atoms: C_4  and  C_7
REMARK    2  A    between atoms: C_8  and  C_9
REMARK    3  A    between atoms: C_9  and  N_66
REMARK    4  A    between atoms: C_12  and  C_15
REMARK    5  A    between atoms: C_12  and  O_34
REMARK    6  A    between atoms: C_22  and  C_24
REMARK    7  A    between atoms: N_26  and  C_27
REMARK    8  A    between atoms: C_27  and  C_28
REMARK                            x       y       z     vdW  Elec       q    Type
REMARK                         _______ _______ _______ _____ _____    ______ ____
ROOT
ATOM      1  C   UNL     1     -14.864   2.166   1.622  0.00  0.00    -0.075 C 
ATOM      2  C   UNL     1     -13.347   2.047   1.465  0.00  0.00    +0.021 C 
ATOM      3  C   UNL     1     -13.021   1.582   0.043  0.00  0.00    +0.088 C 
ATOM      4  C   UNL     1     -13.616   2.575  -0.959  0.00  0.00    +0.021 C 
ATOM      5  C   UNL     1     -15.126   2.678  -0.732  0.00  0.00    -0.075 C 
ATOM      6  N   UNL     1     -15.372   3.154   0.646  0.00  0.00    +0.383 N 
ATOM      7  H   UNL     1     -14.878   4.043   0.785  0.00  0.00    -0.081 HD
ENDROOT
BRANCH   3   8
ATOM      8  C   UNL     1     -11.525   1.521  -0.136  0.00  0.00    -0.015 A 
ATOM      9  C   UNL     1     -10.709   2.386   0.579  0.00  0.00    +0.010 A 
ATOM     10  C   UNL     1      -9.340   2.347   0.430  0.00  0.00    +0.047 A 
ATOM     11  C   UNL     1      -8.764   1.433  -0.445  0.00  0.00    +0.136 A 
ATOM     12  C   UNL     1      -9.597   0.558  -1.167  0.00  0.00    +0.021 A 
ATOM     13  C   UNL     1     -10.983   0.614  -1.002  0.00  0.00    +0.018 A 
ATOM     14  C   UNL     1      -8.699  -0.261  -1.982  0.00  0.00    +0.063 A 
ATOM     15  C   UNL     1      -7.441   0.167  -1.700  0.00  0.00    +0.190 A 
ATOM     16  O   UNL     1      -7.491   1.161  -0.789  0.00  0.00    -0.450 OA
BRANCH  15  17
ATOM     17  C   UNL     1      -6.211  -0.377  -2.293  0.00  0.00    +0.279 C 
ATOM     18  O   UNL     1      -6.274  -1.280  -3.105  0.00  0.00    -0.267 OA
ATOM     19  N   UNL     1      -5.012   0.127  -1.937  0.00  0.00    -0.306 N 
ATOM     20  H   UNL     1      -4.961   0.847  -1.290  0.00  0.00    +0.149 HD
BRANCH  19  21
ATOM     21  C   UNL     1      -3.786  -0.415  -2.528  0.00  0.00    +0.136 C 
BRANCH  21  22
ATOM     22  C   UNL     1      -2.575   0.327  -1.959  0.00  0.00    +0.135 C 
ATOM     23  C   UNL     1      -1.290  -0.148  -2.665  0.00  0.00    +0.035 C 
ATOM     24  C   UNL     1      -0.404  -0.691  -1.517  0.00  0.00    +0.031 C 
ATOM     25  C   UNL     1      -1.014   0.010  -0.276  0.00  0.00    +0.160 C 
ATOM     26  O   UNL     1      -2.430   0.025  -0.561  0.00  0.00    -0.375 OA
ENDBRANCH  21  22
ENDBRANCH  19  21
ENDBRANCH  15  17
ENDBRANCH   3   8
BRANCH   3  27
ATOM     27  O   UNL     1     -13.581   0.286  -0.176  0.00  0.00    -0.384 OA
ATOM     28  H   UNL     1     -13.415  -0.070  -1.060  0.00  0.00    +0.211 HD
ENDBRANCH   3  27
BRANCH   6  29
ATOM     29  C   UNL     1     -16.818   3.371   0.855  0.00  0.00    -0.030 C 
BRANCH  29  31
ATOM     30  C   UNL     1     -18.136   4.340  -0.978  0.00  0.00    +0.021 C 
ATOM     31  C   UNL     1     -17.262   4.532   0.002  0.00  0.00    +0.003 C 
ATOM     32 CL   UNL     1     -16.630   6.121   0.303  0.00  0.00    -0.090 Cl
BRANCH  30  36
ATOM     33  C   UNL     1     -19.740   7.667  -3.075  0.00  0.00    +0.000 A 
ATOM     34  C   UNL     1     -19.536   6.468  -3.736  0.00  0.00    +0.001 A 
ATOM     35  C   UNL     1     -19.016   5.384  -3.061  0.00  0.00    +0.008 A 
ATOM     36  C   UNL     1     -18.694   5.497  -1.708  0.00  0.00    -0.024 A 
ATOM     37  C   UNL     1     -18.907   6.707  -1.045  0.00  0.00    +0.008 A 
ATOM     38  C   UNL     1     -19.423   7.786  -1.734  0.00  0.00    +0.001 A 
ENDBRANCH  30  36
ENDBRANCH  29  31
ENDBRANCH   6  29
TORSDOF 8
