REMARK  Name = ZINC22344527
REMARK  17 active torsions:
REMARK  status: ('A' for Active; 'I' for Inactive)
REMARK    1  A    between atoms: C_1  and  C_2
REMARK    2  A    between atoms: C_5  and  O_8
REMARK    3  A    between atoms: O_8  and  C_9
REMARK    4  A    between atoms: C_9  and  C_10
REMARK    5  A    between atoms: C_10  and  C_12
REMARK    6  A    between atoms: C_10  and  N_13
REMARK    7  A    between atoms: C_14  and  C_16
REMARK    8  A    between atoms: C_16  and  N_17
REMARK    9  A    between atoms: N_17  and  C_18
REMARK   10  A    between atoms: N_17  and  S_26
REMARK   11  A    between atoms: C_20  and  C_25
REMARK   12  A    between atoms: C_22  and  C_24
REMARK   13  A    between atoms: S_26  and  C_29
REMARK   14  A    between atoms: C_32  and  O_37
REMARK   15  A    between atoms: C_33  and  O_35
REMARK   16  A    between atoms: O_35  and  C_36
REMARK   17  A    between atoms: O_37  and  C_38
REMARK                            x       y       z     vdW  Elec       q    Type
REMARK                         _______ _______ _______ _____ _____    ______ ____
ROOT
ATOM      1  N   UNL     1      -4.481   0.170   4.022  0.00  0.00    -0.194 N 
ENDROOT
BRANCH   1   2
ATOM      2  C   UNL     1      -4.061  -0.865   4.862  0.00  0.00    +0.052 A 
ATOM      3  C   UNL     1      -4.853  -1.257   5.934  0.00  0.00    +0.028 A 
ATOM      4  C   UNL     1      -4.436  -2.283   6.759  0.00  0.00    -0.048 A 
ATOM      5  C   UNL     1      -3.227  -2.912   6.525  0.00  0.00    +0.006 A 
ATOM      6  C   UNL     1      -2.434  -2.521   5.462  0.00  0.00    -0.048 A 
ATOM      7  C   UNL     1      -2.847  -1.499   4.630  0.00  0.00    +0.028 A 
ATOM      8  C   UNL     1      -1.118  -3.211   5.211  0.00  0.00    +0.044 C 
ATOM      9  C   UNL     1      -5.297  -2.712   7.918  0.00  0.00    +0.044 C 
ENDBRANCH   1   2
BRANCH   1  10
ATOM     10  S   UNL     1      -4.809   1.666   4.652  0.00  0.00    +0.075 S 
ATOM     11  O   UNL     1      -4.199   1.709   5.934  0.00  0.00    -0.150 OA
ATOM     12  O   UNL     1      -4.509   2.610   3.633  0.00  0.00    -0.150 OA
BRANCH  10  13
ATOM     13  C   UNL     1      -6.548   1.749   4.919  0.00  0.00    +0.112 A 
ATOM     14  C   UNL     1      -7.386   2.139   3.890  0.00  0.00    +0.032 A 
ATOM     15  C   UNL     1      -8.752   2.200   4.093  0.00  0.00    +0.051 A 
ATOM     16  C   UNL     1      -9.284   1.882   5.333  0.00  0.00    +0.162 A 
ATOM     17  C   UNL     1      -8.440   1.495   6.370  0.00  0.00    +0.163 A 
ATOM     18  C   UNL     1      -7.072   1.430   6.158  0.00  0.00    +0.078 A 
BRANCH  17  19
ATOM     19  O   UNL     1      -8.957   1.181   7.588  0.00  0.00    -0.491 OA
ATOM     20  C   UNL     1      -8.031   0.792   8.604  0.00  0.00    +0.277 C 
ENDBRANCH  17  19
BRANCH  16  21
ATOM     21  O   UNL     1     -10.627   1.948   5.536  0.00  0.00    -0.491 OA
ATOM     22  C   UNL     1     -11.431   2.353   4.426  0.00  0.00    +0.277 C 
ENDBRANCH  16  21
ENDBRANCH  10  13
ENDBRANCH   1  10
BRANCH   1  23
ATOM     23  C   UNL     1      -4.633  -0.069   2.585  0.00  0.00    +0.227 C 
BRANCH  23  25
ATOM     24  N   UNL     1      -3.199  -0.058   0.569  0.00  0.00    -0.308 N 
ATOM     25  C   UNL     1      -3.301   0.113   1.902  0.00  0.00    +0.232 C 
ATOM     26  O   UNL     1      -2.322   0.412   2.553  0.00  0.00    -0.274 OA
ATOM     27  H   UNL     1      -4.086  -0.330  -0.020  0.00  0.00    +0.149 HD
BRANCH  24  28
ATOM     28  C   UNL     1      -1.904   0.119  -0.094  0.00  0.00    +0.107 C 
ATOM     29  C   UNL     1      -1.694   1.600  -0.415  0.00  0.00    +0.031 C 
BRANCH  28  30
ATOM     30  C   UNL     1      -1.881  -0.692  -1.391  0.00  0.00    +0.251 C 
BRANCH  30  31
ATOM     31  O   UNL     1      -2.848  -0.164  -2.301  0.00  0.00    -0.490 OA
BRANCH  31  36
ATOM     32  C   UNL     1      -3.296  -2.696  -7.312  0.00  0.00    +0.044 C 
ATOM     33  C   UNL     1      -3.176  -2.018  -5.971  0.00  0.00    -0.050 A 
ATOM     34  C   UNL     1      -3.982  -0.936  -5.670  0.00  0.00    +0.007 A 
ATOM     35  C   UNL     1      -3.874  -0.313  -4.442  0.00  0.00    +0.046 A 
ATOM     36  C   UNL     1      -2.956  -0.775  -3.510  0.00  0.00    +0.121 A 
ATOM     37  C   UNL     1      -2.144  -1.857  -3.817  0.00  0.00    +0.046 A 
ATOM     38  C   UNL     1      -2.261  -2.481  -5.044  0.00  0.00    +0.007 A 
ENDBRANCH  31  36
ENDBRANCH  30  31
ENDBRANCH  28  30
ENDBRANCH  24  28
ENDBRANCH  23  25
ENDBRANCH   1  23
TORSDOF 11
