REMARK  Name = ZINC16115874
REMARK  13 active torsions:
REMARK  status: ('A' for Active; 'I' for Inactive)
REMARK    1  A    between atoms: C_1  and  C_2
REMARK    2  A    between atoms: C_2  and  O_3
REMARK    3  A    between atoms: O_3  and  C_4
REMARK    4  A    between atoms: C_4  and  C_6
REMARK    5  A    between atoms: C_8  and  C_31
REMARK    6  A    between atoms: C_15  and  C_26
REMARK    7  A    between atoms: C_17  and  C_21
REMARK    8  A    between atoms: C_18  and  C_20
REMARK    9  A    between atoms: C_21  and  O_23
REMARK   10  A    between atoms: O_23  and  C_24
REMARK   11  A    between atoms: C_24  and  C_25
REMARK   12  A    between atoms: C_35  and  O_37
REMARK   13  A    between atoms: O_37  and  C_38
REMARK                            x       y       z     vdW  Elec       q    Type
REMARK                         _______ _______ _______ _____ _____    ______ ____
ROOT
ATOM      1  C   UNL     1       4.445   2.239   1.586  0.00  0.00    +0.176 C 
ATOM      2  C   UNL     1       3.442   2.748   0.545  0.00  0.00    +0.046 C 
ATOM      3  C   UNL     1       3.950   2.366  -0.847  0.00  0.00    +0.060 C 
ATOM      4  C   UNL     1       5.319   2.961  -1.067  0.00  0.00    +0.016 C 
ATOM      5  C   UNL     1       6.170   3.148  -0.036  0.00  0.00    +0.025 C 
ATOM      6  C   UNL     1       5.803   2.810   1.278  0.00  0.00    +0.176 C 
ATOM      7  O   UNL     1       6.596   2.982   2.182  0.00  0.00    -0.291 OA
ATOM      8  C   UNL     1       7.542   3.731  -0.266  0.00  0.00    +0.099 C 
ATOM      9  C   UNL     1       7.617   4.424  -1.595  0.00  0.00    +0.066 C 
ATOM     10  C   UNL     1       6.707   4.188  -2.556  0.00  0.00    +0.016 C 
ATOM     11  N   UNL     1       5.682   3.310  -2.340  0.00  0.00    -0.321 N 
ATOM     12  C   UNL     1       6.819   4.897  -3.882  0.00  0.00    +0.061 C 
ATOM     13  H   UNL     1       5.147   2.884  -3.201  0.00  0.00    +0.152 HD
ENDROOT
BRANCH   2  14
ATOM     14  C   UNL     1       2.097   2.113   0.786  0.00  0.00    -0.039 A 
ATOM     15  C   UNL     1       1.423   1.507  -0.259  0.00  0.00    +0.004 A 
ATOM     16  C   UNL     1       0.188   0.924  -0.042  0.00  0.00    +0.004 A 
ATOM     17  C   UNL     1      -0.375   0.946   1.220  0.00  0.00    +0.045 A 
ATOM     18  C   UNL     1       0.299   1.553   2.269  0.00  0.00    +0.120 A 
ATOM     19  C   UNL     1       1.538   2.137   2.049  0.00  0.00    +0.049 A 
BRANCH  18  20
ATOM     20  O   UNL     1      -0.255   1.580   3.510  0.00  0.00    -0.495 OA
ATOM     21  C   UNL     1      -1.536   0.965   3.661  0.00  0.00    +0.277 C 
ENDBRANCH  18  20
ENDBRANCH   2  14
BRANCH   8  22
ATOM     22  C   UNL     1       8.562   2.623  -0.228  0.00  0.00    +0.002 A 
ATOM     23  C   UNL     1       9.626   2.470   0.599  0.00  0.00    +0.012 A 
ATOM     24  C   UNL     1      10.435   1.359   0.451  0.00  0.00    +0.008 A 
ATOM     25  C   UNL     1      10.148   0.461  -0.522  0.00  0.00    +0.045 A 
ATOM     26  S   UNL     1       8.690   1.176  -1.266  0.00  0.00    -0.101 S 
ENDBRANCH   8  22
BRANCH   1  27
ATOM     27  C   UNL     1       4.507   0.734   1.531  0.00  0.00    +0.318 C 
ATOM     28  O   UNL     1       3.841   0.130   0.724  0.00  0.00    -0.250 OA
BRANCH  27  29
ATOM     29  O   UNL     1       5.303   0.064   2.380  0.00  0.00    -0.464 OA
BRANCH  29  31
ATOM     30  C   UNL     1       6.271  -1.968   3.310  0.00  0.00    +0.048 C 
ATOM     31  C   UNL     1       5.313  -1.384   2.270  0.00  0.00    +0.229 C 
ENDBRANCH  29  31
ENDBRANCH  27  29
ENDBRANCH   1  27
BRANCH   9  32
ATOM     32  C   UNL     1       8.664   5.342  -1.840  0.00  0.00    +0.338 C 
ATOM     33  O   UNL     1       8.695   5.965  -2.885  0.00  0.00    -0.245 OA
BRANCH  32  34
ATOM     34  O   UNL     1       9.629   5.528  -0.915  0.00  0.00    -0.462 OA
BRANCH  34  35
ATOM     35  C   UNL     1      10.655   6.471  -1.230  0.00  0.00    +0.229 C 
ATOM     36  C   UNL     1      11.651   6.546  -0.071  0.00  0.00    +0.048 C 
ENDBRANCH  34  35
ENDBRANCH  32  34
ENDBRANCH   9  32
TORSDOF 9
