REMARK  Name = ZINC40178098
REMARK  10 active torsions:
REMARK  status: ('A' for Active; 'I' for Inactive)
REMARK    1  A    between atoms: C_1  and  C_2
REMARK    2  A    between atoms: C_6  and  C_8
REMARK    3  A    between atoms: C_10  and  S_19
REMARK    4  A    between atoms: C_11  and  N_13
REMARK    5  A    between atoms: N_13  and  C_14
REMARK    6  A    between atoms: C_14  and  C_15
REMARK    7  A    between atoms: C_15  and  C_16
REMARK    8  A    between atoms: C_16  and  O_17
REMARK    9  A    between atoms: O_17  and  C_18
REMARK   10  A    between atoms: S_19  and  C_22
REMARK                            x       y       z     vdW  Elec       q    Type
REMARK                         _______ _______ _______ _____ _____    ______ ____
ROOT
ATOM      1  C   UNL     1       0.053  -2.845   2.456  0.00  0.00    +0.231 A 
ATOM      2  N   UNL     1       0.077  -4.152   2.573  0.00  0.00    -0.188 NA
ATOM      3  C   UNL     1       0.086  -4.468   3.876  0.00  0.00    +0.243 A 
ATOM      4  C   UNL     1       0.067  -3.311   4.582  0.00  0.00    +0.233 A 
ATOM      5  O   UNL     1       0.053  -2.301   3.689  0.00  0.00    -0.420 OA
ENDROOT
BRANCH   1  11
ATOM      6  C   UNL     1      -0.018   1.503   0.010  0.00  0.00    +0.044 C 
ATOM      7  C   UNL     1       0.002  -0.004   0.002  0.00  0.00    -0.050 A 
ATOM      8  C   UNL     1       0.006  -0.688  -1.201  0.00  0.00    +0.003 A 
ATOM      9  C   UNL     1       0.025  -2.071  -1.218  0.00  0.00    +0.001 A 
ATOM     10  C   UNL     1       0.040  -2.778  -0.034  0.00  0.00    +0.013 A 
ATOM     11  C   UNL     1       0.037  -2.095   1.184  0.00  0.00    +0.037 A 
ATOM     12  C   UNL     1       0.023  -0.698   1.194  0.00  0.00    +0.016 A 
ENDBRANCH   1  11
BRANCH   3  13
ATOM     13  S   UNL     1       0.116  -6.096   4.550  0.00  0.00    +0.047 S 
ATOM     14  O   UNL     1      -0.433  -6.004   5.857  0.00  0.00    -0.163 OA
ATOM     15  O   UNL     1      -0.422  -6.957   3.556  0.00  0.00    -0.163 OA
BRANCH  13  16
ATOM     16  C   UNL     1       1.808  -6.547   4.745  0.00  0.00    +0.099 A 
ATOM     17  C   UNL     1       2.478  -7.177   3.713  0.00  0.00    +0.031 A 
ATOM     18  C   UNL     1       3.804  -7.534   3.863  0.00  0.00    +0.051 A 
ATOM     19  C   UNL     1       4.468  -7.260   5.050  0.00  0.00    +0.162 A 
ATOM     20  C   UNL     1       3.795  -6.625   6.087  0.00  0.00    +0.164 A 
ATOM     21  C   UNL     1       2.465  -6.266   5.928  0.00  0.00    +0.076 A 
ATOM     22  O   UNL     1       4.429  -6.339   7.257  0.00  0.00    -0.485 OA
ATOM     23  C   UNL     1       5.651  -7.040   7.514  0.00  0.00    +0.270 C 
ATOM     24  C   UNL     1       6.508  -6.995   6.242  0.00  0.00    +0.270 C 
ATOM     25  O   UNL     1       5.774  -7.620   5.184  0.00  0.00    -0.485 OA
ENDBRANCH  13  16
ENDBRANCH   3  13
BRANCH   4  26
ATOM     26  N   UNL     1       0.068  -3.188   5.967  0.00  0.00    -0.312 N 
ATOM     27  H   UNL     1       0.083  -3.982   6.524  0.00  0.00    +0.149 HD
BRANCH  26  28
ATOM     28  C   UNL     1       0.046  -1.860   6.585  0.00  0.00    +0.106 C 
BRANCH  28  29
ATOM     29  C   UNL     1       0.052  -2.006   8.108  0.00  0.00    +0.047 C 
BRANCH  29  30
ATOM     30  C   UNL     1       0.029  -0.619   8.753  0.00  0.00    +0.161 C 
BRANCH  30  31
ATOM     31  O   UNL     1       0.034  -0.755  10.175  0.00  0.00    -0.383 OA
ATOM     32  C   UNL     1       0.014   0.489  10.879  0.00  0.00    +0.193 C 
ENDBRANCH  30  31
ENDBRANCH  29  30
ENDBRANCH  28  29
ENDBRANCH  26  28
ENDBRANCH   4  26
TORSDOF 8
