REMARK  Name = ZINC50708439
REMARK  2 active torsions:
REMARK  status: ('A' for Active; 'I' for Inactive)
REMARK    1  A    between atoms: C_4  and  C_8
REMARK    2  A    between atoms: C_6  and  N_7
REMARK                            x       y       z     vdW  Elec       q    Type
REMARK                         _______ _______ _______ _____ _____    ______ ____
ROOT
ATOM      1  C   UNL     1      -0.017   1.389   0.010  0.00  0.00    +0.042 A 
ATOM      2  C   UNL     1       1.180   2.082   0.002  0.00  0.00    +0.113 A 
ATOM      3  N   UNL     1       2.332   1.444  -0.012  0.00  0.00    -0.250 NA
ATOM      4  C   UNL     1       2.398   0.117  -0.020  0.00  0.00    +0.127 A 
ATOM      5  C   UNL     1       1.239  -0.649  -0.014  0.00  0.00    +0.055 A 
ATOM      6  C   UNL     1       0.002  -0.004   0.002  0.00  0.00    +0.028 A 
ENDROOT
BRANCH   4   7
ATOM      7  C   UNL     1       3.720  -0.551  -0.036  0.00  0.00    +0.265 C 
ATOM      8  O   UNL     1       3.787  -1.764  -0.044  0.00  0.00    -0.268 OA
ATOM      9  N   UNL     1       4.848   0.186  -0.043  0.00  0.00    -0.293 N 
ATOM     10  C   UNL     1       4.938   1.661  -0.030  0.00  0.00    +0.112 C 
ATOM     11  C   UNL     1       6.465   1.980  -0.069  0.00  0.00    +0.008 C 
ATOM     12  C   UNL     1       6.972   1.570   1.349  0.00  0.00    +0.007 C 
ATOM     13  C   UNL     1       6.812   0.032   1.377  0.00  0.00    +0.023 C 
ATOM     14  C   UNL     1       6.248  -0.328  -0.059  0.00  0.00    +0.077 C 
ATOM     15  C   UNL     1       6.959   0.766  -0.937  0.00  0.00    +0.027 C 
ENDBRANCH   4   7
BRANCH   6  16
ATOM     16  N   UNL     1      -1.183  -0.734   0.010  0.00  0.00    -0.358 N 
ATOM     17  H   UNL     1      -2.037  -0.273   0.021  0.00  0.00    +0.142 HD
ATOM     18  H   UNL     1      -1.156  -1.703   0.004  0.00  0.00    +0.142 HD
ENDBRANCH   6  16
TORSDOF 2
