REMARK  Name = ZINC20765135
REMARK  7 active torsions:
REMARK  status: ('A' for Active; 'I' for Inactive)
REMARK    1  A    between atoms: C_1  and  C_2
REMARK    2  A    between atoms: C_2  and  O_3
REMARK    3  A    between atoms: O_3  and  C_4
REMARK    4  A    between atoms: C_7  and  C_10
REMARK    5  A    between atoms: C_12  and  C_26
REMARK    6  A    between atoms: C_15  and  C_18
REMARK    7  A    between atoms: C_23  and  O_24
REMARK                            x       y       z     vdW  Elec       q    Type
REMARK                         _______ _______ _______ _____ _____    ______ ____
ROOT
ATOM      1  C   UNL     1      -0.716   1.571   1.245  0.00  0.00    +0.047 C 
ATOM      2  N   UNL     1      -1.909   2.038   1.234  0.00  0.00    -0.264 NA
ATOM      3  C   UNL     1      -2.724   2.168   0.033  0.00  0.00    +0.208 C 
ATOM      4  N   UNL     1      -2.191   1.332  -1.049  0.00  0.00    -0.284 NA
ATOM      5  C   UNL     1      -0.753   1.593  -1.233  0.00  0.00    +0.095 C 
ATOM      6  C   UNL     1      -0.013   1.086   0.008  0.00  0.00    +0.079 C 
ATOM      7  H   UNL     1      -2.335   0.271  -0.797  0.00  0.00    +0.125 HD
ENDROOT
BRANCH   3   8
ATOM      8  C   UNL     1      -2.729   3.609  -0.409  0.00  0.00    +0.045 A 
ATOM      9  C   UNL     1      -2.881   3.921  -1.750  0.00  0.00    +0.131 A 
ATOM     10  C   UNL     1      -2.891   5.245  -2.154  0.00  0.00    +0.039 A 
ATOM     11  C   UNL     1      -2.738   6.254  -1.221  0.00  0.00    +0.004 A 
ATOM     12  C   UNL     1      -2.580   5.942   0.116  0.00  0.00    +0.020 A 
ATOM     13  C   UNL     1      -2.576   4.619   0.522  0.00  0.00    +0.050 A 
ATOM     14 CL   UNL     1      -2.378   4.228   2.202  0.00  0.00    -0.083 Cl
ATOM     15  F   UNL     1      -3.025   2.935  -2.662  0.00  0.00    -0.205 F 
ENDBRANCH   3   8
BRANCH   5  16
ATOM     16  C   UNL     1      -0.256   0.865  -2.455  0.00  0.00    +0.013 A 
ATOM     17  C   UNL     1      -0.986  -0.185  -2.978  0.00  0.00    +0.028 A 
ATOM     18  C   UNL     1      -0.530  -0.854  -4.100  0.00  0.00    +0.042 A 
ATOM     19  C   UNL     1       0.657  -0.473  -4.700  0.00  0.00    +0.023 A 
ATOM     20  C   UNL     1       1.390   0.576  -4.180  0.00  0.00    +0.047 A 
ATOM     21  C   UNL     1       0.931   1.252  -3.059  0.00  0.00    +0.122 A 
ATOM     22 CL   UNL     1      -1.448  -2.173  -4.756  0.00  0.00    -0.084 Cl
BRANCH  21  23
ATOM     23  O   UNL     1       1.647   2.289  -2.549  0.00  0.00    -0.506 OA
ATOM     24  H   UNL     1       2.588   2.595  -3.028  0.00  0.00    +0.292 HD
ENDBRANCH  21  23
ENDBRANCH   5  16
BRANCH   1  28
ATOM     25  C   UNL     1       1.347   1.383   4.950  0.00  0.00    +0.121 A 
ATOM     26  C   UNL     1       0.051   1.884   4.903  0.00  0.00    +0.046 A 
ATOM     27  C   UNL     1      -0.621   1.947   3.703  0.00  0.00    +0.013 A 
ATOM     28  C   UNL     1       0.000   1.505   2.532  0.00  0.00    -0.004 A 
ATOM     29  C   UNL     1       1.301   0.996   2.585  0.00  0.00    +0.013 A 
ATOM     30  C   UNL     1       1.968   0.942   3.788  0.00  0.00    +0.046 A 
BRANCH  25  31
ATOM     31  O   UNL     1       2.007   1.323   6.135  0.00  0.00    -0.492 OA
BRANCH  31  33
ATOM     32  C   UNL     1       3.913   0.808   7.529  0.00  0.00    +0.048 C 
ATOM     33  C   UNL     1       3.335   0.797   6.112  0.00  0.00    +0.225 C 
ENDBRANCH  31  33
ENDBRANCH  25  31
ENDBRANCH   1  28
TORSDOF 6
