REMARK  Name = ZINC57552744
REMARK  1 active torsions:
REMARK  status: ('A' for Active; 'I' for Inactive)
REMARK    1  A    between atoms: N_3  and  C_7
REMARK                            x       y       z     vdW  Elec       q    Type
REMARK                         _______ _______ _______ _____ _____    ______ ____
ROOT
ATOM      1  C   UNL     1       3.521   0.640  -0.029  0.00  0.00    +0.112 C 
ATOM      2  C   UNL     1       4.029   1.375  -1.280  0.00  0.00    +0.049 C 
ATOM      3  C   UNL     1       5.557   1.615  -1.114  0.00  0.00    +0.168 C 
ATOM      4  S   UNL     1       5.634   2.082   0.666  0.00  0.00    -0.029 S 
ATOM      5  O   UNL     1       5.544   3.496   0.777  0.00  0.00    -0.174 OA
ATOM      6  O   UNL     1       6.722   1.401   1.277  0.00  0.00    -0.174 OA
ATOM      7  C   UNL     1       4.057   1.336   1.246  0.00  0.00    +0.191 C 
ENDROOT
BRANCH   1  10
ATOM      8  C   UNL     1      -0.016   1.338   0.009  0.00  0.00    +0.131 A 
ATOM      9  C   UNL     1       1.258   1.772  -0.000  0.00  0.00    +0.108 A 
ATOM     10  N   UNL     1       2.057   0.659  -0.014  0.00  0.00    -0.321 N 
ATOM     11  C   UNL     1       1.241  -0.418  -0.012  0.00  0.00    +0.178 A 
ATOM     12  N   UNL     1       0.002  -0.004   0.002  0.00  0.00    -0.230 NA
ATOM     13 BR   UNL     1       1.799  -2.224  -0.028  0.00  0.00    -0.008 Br
ENDBRANCH   1  10
TORSDOF 1
