REMARK  Name = ZINC13285055
REMARK  5 active torsions:
REMARK  status: ('A' for Active; 'I' for Inactive)
REMARK    1  A    between atoms: C_4  and  C_7
REMARK    2  A    between atoms: C_8  and  C_9
REMARK    3  A    between atoms: C_10  and  C_11
REMARK    4  A    between atoms: C_12  and  C_19
REMARK    5  A    between atoms: C_13  and  N_18
REMARK                            x       y       z     vdW  Elec       q    Type
REMARK                         _______ _______ _______ _____ _____    ______ ____
ROOT
ATOM      1  C   UNL     1       3.374   1.166   1.070  0.00  0.00    +0.078 A 
ATOM      2  C   UNL     1       2.479   1.072  -0.015  0.00  0.00    +0.047 A 
ATOM      3  C   UNL     1       2.854   0.282  -1.115  0.00  0.00    +0.130 A 
ATOM      4  N   UNL     1       4.024  -0.346  -1.088  0.00  0.00    -0.199 NA
ATOM      5  C   UNL     1       4.836  -0.237  -0.045  0.00  0.00    +0.215 A 
ATOM      6  N   UNL     1       4.529   0.494   1.012  0.00  0.00    -0.215 NA
ATOM      7  N   UNL     1       6.044  -0.911  -0.065  0.00  0.00    -0.327 N 
ATOM      8  H   UNL     1       6.285  -1.453  -0.833  0.00  0.00    +0.145 HD
ATOM      9  H   UNL     1       6.650  -0.843   0.690  0.00  0.00    +0.145 HD
ENDROOT
BRANCH   2  10
ATOM     10  C   UNL     1       1.186   1.791   0.000  0.00  0.00    -0.011 A 
ATOM     11  C   UNL     1      -0.013   1.076   0.008  0.00  0.00    +0.010 A 
ATOM     12  C   UNL     1      -1.216   1.750   0.017  0.00  0.00    +0.022 A 
ATOM     13  C   UNL     1      -1.237   3.135   0.031  0.00  0.00    +0.059 A 
ATOM     14  C   UNL     1      -0.050   3.851   0.023  0.00  0.00    +0.060 A 
ATOM     15  C   UNL     1       1.160   3.186   0.008  0.00  0.00    +0.030 A 
ATOM     16 CL   UNL     1      -0.086   5.586   0.033  0.00  0.00    -0.082 Cl
ATOM     17 CL   UNL     1      -2.755   3.977   0.050  0.00  0.00    -0.082 Cl
ENDBRANCH   2  10
BRANCH   3  18
ATOM     18  N   UNL     1       2.017   0.160  -2.210  0.00  0.00    -0.343 N 
ATOM     19  H   UNL     1       1.164   0.622  -2.222  0.00  0.00    +0.144 HD
ATOM     20  H   UNL     1       2.282  -0.388  -2.965  0.00  0.00    +0.144 HD
ENDBRANCH   3  18
BRANCH   1  22
ATOM     21  C   UNL     1       3.909   2.062   3.278  0.00  0.00    +0.002 C 
ATOM     22  C   UNL     1       3.042   1.981   2.244  0.00  0.00    +0.028 C 
BRANCH  21  24
ATOM     23  C   UNL     1       4.455   2.929   5.443  0.00  0.00    +0.008 C 
ATOM     24  C   UNL     1       3.589   2.848   4.410  0.00  0.00    +0.001 C 
BRANCH  23  28
ATOM     25  C   UNL     1       3.495   5.286   8.836  0.00  0.00    +0.000 A 
ATOM     26  C   UNL     1       4.697   4.601   8.792  0.00  0.00    +0.001 A 
ATOM     27  C   UNL     1       5.017   3.833   7.692  0.00  0.00    +0.008 A 
ATOM     28  C   UNL     1       4.122   3.747   6.620  0.00  0.00    -0.025 A 
ATOM     29  C   UNL     1       2.912   4.446   6.671  0.00  0.00    +0.008 A 
ATOM     30  C   UNL     1       2.604   5.205   7.780  0.00  0.00    +0.001 A 
ENDBRANCH  23  28
ENDBRANCH  21  24
ENDBRANCH   1  22
TORSDOF 5
