REMARK  Name = ZINC33085663
REMARK  11 active torsions:
REMARK  status: ('A' for Active; 'I' for Inactive)
REMARK    1  A    between atoms: C_1  and  C_2
REMARK    2  A    between atoms: C_2  and  C_3
REMARK    3  A    between atoms: C_3  and  C_4
REMARK    4  A    between atoms: C_4  and  C_5
REMARK    5  A    between atoms: C_5  and  N_6
REMARK    6  A    between atoms: C_7  and  C_9
REMARK    7  A    between atoms: C_11  and  C_27
REMARK    8  A    between atoms: C_15  and  C_19
REMARK    9  A    between atoms: C_22  and  O_25
REMARK   10  A    between atoms: O_25  and  C_26
REMARK   11  A    between atoms: C_30  and  C_33
REMARK                            x       y       z     vdW  Elec       q    Type
REMARK                         _______ _______ _______ _____ _____    ______ ____
ROOT
ATOM      1  C   UNL     1       0.882  -6.317  -4.609  0.00  0.00    +0.051 A 
ATOM      2  C   UNL     1       0.006  -7.112  -3.877  0.00  0.00    +0.042 A 
ATOM      3  C   UNL     1       0.300  -8.467  -3.701  0.00  0.00    +0.074 A 
ATOM      4  N   UNL     1       1.391  -9.009  -4.214  0.00  0.00    -0.228 NA
ATOM      5  C   UNL     1       2.260  -8.300  -4.920  0.00  0.00    +0.158 A 
ATOM      6  C   UNL     1       2.034  -6.928  -5.148  0.00  0.00    +0.058 A 
ATOM      7  C   UNL     1       3.156  -6.449  -5.954  0.00  0.00    +0.103 A 
ATOM      8  N   UNL     1       3.951  -7.471  -6.169  0.00  0.00    -0.171 NA
ATOM      9  H   UNL     1       3.849  -9.492  -5.562  0.00  0.00    +0.191 HD
ATOM     10  N   UNL     1       3.439  -8.613  -5.546  0.00  0.00    -0.260 N 
ENDROOT
BRANCH   3  11
ATOM     11  C   UNL     1      -0.633  -9.316  -2.921  0.00  0.00    +0.000 A 
ATOM     12  C   UNL     1      -1.791  -8.765  -2.376  0.00  0.00    +0.010 A 
ATOM     13  C   UNL     1      -2.655  -9.559  -1.651  0.00  0.00    +0.004 A 
ATOM     14  C   UNL     1      -2.374 -10.901  -1.464  0.00  0.00    -0.050 A 
ATOM     15  C   UNL     1      -1.226 -11.453  -2.002  0.00  0.00    +0.004 A 
ATOM     16  C   UNL     1      -0.357 -10.670  -2.734  0.00  0.00    +0.010 A 
ATOM     17  C   UNL     1      -3.322 -11.763  -0.671  0.00  0.00    +0.044 C 
ENDBRANCH   3  11
BRANCH   7  18
ATOM     18  C   UNL     1       3.359  -5.063  -6.439  0.00  0.00    +0.003 A 
ATOM     19  C   UNL     1       3.909  -4.100  -5.594  0.00  0.00    +0.013 A 
ATOM     20  C   UNL     1       4.097  -2.812  -6.048  0.00  0.00    +0.046 A 
ATOM     21  C   UNL     1       3.739  -2.473  -7.346  0.00  0.00    +0.120 A 
ATOM     22  C   UNL     1       3.191  -3.429  -8.191  0.00  0.00    +0.046 A 
ATOM     23  C   UNL     1       3.006  -4.721  -7.744  0.00  0.00    +0.013 A 
BRANCH  21  24
ATOM     24  O   UNL     1       3.926  -1.203  -7.791  0.00  0.00    -0.495 OA
ATOM     25  C   UNL     1       3.535  -0.923  -9.137  0.00  0.00    +0.277 C 
ENDBRANCH  21  24
ENDBRANCH   7  18
BRANCH   1  27
ATOM     26  N   UNL     1      -0.433  -4.291  -4.204  0.00  0.00    -0.311 N 
ATOM     27  C   UNL     1       0.611  -4.879  -4.821  0.00  0.00    +0.245 C 
ATOM     28  O   UNL     1       1.331  -4.226  -5.552  0.00  0.00    -0.270 OA
ATOM     29  H   UNL     1      -1.008  -4.812  -3.621  0.00  0.00    +0.149 HD
BRANCH  26  30
ATOM     30  C   UNL     1      -0.702  -2.867  -4.415  0.00  0.00    +0.104 C 
BRANCH  30  31
ATOM     31  C   UNL     1      -1.933  -2.455  -3.606  0.00  0.00    +0.019 C 
BRANCH  31  32
ATOM     32  C   UNL     1      -2.214  -0.967  -3.825  0.00  0.00    +0.001 C 
BRANCH  32  34
ATOM     33  C   UNL     1      -3.725   0.933  -3.236  0.00  0.00    +0.004 C 
ATOM     34  C   UNL     1      -3.445  -0.555  -3.017  0.00  0.00    -0.003 C 
ENDBRANCH  32  34
ENDBRANCH  31  32
ENDBRANCH  30  31
ENDBRANCH  26  30
ENDBRANCH   1  27
TORSDOF 8
