REMARK  Name = ZINC38965521
REMARK  6 active torsions:
REMARK  status: ('A' for Active; 'I' for Inactive)
REMARK    1  A    between atoms: C_1  and  C_2
REMARK    2  A    between atoms: C_5  and  C_31
REMARK    3  A    between atoms: C_6  and  S_8
REMARK    4  A    between atoms: S_8  and  N_11
REMARK    5  A    between atoms: C_13  and  N_23
REMARK    6  A    between atoms: N_23  and  C_24
REMARK                            x       y       z     vdW  Elec       q    Type
REMARK                         _______ _______ _______ _____ _____    ______ ____
ROOT
ATOM      1  N   UNL     1      -1.315  -3.675   3.050  0.00  0.00    -0.110 NA
ATOM      2  C   UNL     1      -1.614  -4.527   3.986  0.00  0.00    +0.192 C 
ATOM      3  C   UNL     1      -2.892  -5.331   3.911  0.00  0.00    +0.237 C 
ATOM      4  N   UNL     1      -3.173  -6.278   5.002  0.00  0.00    -0.359 N 
ATOM      5  C   UNL     1      -2.312  -6.379   5.975  0.00  0.00    +0.063 A 
ATOM      6  C   UNL     1      -2.546  -7.310   7.089  0.00  0.00    +0.027 A 
ATOM      7  C   UNL     1      -1.630  -7.387   8.079  0.00  0.00    +0.002 A 
ATOM      8  C   UNL     1      -0.465  -6.602   8.071  0.00  0.00    +0.002 A 
ATOM      9  C   UNL     1      -0.182  -5.725   7.083  0.00  0.00    +0.030 A 
ATOM     10  C   UNL     1      -1.073  -5.562   5.992  0.00  0.00    +0.089 A 
ATOM     11  N   UNL     1      -0.790  -4.709   5.030  0.00  0.00    -0.226 NA
ATOM     12  H   UNL     1      -3.981  -6.815   4.997  0.00  0.00    +0.162 HD
ENDROOT
BRANCH   1  13
ATOM     13  S   UNL     1       0.092  -2.806   3.141  0.00  0.00    +0.101 S 
ATOM     14  O   UNL     1       1.156  -3.740   3.012  0.00  0.00    -0.146 OA
ATOM     15  O   UNL     1      -0.034  -1.945   4.264  0.00  0.00    -0.146 OA
BRANCH  13  21
ATOM     16  C   UNL     1       0.103   1.915   0.897  0.00  0.00    +0.044 C 
ATOM     17  C   UNL     1       0.157   0.417   0.742  0.00  0.00    -0.049 A 
ATOM     18  C   UNL     1       0.257  -0.144  -0.517  0.00  0.00    +0.004 A 
ATOM     19  C   UNL     1       0.307  -1.518  -0.659  0.00  0.00    +0.005 A 
ATOM     20  C   UNL     1       0.257  -2.331   0.458  0.00  0.00    -0.024 A 
ATOM     21  C   UNL     1       0.157  -1.770   1.717  0.00  0.00    +0.116 A 
ATOM     22  C   UNL     1       0.112  -0.396   1.859  0.00  0.00    +0.032 A 
ATOM     23  C   UNL     1       0.310  -3.829   0.303  0.00  0.00    +0.046 C 
ENDBRANCH  13  21
ENDBRANCH   1  13
BRANCH   3  24
ATOM     24  N   UNL     1      -4.011  -4.387   3.841  0.00  0.00    -0.316 N 
ATOM     25  H   UNL     1      -4.025  -3.607   4.418  0.00  0.00    +0.148 HD
BRANCH  24  26
ATOM     26  C   UNL     1      -5.058  -4.610   2.941  0.00  0.00    +0.065 A 
ATOM     27  C   UNL     1      -5.105  -5.786   2.206  0.00  0.00    +0.026 A 
ATOM     28  C   UNL     1      -6.141  -6.004   1.318  0.00  0.00    +0.002 A 
ATOM     29  C   UNL     1      -7.131  -5.052   1.161  0.00  0.00    +0.003 A 
ATOM     30  C   UNL     1      -7.089  -3.878   1.891  0.00  0.00    +0.040 A 
ATOM     31  C   UNL     1      -6.058  -3.656   2.785  0.00  0.00    +0.144 A 
ATOM     32  F   UNL     1      -6.019  -2.512   3.503  0.00  0.00    -0.204 F 
ENDBRANCH  24  26
ENDBRANCH   3  24
TORSDOF 4
