REMARK  Name = ZINC35523098
REMARK  7 active torsions:
REMARK  status: ('A' for Active; 'I' for Inactive)
REMARK    1  A    between atoms: C_1  and  C_2
REMARK    2  A    between atoms: C_5  and  C_8
REMARK    3  A    between atoms: N_17  and  C_18
REMARK    4  A    between atoms: C_18  and  C_19
REMARK    5  A    between atoms: N_24  and  C_27
REMARK    6  A    between atoms: C_27  and  C_28
REMARK    7  A    between atoms: C_27  and  C_34
REMARK                            x       y       z     vdW  Elec       q    Type
REMARK                         _______ _______ _______ _____ _____    ______ ____
ROOT
ATOM      1  C   UNL     1       3.244  -4.833   1.844  0.00  0.00    +0.199 C 
ATOM      2  O   UNL     1       2.774  -5.334   2.844  0.00  0.00    -0.278 OA
ATOM      3  N   UNL     1       4.573  -4.626   1.755  0.00  0.00    -0.301 N 
ATOM      4  C   UNL     1       5.163  -4.014   0.555  0.00  0.00    +0.123 C 
ATOM      5  C   UNL     1       6.058  -2.849   0.992  0.00  0.00    +0.104 C 
ATOM      6  N   UNL     1       7.028  -3.327   1.986  0.00  0.00    -0.289 NA
ATOM      7  C   UNL     1       6.354  -3.802   3.202  0.00  0.00    +0.104 C 
ATOM      8  C   UNL     1       5.471  -5.001   2.858  0.00  0.00    +0.123 C 
ENDROOT
BRANCH   1   9
ATOM      9  C   UNL     1       2.343  -4.441   0.702  0.00  0.00    +0.020 C 
BRANCH   9  18
ATOM     10  C   UNL     1       0.059  -4.275  -0.021  0.00  0.00    +0.011 C 
ATOM     11  C   UNL     1      -1.329  -4.804   0.245  0.00  0.00    +0.009 A 
ATOM     12  C   UNL     1      -2.492  -4.383  -0.271  0.00  0.00    +0.021 A 
ATOM     13  C   UNL     1      -3.513  -5.184   0.284  0.00  0.00    +0.019 A 
ATOM     14  C   UNL     1      -2.926  -6.067   1.120  0.00  0.00    +0.086 A 
ATOM     15  N   UNL     1      -1.588  -5.843   1.100  0.00  0.00    -0.353 N 
ATOM     16  C   UNL     1      -0.536  -6.555   1.837  0.00  0.00    +0.103 C 
ATOM     17  C   UNL     1       0.810  -6.222   1.183  0.00  0.00    -0.055 C 
ATOM     18  N   UNL     1       0.951  -4.767   1.043  0.00  0.00    +0.395 N 
ATOM     19  H   UNL     1       0.709  -4.322   1.915  0.00  0.00    -0.080 HD
BRANCH  10  24
ATOM     20  C   UNL     1      -0.018   1.503   0.010  0.00  0.00    +0.044 C 
ATOM     21  C   UNL     1       0.002  -0.004   0.002  0.00  0.00    -0.050 A 
ATOM     22  C   UNL     1       0.006  -0.689  -1.199  0.00  0.00    +0.003 A 
ATOM     23  C   UNL     1       0.025  -2.071  -1.206  0.00  0.00    +0.002 A 
ATOM     24  C   UNL     1       0.040  -2.768  -0.013  0.00  0.00    -0.055 A 
ATOM     25  C   UNL     1       0.037  -2.084   1.188  0.00  0.00    +0.002 A 
ATOM     26  C   UNL     1       0.023  -0.702   1.195  0.00  0.00    +0.003 A 
ENDBRANCH  10  24
ENDBRANCH   9  18
ENDBRANCH   1   9
BRANCH   6  27
ATOM     27  C   UNL     1       8.013  -2.285   2.303  0.00  0.00    +0.117 C 
BRANCH  27  28
ATOM     28  C   UNL     1       8.989  -2.810   3.324  0.00  0.00    -0.026 A 
ATOM     29  C   UNL     1       9.452  -4.109   3.233  0.00  0.00    +0.005 A 
ATOM     30  C   UNL     1      10.347  -4.591   4.170  0.00  0.00    +0.000 A 
ATOM     31  C   UNL     1      10.780  -3.774   5.197  0.00  0.00    +0.000 A 
ATOM     32  C   UNL     1      10.317  -2.474   5.288  0.00  0.00    +0.000 A 
ATOM     33  C   UNL     1       9.425  -1.991   4.349  0.00  0.00    +0.005 A 
ENDBRANCH  27  28
BRANCH  27  34
ATOM     34  C   UNL     1       8.756  -1.898   1.051  0.00  0.00    -0.026 A 
ATOM     35  C   UNL     1       9.126  -2.869   0.139  0.00  0.00    +0.005 A 
ATOM     36  C   UNL     1       9.808  -2.514  -1.010  0.00  0.00    +0.000 A 
ATOM     37  C   UNL     1      10.119  -1.188  -1.248  0.00  0.00    +0.000 A 
ATOM     38  C   UNL     1       9.748  -0.217  -0.336  0.00  0.00    +0.000 A 
ATOM     39  C   UNL     1       9.063  -0.572   0.811  0.00  0.00    +0.005 A 
ENDBRANCH  27  34
ENDBRANCH   6  27
TORSDOF 6
