REMARK  Name = ZINC37483096
REMARK  11 active torsions:
REMARK  status: ('A' for Active; 'I' for Inactive)
REMARK    1  A    between atoms: C_1  and  C_2
REMARK    2  A    between atoms: C_2  and  O_3
REMARK    3  A    between atoms: O_3  and  C_4
REMARK    4  A    between atoms: C_7  and  C_10
REMARK    5  A    between atoms: C_10  and  S_11
REMARK    6  A    between atoms: S_11  and  C_12
REMARK    7  A    between atoms: C_16  and  S_28
REMARK    8  A    between atoms: N_20  and  C_21
REMARK    9  A    between atoms: C_21  and  C_22
REMARK   10  A    between atoms: S_28  and  N_31
REMARK   11  A    between atoms: C_35  and  C_38
REMARK                            x       y       z     vdW  Elec       q    Type
REMARK                         _______ _______ _______ _____ _____    ______ ____
ROOT
ATOM      1  C   UNL     1      -2.271  -8.442   1.521  0.00  0.00    +0.170 A 
ATOM      2  N   UNL     1      -2.346  -9.080   0.379  0.00  0.00    -0.222 NA
ATOM      3  C   UNL     1      -2.504 -10.410   0.609  0.00  0.00    +0.092 A 
ATOM      4  C   UNL     1      -2.635 -11.520  -0.229  0.00  0.00    +0.058 A 
ATOM      5  C   UNL     1      -2.784 -12.775   0.316  0.00  0.00    +0.108 A 
ATOM      6  C   UNL     1      -2.804 -12.947   1.692  0.00  0.00    +0.030 A 
ATOM      7  C   UNL     1      -2.676 -11.861   2.534  0.00  0.00    +0.030 A 
ATOM      8  C   UNL     1      -2.525 -10.589   2.002  0.00  0.00    +0.070 A 
ATOM      9  N   UNL     1      -2.370  -9.329   2.556  0.00  0.00    -0.316 N 
ENDROOT
BRANCH   5  10
ATOM     10  S   UNL     1      -2.950 -14.174  -0.742  0.00  0.00    +0.061 S 
ATOM     11  O   UNL     1      -3.623 -15.175   0.010  0.00  0.00    -0.153 OA
ATOM     12  O   UNL     1      -3.447 -13.689  -1.981  0.00  0.00    -0.153 OA
BRANCH  10  13
ATOM     13  N   UNL     1      -1.425 -14.749  -1.036  0.00  0.00    -0.176 NA
ATOM     14  C   UNL     1      -0.644 -14.250  -2.177  0.00  0.00    +0.109 C 
ATOM     15  C   UNL     1       0.715 -13.761  -1.668  0.00  0.00    +0.017 C 
ATOM     16  C   UNL     1       1.396 -14.885  -0.883  0.00  0.00    +0.006 C 
ATOM     17  C   UNL     1       0.535 -15.261   0.324  0.00  0.00    +0.002 C 
ATOM     18  C   UNL     1      -0.824 -15.763  -0.159  0.00  0.00    +0.112 C 
ATOM     19  C   UNL     1       1.233 -16.361   1.127  0.00  0.00    +0.009 C 
ENDBRANCH  10  13
ENDBRANCH   5  10
BRANCH   1  20
ATOM     20  S   UNL     1      -2.064  -6.701   1.697  0.00  0.00    -0.083 S 
BRANCH  20  21
ATOM     21  C   UNL     1      -2.001  -6.092  -0.011  0.00  0.00    +0.112 C 
BRANCH  21  25
ATOM     22  C   UNL     1      -1.498  -1.848   0.006  0.00  0.00    +0.121 A 
ATOM     23  C   UNL     1      -0.388  -2.679  -0.003  0.00  0.00    +0.046 A 
ATOM     24  C   UNL     1      -0.553  -4.051  -0.008  0.00  0.00    +0.008 A 
ATOM     25  C   UNL     1      -1.823  -4.596  -0.005  0.00  0.00    -0.037 A 
ATOM     26  C   UNL     1      -2.932  -3.769   0.004  0.00  0.00    +0.008 A 
ATOM     27  C   UNL     1      -2.772  -2.397   0.016  0.00  0.00    +0.046 A 
BRANCH  22  28
ATOM     28  O   UNL     1      -1.339  -0.499   0.012  0.00  0.00    -0.492 OA
BRANCH  28  30
ATOM     29  C   UNL     1      -0.019   1.526   0.010  0.00  0.00    +0.048 C 
ATOM     30  C   UNL     1       0.002  -0.004   0.002  0.00  0.00    +0.225 C 
ENDBRANCH  28  30
ENDBRANCH  22  28
ENDBRANCH  21  25
ENDBRANCH  20  21
ENDBRANCH   1  20
BRANCH   9  31
ATOM     31  C   UNL     1      -2.325  -9.007   3.984  0.00  0.00    +0.156 C 
BRANCH  31  32
ATOM     32  C   UNL     1      -3.742  -8.726   4.489  0.00  0.00    +0.138 C 
ATOM     33  C   UNL     1      -3.728  -8.472   6.017  0.00  0.00    +0.035 C 
ATOM     34  C   UNL     1      -5.013  -7.616   6.185  0.00  0.00    +0.031 C 
ATOM     35  C   UNL     1      -5.042  -6.806   4.871  0.00  0.00    +0.160 C 
ATOM     36  O   UNL     1      -4.247  -7.513   3.909  0.00  0.00    -0.375 OA
ENDBRANCH  31  32
ENDBRANCH   9  31
TORSDOF 9
