REMARK  Name = ZINC04390852
REMARK  8 active torsions:
REMARK  status: ('A' for Active; 'I' for Inactive)
REMARK    1  A    between atoms: C_1  and  C_2
REMARK    2  A    between atoms: C_2  and  N_24
REMARK    3  A    between atoms: C_3  and  C_4
REMARK    4  A    between atoms: C_3  and  C_6
REMARK    5  A    between atoms: C_6  and  C_7
REMARK    6  A    between atoms: C_6  and  C_11
REMARK    7  A    between atoms: C_6  and  N_15
REMARK    8  A    between atoms: C_16  and  C_18
REMARK                            x       y       z     vdW  Elec       q    Type
REMARK                         _______ _______ _______ _____ _____    ______ ____
ROOT
ATOM      1  C   UNL     1      -0.037   0.086   2.586  0.00  0.00    +0.261 C 
ENDROOT
BRANCH   1   2
ATOM      2  C   UNL     1       0.143  -0.826   1.372  0.00  0.00    +0.424 C 
ATOM      3  F   UNL     1       0.525  -2.102   1.800  0.00  0.00    -0.168 F 
ATOM      4  F   UNL     1      -1.064  -0.912   0.669  0.00  0.00    -0.168 F 
ATOM      5  F   UNL     1       1.133  -0.299   0.535  0.00  0.00    -0.168 F 
ENDBRANCH   1   2
BRANCH   1   6
ATOM      6  C   UNL     1      -1.130  -0.483   3.494  0.00  0.00    +0.424 C 
ATOM      7  F   UNL     1      -1.186   0.260   4.678  0.00  0.00    -0.168 F 
ATOM      8  F   UNL     1      -2.364  -0.411   2.839  0.00  0.00    -0.168 F 
ATOM      9  F   UNL     1      -0.838  -1.818   3.794  0.00  0.00    -0.168 F 
ENDBRANCH   1   6
BRANCH   1  10
ATOM     10  N   UNL     1      -0.424   1.426   2.138  0.00  0.00    -0.290 N 
ATOM     11  C   UNL     1      -0.540   2.429   3.031  0.00  0.00    +0.217 C 
ATOM     12  O   UNL     1      -0.222   2.250   4.187  0.00  0.00    -0.275 OA
ATOM     13  H   UNL     1      -0.597   1.592   1.198  0.00  0.00    +0.150 HD
BRANCH  11  14
ATOM     14  C   UNL     1      -1.065   3.772   2.592  0.00  0.00    +0.075 C 
ATOM     15  C   UNL     1      -0.186   4.320   1.466  0.00  0.00    +0.013 C 
ATOM     16  C   UNL     1      -0.719   5.683   1.021  0.00  0.00    +0.001 C 
ATOM     17  C   UNL     1      -0.694   6.652   2.204  0.00  0.00    +0.000 C 
ATOM     18  C   UNL     1      -1.573   6.104   3.331  0.00  0.00    +0.001 C 
ATOM     19  C   UNL     1      -1.040   4.740   3.776  0.00  0.00    +0.013 C 
ENDBRANCH  11  14
ENDBRANCH   1  10
BRANCH   1  22
ATOM     20  C   UNL     1       1.970   1.972   1.816  0.00  0.00    +0.061 C 
ATOM     21  C   UNL     1       2.168   1.112   3.037  0.00  0.00    +0.014 C 
ATOM     22  C   UNL     1       1.259   0.168   3.351  0.00  0.00    +0.086 C 
BRANCH  21  23
ATOM     23  N   UNL     1       3.272   1.289   3.829  0.00  0.00    -0.361 N 
ATOM     24  H   UNL     1       3.927   1.969   3.604  0.00  0.00    +0.142 HD
ATOM     25  H   UNL     1       3.400   0.735   4.615  0.00  0.00    +0.142 HD
ENDBRANCH  21  23
BRANCH  22  26
ATOM     26  C   UNL     1       1.524  -0.759   4.410  0.00  0.00    +0.099 C 
ATOM     27  N   UNL     1       1.735  -1.493   5.250  0.00  0.00    -0.191 NA
ENDBRANCH  22  26
ENDBRANCH   1  22
TORSDOF 7
