REMARK  Name = ZINC00964514
REMARK  12 active torsions:
REMARK  status: ('A' for Active; 'I' for Inactive)
REMARK    1  A    between atoms: C_1  and  C_2
REMARK    2  A    between atoms: C_6  and  N_8
REMARK    3  A    between atoms: C_9  and  C_38
REMARK    4  A    between atoms: C_12  and  S_13
REMARK    5  A    between atoms: S_13  and  C_14
REMARK    6  A    between atoms: C_14  and  C_15
REMARK    7  A    between atoms: C_17  and  C_20
REMARK    8  A    between atoms: N_22  and  C_23
REMARK    9  A    between atoms: C_23  and  C_24
REMARK   10  A    between atoms: C_24  and  C_25
REMARK   11  A    between atoms: C_25  and  C_26
REMARK   12  A    between atoms: C_25  and  C_32
REMARK                            x       y       z     vdW  Elec       q    Type
REMARK                         _______ _______ _______ _____ _____    ______ ____
ROOT
ATOM      1  C   UNL     1       8.307  -1.892   5.405  0.00  0.00    +0.206 A 
ATOM      2  N   UNL     1       7.934  -0.720   5.824  0.00  0.00    -0.208 NA
ATOM      3  C   UNL     1       9.036   0.070   5.935  0.00  0.00    +0.163 A 
ATOM      4  C   UNL     1      10.107  -0.683   5.562  0.00  0.00    +0.230 A 
ATOM      5  O   UNL     1       9.637  -1.899   5.241  0.00  0.00    -0.446 OA
ENDROOT
BRANCH   3   6
ATOM      6  C   UNL     1       9.066   1.476   6.376  0.00  0.00    +0.266 C 
ATOM      7  O   UNL     1      10.123   2.074   6.432  0.00  0.00    -0.268 OA
ATOM      8  N   UNL     1       7.920   2.099   6.717  0.00  0.00    -0.310 N 
ATOM      9  H   UNL     1       7.077   1.623   6.673  0.00  0.00    +0.149 HD
BRANCH   8  10
ATOM     10  C   UNL     1       7.949   3.497   7.156  0.00  0.00    +0.105 C 
BRANCH  10  11
ATOM     11  C   UNL     1       6.528   3.959   7.481  0.00  0.00    +0.031 C 
BRANCH  11  12
ATOM     12  C   UNL     1       6.558   5.419   7.939  0.00  0.00    +0.050 C 
BRANCH  12  13
ATOM     13  C   UNL     1       7.011   6.294   6.798  0.00  0.00    -0.040 A 
ATOM     14  C   UNL     1       8.060   7.175   6.978  0.00  0.00    +0.004 A 
ATOM     15  C   UNL     1       8.475   7.978   5.932  0.00  0.00    +0.000 A 
ATOM     16  C   UNL     1       7.841   7.898   4.706  0.00  0.00    +0.000 A 
ATOM     17  C   UNL     1       6.792   7.016   4.526  0.00  0.00    +0.000 A 
ATOM     18  C   UNL     1       6.380   6.211   5.571  0.00  0.00    +0.004 A 
ENDBRANCH  12  13
BRANCH  12  19
ATOM     19  C   UNL     1       5.178   5.837   8.376  0.00  0.00    -0.040 A 
ATOM     20  C   UNL     1       4.096   5.631   7.540  0.00  0.00    +0.004 A 
ATOM     21  C   UNL     1       2.830   6.014   7.941  0.00  0.00    +0.000 A 
ATOM     22  C   UNL     1       2.646   6.604   9.178  0.00  0.00    +0.000 A 
ATOM     23  C   UNL     1       3.727   6.809  10.014  0.00  0.00    +0.000 A 
ATOM     24  C   UNL     1       4.993   6.422   9.615  0.00  0.00    +0.004 A 
ENDBRANCH  12  19
ENDBRANCH  11  12
ENDBRANCH  10  11
ENDBRANCH   8  10
ENDBRANCH   3   6
BRANCH   1  25
ATOM     25  C   UNL     1       7.390  -3.060   5.152  0.00  0.00    +0.173 C 
BRANCH  25  26
ATOM     26  S   UNL     1       6.824  -3.022   3.429  0.00  0.00    -0.076 S 
BRANCH  26  31
ATOM     27  N   UNL     1       5.102  -4.839   2.174  0.00  0.00    -0.274 N 
ATOM     28  C   UNL     1       4.430  -5.976   2.541  0.00  0.00    +0.135 A 
ATOM     29  N   UNL     1       4.702  -6.198   3.796  0.00  0.00    -0.133 NA
ATOM     30  N   UNL     1       5.492  -5.289   4.245  0.00  0.00    -0.122 NA
ATOM     31  C   UNL     1       5.776  -4.432   3.292  0.00  0.00    +0.197 A 
ATOM     32  C   UNL     1       3.542  -6.813   1.658  0.00  0.00    +0.088 C 
BRANCH  27  38
ATOM     33  C   UNL     1       3.976  -0.977  -0.656  0.00  0.00    +0.044 C 
ATOM     34  C   UNL     1       4.563  -2.355  -0.486  0.00  0.00    -0.048 A 
ATOM     35  C   UNL     1       5.103  -3.015  -1.575  0.00  0.00    +0.003 A 
ATOM     36  C   UNL     1       5.643  -4.278  -1.422  0.00  0.00    +0.002 A 
ATOM     37  C   UNL     1       5.644  -4.886  -0.181  0.00  0.00    +0.026 A 
ATOM     38  C   UNL     1       5.102  -4.226   0.913  0.00  0.00    +0.050 A 
ATOM     39  C   UNL     1       4.566  -2.954   0.758  0.00  0.00    +0.029 A 
ENDBRANCH  27  38
ENDBRANCH  26  31
ENDBRANCH  25  26
ENDBRANCH   1  25
TORSDOF 10
