REMARK  Name = ZINC39711142
REMARK  10 active torsions:
REMARK  status: ('A' for Active; 'I' for Inactive)
REMARK    1  A    between atoms: C_1  and  C_2
REMARK    2  A    between atoms: C_4  and  C_42
REMARK    3  A    between atoms: C_7  and  C_14
REMARK    4  A    between atoms: C_14  and  C_16
REMARK    5  A    between atoms: C_14  and  N_27
REMARK    6  A    between atoms: N_21  and  C_22
REMARK    7  A    between atoms: N_27  and  C_28
REMARK    8  A    between atoms: N_27  and  C_35
REMARK    9  A    between atoms: C_28  and  C_29
REMARK   10  A    between atoms: C_35  and  C_36
REMARK                            x       y       z     vdW  Elec       q    Type
REMARK                         _______ _______ _______ _____ _____    ______ ____
ROOT
ATOM      1  C   UNL     1       1.060  -5.827   3.349  0.00  0.00    -0.010 C 
ENDROOT
BRANCH   1   8
ATOM      2  C   UNL     1      -3.426  -8.153   8.887  0.00  0.00    +0.044 C 
ATOM      3  C   UNL     1      -2.454  -7.410   8.008  0.00  0.00    -0.048 A 
ATOM      4  C   UNL     1      -1.293  -6.892   8.582  0.00  0.00    +0.007 A 
ATOM      5  C   UNL     1      -0.379  -6.213   7.841  0.00  0.00    -0.042 A 
ATOM      6  C   UNL     1      -0.629  -6.026   6.412  0.00  0.00    -0.004 A 
ATOM      7  C   UNL     1       0.260  -5.351   5.629  0.00  0.00    -0.006 C 
ATOM      8  C   UNL     1      -0.080  -5.205   4.158  0.00  0.00    +0.088 C 
ATOM      9  C   UNL     1      -1.376  -5.820   3.680  0.00  0.00    +0.223 C 
ATOM     10  O   UNL     1      -1.698  -5.734   2.510  0.00  0.00    -0.275 OA
ATOM     11  N   UNL     1      -2.158  -6.453   4.539  0.00  0.00    -0.285 N 
ATOM     12  C   UNL     1      -1.864  -6.583   5.832  0.00  0.00    +0.041 A 
ATOM     13  C   UNL     1      -2.742  -7.274   6.687  0.00  0.00    +0.027 A 
ATOM     14  C   UNL     1       0.869  -5.661   8.480  0.00  0.00    +0.044 C 
ATOM     15  H   UNL     1      -2.985  -6.840   4.212  0.00  0.00    +0.155 HD
ENDBRANCH   1   8
BRANCH   1  16
ATOM     16  C   UNL     1       2.264  -4.884   3.357  0.00  0.00    +0.183 C 
ATOM     17  N   UNL     1       2.648  -4.538   4.739  0.00  0.00    -0.229 N 
ATOM     18  N   UNL     1       2.493  -3.151   4.844  0.00  0.00    -0.064 NA
ATOM     19  N   UNL     1       2.098  -2.639   3.800  0.00  0.00    -0.061 NA
ATOM     20  N   UNL     1       1.908  -3.577   2.774  0.00  0.00    -0.213 N 
ATOM     21  H   UNL     1       2.946  -5.148   5.433  0.00  0.00    +0.172 HD
BRANCH  20  22
ATOM     22  C   UNL     1       1.450  -3.316   1.407  0.00  0.00    +0.096 C 
ATOM     23  C   UNL     1       2.458  -2.404   0.677  0.00  0.00    +0.024 C 
ATOM     24  C   UNL     1       1.572  -1.480  -0.195  0.00  0.00    +0.002 C 
ATOM     25  C   UNL     1       0.352  -1.211   0.722  0.00  0.00    +0.002 C 
ATOM     26  C   UNL     1       0.112  -2.557   1.435  0.00  0.00    +0.024 C 
ENDBRANCH  20  22
ENDBRANCH   1  16
BRANCH   1  27
ATOM     27  N   UNL     1       1.441  -7.113   3.949  0.00  0.00    +0.390 N 
ATOM     28  H   UNL     1       1.827  -6.955   4.868  0.00  0.00    -0.080 HD
BRANCH  27  29
ATOM     29  C   UNL     1       0.255  -7.974   4.057  0.00  0.00    -0.042 C 
BRANCH  29  30
ATOM     30  C   UNL     1       0.656  -9.313   4.620  0.00  0.00    -0.064 A 
ATOM     31  C   UNL     1       1.040 -10.333   3.770  0.00  0.00    +0.002 A 
ATOM     32  C   UNL     1       1.408 -11.562   4.286  0.00  0.00    +0.000 A 
ATOM     33  C   UNL     1       1.392 -11.770   5.652  0.00  0.00    +0.000 A 
ATOM     34  C   UNL     1       1.009 -10.749   6.503  0.00  0.00    +0.000 A 
ATOM     35  C   UNL     1       0.645  -9.519   5.987  0.00  0.00    +0.002 A 
ENDBRANCH  29  30
ENDBRANCH  27  29
BRANCH  27  36
ATOM     36  C   UNL     1       2.446  -7.769   3.102  0.00  0.00    -0.040 C 
BRANCH  36  37
ATOM     37  C   UNL     1       3.790  -7.126   3.328  0.00  0.00    -0.046 A 
ATOM     38  C   UNL     1       4.612  -6.821   2.253  0.00  0.00    +0.005 A 
ATOM     39  C   UNL     1       5.840  -6.229   2.508  0.00  0.00    +0.020 A 
ATOM     40  C   UNL     1       6.201  -5.965   3.816  0.00  0.00    +0.111 A 
ATOM     41  N   UNL     1       5.394  -6.269   4.813  0.00  0.00    -0.263 NA
ATOM     42  C   UNL     1       4.217  -6.827   4.608  0.00  0.00    +0.112 A 
ENDBRANCH  36  37
ENDBRANCH  27  36
ENDBRANCH   1  27
TORSDOF 8
