REMARK  Name = ZINC38894124
REMARK  6 active torsions:
REMARK  status: ('A' for Active; 'I' for Inactive)
REMARK    1  A    between atoms: C_6  and  C_7
REMARK    2  A    between atoms: C_9  and  C_12
REMARK    3  A    between atoms: C_12  and  N_13
REMARK    4  A    between atoms: C_17  and  C_20
REMARK    5  A    between atoms: N_22  and  C_23
REMARK    6  A    between atoms: C_26  and  C_29
REMARK                            x       y       z     vdW  Elec       q    Type
REMARK                         _______ _______ _______ _____ _____    ______ ____
ROOT
ATOM      1  N   UNL     1      -3.321  -4.324   1.406  0.00  0.00    +0.386 N 
ATOM      2  C   UNL     1      -2.003  -4.402   2.048  0.00  0.00    -0.078 C 
ATOM      3  C   UNL     1      -2.169  -4.806   3.515  0.00  0.00    -0.018 C 
ATOM      4  C   UNL     1      -2.855  -6.173   3.588  0.00  0.00    +0.009 C 
ATOM      5  C   UNL     1      -4.196  -6.100   2.851  0.00  0.00    +0.059 C 
ATOM      6  C   UNL     1      -3.955  -5.648   1.409  0.00  0.00    -0.065 C 
ATOM      7  H   UNL     1      -3.902  -3.674   1.913  0.00  0.00    -0.081 HD
ENDROOT
BRANCH   5   8
ATOM      8  C   UNL     1      -4.845  -7.460   2.851  0.00  0.00    +0.218 C 
ATOM      9  O   UNL     1      -5.095  -8.013   1.801  0.00  0.00    -0.275 OA
ATOM     10  N   UNL     1      -5.148  -8.062   4.018  0.00  0.00    -0.285 N 
ATOM     11  H   UNL     1      -4.888  -7.651   4.858  0.00  0.00    +0.155 HD
BRANCH  10  12
ATOM     12  C   UNL     1      -5.837  -9.280   4.019  0.00  0.00    +0.033 A 
ATOM     13  C   UNL     1      -6.761  -9.556   5.019  0.00  0.00    +0.023 A 
ATOM     14  C   UNL     1      -7.439 -10.758   5.018  0.00  0.00    +0.006 A 
ATOM     15  C   UNL     1      -7.200 -11.688   4.022  0.00  0.00    -0.041 A 
ATOM     16  C   UNL     1      -6.281 -11.416   3.025  0.00  0.00    +0.006 A 
ATOM     17  C   UNL     1      -5.603 -10.213   3.018  0.00  0.00    +0.023 A 
BRANCH  15  18
ATOM     18  C   UNL     1      -7.942 -12.999   4.023  0.00  0.00    -0.003 C 
ATOM     19  C   UNL     1      -9.446 -12.734   3.929  0.00  0.00    +0.015 C 
ATOM     20  C   UNL     1     -10.200 -14.065   3.930  0.00  0.00    -0.010 C 
ATOM     21  C   UNL     1      -9.754 -14.905   2.731  0.00  0.00    +0.007 C 
ATOM     22  C   UNL     1      -8.250 -15.170   2.825  0.00  0.00    -0.010 C 
ATOM     23  C   UNL     1      -7.497 -13.839   2.824  0.00  0.00    +0.015 C 
ATOM     24  C   UNL     1      -7.946 -15.927   4.120  0.00  0.00    +0.007 C 
ATOM     25  C   UNL     1      -8.392 -15.088   5.319  0.00  0.00    -0.010 C 
ATOM     26  C   UNL     1      -9.896 -14.822   5.224  0.00  0.00    +0.007 C 
ATOM     27  C   UNL     1      -7.638 -13.756   5.317  0.00  0.00    +0.015 C 
ENDBRANCH  15  18
ENDBRANCH  10  12
ENDBRANCH   5   8
BRANCH   1  28
ATOM     28  C   UNL     1      -3.163  -3.861   0.021  0.00  0.00    +0.022 C 
BRANCH  28  31
ATOM     29  C   UNL     1      -1.246  -0.779   0.010  0.00  0.00    +0.202 A 
ATOM     30  N   UNL     1      -1.367  -2.119   0.007  0.00  0.00    -0.193 NA
ATOM     31  C   UNL     1      -2.626  -2.453   0.021  0.00  0.00    +0.211 A 
ATOM     32  O   UNL     1      -3.362  -1.335   0.033  0.00  0.00    -0.340 OA
ATOM     33  N   UNL     1      -2.445  -0.251   0.032  0.00  0.00    -0.056 NA
BRANCH  29  39
ATOM     34  C   UNL     1       0.021   1.368   0.009  0.00  0.00    +0.014 A 
ATOM     35  C   UNL     1       1.211   2.066  -0.002  0.00  0.00    +0.039 A 
ATOM     36  C   UNL     1       2.417   1.382  -0.025  0.00  0.00    +0.123 A 
ATOM     37  C   UNL     1       2.432  -0.004  -0.035  0.00  0.00    +0.039 A 
ATOM     38  C   UNL     1       1.246  -0.708  -0.024  0.00  0.00    +0.014 A 
ATOM     39  C   UNL     1       0.032  -0.025  -0.002  0.00  0.00    +0.023 A 
ATOM     40  F   UNL     1       3.580   2.068  -0.036  0.00  0.00    -0.205 F 
ENDBRANCH  29  39
ENDBRANCH  28  31
ENDBRANCH   1  28
TORSDOF 6
