REMARK  Name = ZINC28224861
REMARK  3 active torsions:
REMARK  status: ('A' for Active; 'I' for Inactive)
REMARK    1  A    between atoms: C_10  and  N_11
REMARK    2  A    between atoms: N_14  and  C_15
REMARK    3  A    between atoms: C_16  and  C_23
REMARK                            x       y       z     vdW  Elec       q    Type
REMARK                         _______ _______ _______ _____ _____    ______ ____
ROOT
ATOM      1  N   UNL     1      -2.513   3.781   0.046  0.00  0.00    -0.269 N 
ATOM      2  C   UNL     1      -3.658   3.076  -0.048  0.00  0.00    +0.309 C 
ATOM      3  O   UNL     1      -3.624   1.861  -0.054  0.00  0.00    -0.252 OA
ATOM      4  N   UNL     1      -4.840   3.718  -0.135  0.00  0.00    -0.263 N 
ATOM      5  H   UNL     1      -2.549   4.876   0.145  0.00  0.00    +0.156 HD
ATOM      6  H   UNL     1      -4.870   4.817  -0.130  0.00  0.00    +0.157 HD
ENDROOT
BRANCH   1  16
ATOM      7  C   UNL     1       2.118   4.831   1.758  0.00  0.00    +0.001 A 
ATOM      8  C   UNL     1       0.899   5.505   1.797  0.00  0.00    +0.001 A 
ATOM      9  C   UNL     1      -0.218   4.966   1.237  0.00  0.00    +0.010 A 
ATOM     10  C   UNL     1      -0.146   3.712   0.610  0.00  0.00    +0.003 A 
ATOM     11  C   UNL     1       1.093   3.025   0.569  0.00  0.00    -0.016 A 
ATOM     12  C   UNL     1       2.226   3.614   1.158  0.00  0.00    +0.008 A 
ATOM     13  C   UNL     1       1.167   1.770  -0.059  0.00  0.00    +0.008 A 
ATOM     14  C   UNL     1       0.054   1.225  -0.621  0.00  0.00    +0.002 A 
ATOM     15  C   UNL     1      -1.166   1.892  -0.593  0.00  0.00    +0.024 A 
ATOM     16  C   UNL     1      -1.283   3.122   0.019  0.00  0.00    +0.042 A 
ENDBRANCH   1  16
BRANCH   4  17
ATOM     17  C   UNL     1      -6.017   2.992  -0.232  0.00  0.00    +0.086 A 
ATOM     18  C   UNL     1      -7.315   3.466  -0.324  0.00  0.00    +0.068 A 
ATOM     19  C   UNL     1      -8.391   2.480  -0.420  0.00  0.00    -0.023 A 
ATOM     20  C   UNL     1      -7.992   1.196  -0.399  0.00  0.00    -0.004 A 
ATOM     21  S   UNL     1      -6.223   1.274  -0.260  0.00  0.00    -0.077 S 
ATOM     22  C   UNL     1      -9.152   0.242  -0.499  0.00  0.00    +0.043 C 
ATOM     23  C   UNL     1     -10.320   1.106  -1.023  0.00  0.00    +0.010 C 
ATOM     24  C   UNL     1      -9.915   2.511  -0.537  0.00  0.00    +0.037 C 
BRANCH  18  25
ATOM     25  C   UNL     1      -7.600   4.904  -0.329  0.00  0.00    +0.244 C 
ATOM     26  O   UNL     1      -7.640   5.513  -1.382  0.00  0.00    -0.270 OA
ATOM     27  N   UNL     1      -7.817   5.552   0.833  0.00  0.00    -0.325 N 
ATOM     28  H   UNL     1      -8.031   6.631   0.829  0.00  0.00    +0.145 HD
ATOM     29  H   UNL     1      -7.781   5.002   1.784  0.00  0.00    +0.145 HD
ENDBRANCH  18  25
ENDBRANCH   4  17
TORSDOF 3
