REMARK  Name = ZINC41108282
REMARK  10 active torsions:
REMARK  status: ('A' for Active; 'I' for Inactive)
REMARK    1  A    between atoms: C_1  and  C_2
REMARK    2  A    between atoms: C_2  and  O_3
REMARK    3  A    between atoms: O_3  and  C_4
REMARK    4  A    between atoms: C_4  and  C_6
REMARK    5  A    between atoms: C_9  and  C_12
REMARK    6  A    between atoms: C_15  and  C_17
REMARK    7  A    between atoms: C_27  and  C_29
REMARK    8  A    between atoms: C_29  and  O_30
REMARK    9  A    between atoms: O_30  and  C_31
REMARK   10  A    between atoms: C_36  and  C_37
REMARK                            x       y       z     vdW  Elec       q    Type
REMARK                         _______ _______ _______ _____ _____    ______ ____
ROOT
ATOM      1  C   UNL     1     -10.306  -3.907   0.065  0.00  0.00    +0.063 C 
ATOM      2  C   UNL     1     -10.676  -2.576   0.168  0.00  0.00    +0.084 C 
ATOM      3  C   UNL     1     -12.101  -2.166   0.296  0.00  0.00    +0.153 C 
ATOM      4  N   UNL     1     -13.001  -2.882   0.919  0.00  0.00    -0.283 NA
ATOM      5  N   UNL     1     -12.385  -0.930  -0.322  0.00  0.00    -0.152 N 
ATOM      6  C   UNL     1     -11.337  -0.053  -0.504  0.00  0.00    +0.181 C 
ATOM      7  N   UNL     1     -10.069  -0.265  -0.256  0.00  0.00    -0.152 NA
ATOM      8  C   UNL     1      -9.673  -1.486   0.163  0.00  0.00    +0.273 C 
ATOM      9  O   UNL     1      -8.524  -1.687   0.524  0.00  0.00    -0.268 OA
ATOM     10  S   UNL     1     -12.156   1.374  -1.164  0.00  0.00    -0.035 S 
ATOM     11  C   UNL     1     -13.802   0.682  -1.247  0.00  0.00    +0.137 C 
ATOM     12  N   UNL     1     -13.626  -0.510  -0.752  0.00  0.00    -0.166 NA
ATOM     13  H   UNL     1     -13.917  -2.568   0.973  0.00  0.00    +0.188 HD
ENDROOT
BRANCH   1  17
ATOM     14  C   UNL     1      -6.896  -4.062  -0.942  0.00  0.00    +0.136 A 
ATOM     15  C   UNL     1      -7.121  -5.401  -0.700  0.00  0.00    +0.050 A 
ATOM     16  C   UNL     1      -8.447  -5.523  -0.284  0.00  0.00    +0.050 A 
ATOM     17  C   UNL     1      -8.987  -4.246  -0.287  0.00  0.00    +0.129 A 
ATOM     18  O   UNL     1      -8.028  -3.383  -0.684  0.00  0.00    -0.455 OA
BRANCH  14  22
ATOM     19  C   UNL     1      -3.238  -2.364  -2.263  0.00  0.00    +0.059 A 
ATOM     20  C   UNL     1      -4.346  -1.544  -2.031  0.00  0.00    +0.015 A 
ATOM     21  C   UNL     1      -5.527  -2.091  -1.605  0.00  0.00    +0.012 A 
ATOM     22  C   UNL     1      -5.625  -3.472  -1.401  0.00  0.00    +0.017 A 
ATOM     23  C   UNL     1      -4.517  -4.293  -1.633  0.00  0.00    +0.012 A 
ATOM     24  C   UNL     1      -3.337  -3.745  -2.065  0.00  0.00    +0.015 A 
BRANCH  19  25
ATOM     25  C   UNL     1      -1.965  -1.774  -2.723  0.00  0.00    +0.339 C 
ATOM     26  O   UNL     1      -1.004  -2.488  -2.929  0.00  0.00    -0.245 OA
BRANCH  25  27
ATOM     27  O   UNL     1      -1.870  -0.444  -2.913  0.00  0.00    -0.461 OA
BRANCH  27  29
ATOM     28  C   UNL     1      -0.693   1.579  -3.518  0.00  0.00    +0.048 C 
ATOM     29  C   UNL     1      -0.609   0.059  -3.359  0.00  0.00    +0.229 C 
ENDBRANCH  27  29
ENDBRANCH  25  27
ENDBRANCH  19  25
ENDBRANCH  14  22
ENDBRANCH   1  17
BRANCH  11  30
ATOM     30  C   UNL     1     -15.070   1.315  -1.758  0.00  0.00    +0.293 C 
BRANCH  30  31
ATOM     31  O   UNL     1     -16.151   0.389  -1.631  0.00  0.00    -0.485 OA
BRANCH  31  32
ATOM     32  C   UNL     1     -17.374   0.806  -2.050  0.00  0.00    +0.124 A 
ATOM     33  C   UNL     1     -17.531   2.080  -2.578  0.00  0.00    +0.046 A 
ATOM     34  C   UNL     1     -18.775   2.502  -3.004  0.00  0.00    +0.004 A 
ATOM     35  C   UNL     1     -19.865   1.656  -2.904  0.00  0.00    +0.000 A 
ATOM     36  C   UNL     1     -19.712   0.387  -2.378  0.00  0.00    +0.007 A 
ATOM     37  C   UNL     1     -18.468  -0.042  -1.956  0.00  0.00    -0.009 A 
ATOM     38  C   UNL     1     -18.300  -1.428  -1.388  0.00  0.00    +0.047 C 
ENDBRANCH  31  32
ENDBRANCH  30  31
ENDBRANCH  11  30
TORSDOF 8
