REMARK  Name = ZINC02124405
REMARK  7 active torsions:
REMARK  status: ('A' for Active; 'I' for Inactive)
REMARK    1  A    between atoms: C_1  and  C_2
REMARK    2  A    between atoms: C_2  and  C_3
REMARK    3  A    between atoms: C_3  and  C_4
REMARK    4  A    between atoms: C_4  and  N_5
REMARK    5  A    between atoms: N_16  and  C_21
REMARK    6  A    between atoms: C_24  and  C_28
REMARK    7  A    between atoms: C_26  and  C_27
REMARK                            x       y       z     vdW  Elec       q    Type
REMARK                         _______ _______ _______ _____ _____    ______ ____
ROOT
ATOM      1  N   UNL     1       1.131   1.934   0.002  0.00  0.00    -0.259 N 
ATOM      2  C   UNL     1      -0.014   1.212   0.009  0.00  0.00    +0.266 A 
ATOM      3  O   UNL     1       0.002  -0.004   0.002  0.00  0.00    -0.267 OA
ATOM      4  C   UNL     1      -1.281   1.963   0.019  0.00  0.00    +0.083 A 
ATOM      5  C   UNL     1      -2.510   1.335   0.030  0.00  0.00    +0.027 A 
ATOM      6  C   UNL     1      -3.681   2.130   0.045  0.00  0.00    -0.000 A 
ATOM      7  C   UNL     1      -4.947   1.520   0.053  0.00  0.00    +0.010 A 
ATOM      8  C   UNL     1      -6.072   2.291   0.067  0.00  0.00    +0.001 A 
ATOM      9  C   UNL     1      -5.979   3.678   0.074  0.00  0.00    +0.002 A 
ATOM     10  C   UNL     1      -4.750   4.300   0.066  0.00  0.00    +0.027 A 
ATOM     11  C   UNL     1      -3.584   3.536   0.052  0.00  0.00    +0.056 A 
ATOM     12  N   UNL     1      -2.355   4.162   0.044  0.00  0.00    -0.293 N 
ATOM     13  C   UNL     1      -1.206   3.427   0.031  0.00  0.00    +0.156 A 
ATOM     14  N   UNL     1      -0.009   3.998   0.023  0.00  0.00    -0.174 NA
ATOM     15  C   UNL     1       1.106   3.274   0.009  0.00  0.00    +0.353 A 
ATOM     16  O   UNL     1       2.172   3.866   0.003  0.00  0.00    -0.244 OA
ENDROOT
BRANCH  12  17
ATOM     17  C   UNL     1      -2.286   5.559   0.051  0.00  0.00    +0.051 A 
ATOM     18  C   UNL     1      -2.262   6.261  -1.148  0.00  0.00    +0.027 A 
ATOM     19  C   UNL     1      -2.194   7.640  -1.138  0.00  0.00    +0.005 A 
ATOM     20  C   UNL     1      -2.150   8.323   0.063  0.00  0.00    -0.050 A 
ATOM     21  C   UNL     1      -2.174   7.628   1.258  0.00  0.00    +0.008 A 
ATOM     22  C   UNL     1      -2.247   6.249   1.256  0.00  0.00    -0.026 A 
ATOM     23  C   UNL     1      -2.279   5.492   2.559  0.00  0.00    +0.046 C 
ATOM     24  C   UNL     1      -2.077   9.828   0.070  0.00  0.00    +0.044 C 
ENDBRANCH  12  17
BRANCH   1  25
ATOM     25  C   UNL     1       2.420   1.238  -0.014  0.00  0.00    +0.130 C 
BRANCH  25  26
ATOM     26  C   UNL     1       2.855   1.003  -1.462  0.00  0.00    +0.022 C 
BRANCH  26  28
ATOM     27  C   UNL     1       4.637   0.041  -2.926  0.00  0.00    +0.004 C 
ATOM     28  C   UNL     1       4.202   0.276  -1.478  0.00  0.00    -0.002 C 
ENDBRANCH  26  28
ENDBRANCH  25  26
ENDBRANCH   1  25
TORSDOF 4
