REMARK  Name = ZINC25539724
REMARK  7 active torsions:
REMARK  status: ('A' for Active; 'I' for Inactive)
REMARK    1  A    between atoms: C_3  and  N_11
REMARK    2  A    between atoms: C_6  and  C_7
REMARK    3  A    between atoms: C_12  and  C_29
REMARK    4  A    between atoms: C_13  and  C_16
REMARK    5  A    between atoms: N_18  and  C_19
REMARK    6  A    between atoms: N_22  and  C_25
REMARK    7  A    between atoms: C_25  and  C_26
REMARK                            x       y       z     vdW  Elec       q    Type
REMARK                         _______ _______ _______ _____ _____    ______ ____
ROOT
ATOM      1  N   UNL     1      -2.580   2.843   4.513  0.00  0.00    -0.209 N 
ATOM      2  C   UNL     1      -3.573   2.321   5.257  0.00  0.00    +0.161 A 
ATOM      3  C   UNL     1      -3.804   3.189   6.304  0.00  0.00    +0.086 A 
ATOM      4  C   UNL     1      -2.908   4.272   6.155  0.00  0.00    +0.148 A 
ATOM      5  N   UNL     1      -2.186   4.056   5.090  0.00  0.00    -0.172 NA
ENDROOT
BRANCH   1   8
ATOM      6  C   UNL     1      -0.191   1.964   1.870  0.00  0.00    +0.017 A 
ATOM      7  C   UNL     1      -0.718   2.540   3.013  0.00  0.00    +0.049 A 
ATOM      8  C   UNL     1      -2.037   2.274   3.357  0.00  0.00    +0.155 A 
ATOM      9  N   UNL     1      -2.785   1.486   2.601  0.00  0.00    -0.236 NA
ATOM     10  C   UNL     1      -2.313   0.929   1.504  0.00  0.00    +0.125 A 
ATOM     11  C   UNL     1      -1.010   1.149   1.101  0.00  0.00    +0.073 A 
BRANCH  11  12
ATOM     12  C   UNL     1      -0.482   0.507  -0.155  0.00  0.00    +0.419 C 
ATOM     13  F   UNL     1      -1.490  -0.265  -0.743  0.00  0.00    -0.166 F 
ATOM     14  F   UNL     1       0.608  -0.312   0.162  0.00  0.00    -0.166 F 
ATOM     15  F   UNL     1      -0.073   1.501  -1.051  0.00  0.00    -0.166 F 
ENDBRANCH  11  12
ENDBRANCH   1   8
BRANCH   3  16
ATOM     16  C   UNL     1      -4.804   3.022   7.375  0.00  0.00    +0.248 C 
ATOM     17  O   UNL     1      -5.520   2.039   7.390  0.00  0.00    -0.270 OA
ATOM     18  N   UNL     1      -4.924   3.958   8.336  0.00  0.00    -0.309 N 
ATOM     19  H   UNL     1      -4.276   4.847   8.323  0.00  0.00    +0.149 HD
BRANCH  18  20
ATOM     20  C   UNL     1      -5.917   3.792   9.400  0.00  0.00    +0.070 C 
ATOM     21  C   UNL     1      -7.271   4.328   8.925  0.00  0.00    +0.004 C 
ATOM     22  C   UNL     1      -8.289   4.208  10.061  0.00  0.00    -0.076 C 
ATOM     23  N   UNL     1      -7.820   4.973  11.224  0.00  0.00    +0.385 N 
ATOM     24  C   UNL     1      -6.545   4.447  11.727  0.00  0.00    -0.076 C 
ATOM     25  C   UNL     1      -5.475   4.574  10.640  0.00  0.00    +0.004 C 
ATOM     26  H   UNL     1      -7.649   6.009  10.896  0.00  0.00    -0.081 HD
BRANCH  23  27
ATOM     27  C   UNL     1      -8.836   4.995  12.284  0.00  0.00    +0.018 C 
BRANCH  27  28
ATOM     28  C   UNL     1      -8.441   5.998  13.338  0.00  0.00    +0.194 C 
ATOM     29  O   UNL     1      -7.473   6.707  13.167  0.00  0.00    -0.278 OA
ATOM     30  N   UNL     1      -9.165   6.107  14.469  0.00  0.00    -0.331 N 
ATOM     31  H   UNL     1      -8.877   6.839  15.238  0.00  0.00    +0.145 HD
ATOM     32  H   UNL     1     -10.044   5.463  14.624  0.00  0.00    +0.145 HD
ENDBRANCH  27  28
ENDBRANCH  23  27
ENDBRANCH  18  20
ENDBRANCH   3  16
BRANCH   2  33
ATOM     33  C   UNL     1      -4.296   1.025   4.995  0.00  0.00    +0.435 C 
ATOM     34  F   UNL     1      -3.466   0.167   4.266  0.00  0.00    -0.164 F 
ATOM     35  F   UNL     1      -4.632   0.425   6.213  0.00  0.00    -0.164 F 
ATOM     36  F   UNL     1      -5.461   1.280   4.264  0.00  0.00    -0.164 F 
ENDBRANCH   2  33
TORSDOF 7
