REMARK  Name = ZINC04347949
REMARK  5 active torsions:
REMARK  status: ('A' for Active; 'I' for Inactive)
REMARK    1  A    between atoms: C_7  and  N_23
REMARK    2  A    between atoms: C_10  and  N_11
REMARK    3  A    between atoms: N_12  and  C_13
REMARK    4  A    between atoms: C_16  and  S_19
REMARK    5  A    between atoms: S_19  and  N_22
REMARK                            x       y       z     vdW  Elec       q    Type
REMARK                         _______ _______ _______ _____ _____    ______ ____
ROOT
ATOM      1  N   UNL     1       4.886   0.035   0.153  0.00  0.00    -0.149 NA
ATOM      2  N   UNL     1       6.002  -0.601   0.038  0.00  0.00    -0.149 NA
ENDROOT
BRANCH   1  12
ATOM      3  C   UNL     1      -0.154   0.536  -0.185  0.00  0.00    +0.001 A 
ATOM      4  C   UNL     1       0.911   1.165  -0.824  0.00  0.00    +0.001 A 
ATOM      5  C   UNL     1       2.200   0.827  -0.534  0.00  0.00    +0.011 A 
ATOM      6  C   UNL     1       2.457  -0.167   0.417  0.00  0.00    +0.011 A 
ATOM      7  C   UNL     1       1.377  -0.808   1.067  0.00  0.00    +0.005 A 
ATOM      8  C   UNL     1       0.063  -0.435   0.746  0.00  0.00    +0.010 A 
ATOM      9  C   UNL     1       1.641  -1.810   2.027  0.00  0.00    +0.032 A 
ATOM     10  C   UNL     1       2.942  -2.163   2.331  0.00  0.00    +0.025 A 
ATOM     11  C   UNL     1       4.020  -1.556   1.714  0.00  0.00    +0.032 A 
ATOM     12  C   UNL     1       3.825  -0.560   0.758  0.00  0.00    +0.094 A 
BRANCH   9  13
ATOM     13  N   UNL     1       0.587  -2.444   2.670  0.00  0.00    -0.357 N 
ATOM     14  H   UNL     1      -0.327  -2.199   2.459  0.00  0.00    +0.142 HD
ATOM     15  H   UNL     1       0.765  -3.133   3.329  0.00  0.00    +0.142 HD
ENDBRANCH   9  13
ENDBRANCH   1  12
BRANCH   2  16
ATOM     16  C   UNL     1       6.013  -1.968   0.031  0.00  0.00    +0.086 A 
ATOM     17  C   UNL     1       7.210  -2.662   0.231  0.00  0.00    +0.031 A 
ATOM     18  C   UNL     1       7.213  -4.041   0.223  0.00  0.00    +0.030 A 
ATOM     19  C   UNL     1       6.035  -4.737   0.017  0.00  0.00    +0.105 A 
ATOM     20  C   UNL     1       4.846  -4.057  -0.182  0.00  0.00    +0.030 A 
ATOM     21  C   UNL     1       4.826  -2.678  -0.171  0.00  0.00    +0.031 A 
BRANCH  19  22
ATOM     22  S   UNL     1       6.048  -6.499   0.007  0.00  0.00    +0.056 S 
ATOM     23  O   UNL     1       4.917  -6.910  -0.748  0.00  0.00    -0.153 OA
ATOM     24  O   UNL     1       7.372  -6.893  -0.329  0.00  0.00    -0.153 OA
BRANCH  22  25
ATOM     25  N   UNL     1       5.786  -7.000   1.564  0.00  0.00    -0.204 NA
ATOM     26  H   UNL     1       5.661  -6.346   2.269  0.00  0.00    +0.144 HD
ATOM     27  H   UNL     1       5.757  -7.947   1.770  0.00  0.00    +0.144 HD
ENDBRANCH  22  25
ENDBRANCH  19  22
ENDBRANCH   2  16
TORSDOF 5
