REMARK  Name = ZINC13500719
REMARK  16 active torsions:
REMARK  status: ('A' for Active; 'I' for Inactive)
REMARK    1  A    between atoms: C_1  and  C_2
REMARK    2  A    between atoms: C_2  and  C_3
REMARK    3  A    between atoms: C_3  and  C_4
REMARK    4  A    between atoms: C_4  and  C_6
REMARK    5  A    between atoms: C_4  and  N_15
REMARK    6  A    between atoms: N_10  and  C_11
REMARK    7  A    between atoms: C_11  and  C_12
REMARK    8  A    between atoms: C_11  and  C_13
REMARK    9  A    between atoms: C_11  and  C_14
REMARK   10  A    between atoms: N_15  and  C_16
REMARK   11  A    between atoms: N_15  and  C_25
REMARK   12  A    between atoms: C_16  and  C_17
REMARK   13  A    between atoms: C_20  and  O_23
REMARK   14  A    between atoms: O_23  and  C_24
REMARK   15  A    between atoms: C_25  and  C_26
REMARK   16  A    between atoms: C_32  and  C_38
REMARK                            x       y       z     vdW  Elec       q    Type
REMARK                         _______ _______ _______ _____ _____    ______ ____
ROOT
ATOM      1  N   UNL     1      -1.174  -2.006  -0.565  0.00  0.00    -0.284 NA
ENDROOT
BRANCH   1   2
ATOM      2  C   UNL     1      -2.057  -1.534   0.510  0.00  0.00    +0.127 C 
BRANCH   2   3
ATOM      3  C   UNL     1      -2.912  -0.404  -0.002  0.00  0.00    +0.169 A 
ATOM      4  N   UNL     1      -2.545   0.541  -0.832  0.00  0.00    -0.112 NA
ATOM      5  N   UNL     1      -3.556   1.316  -1.026  0.00  0.00    -0.023 NA
ATOM      6  N   UNL     1      -4.558   0.890  -0.340  0.00  0.00    -0.043 NA
ATOM      7  N   UNL     1      -4.203  -0.172   0.301  0.00  0.00    -0.222 N 
BRANCH   7   8
ATOM      8  C   UNL     1      -5.045  -0.973   1.193  0.00  0.00    +0.059 C 
ATOM      9  C   UNL     1      -4.348  -1.133   2.545  0.00  0.00    +0.036 C 
ATOM     10  C   UNL     1      -6.389  -0.270   1.392  0.00  0.00    +0.036 C 
ATOM     11  C   UNL     1      -5.278  -2.352   0.572  0.00  0.00    +0.036 C 
ENDBRANCH   7   8
ENDBRANCH   2   3
BRANCH   2  12
ATOM     12  C   UNL     1      -1.211  -1.042   1.686  0.00  0.00    +0.026 C 
BRANCH  12  14
ATOM     13  C   UNL     1       0.301  -1.755   3.543  0.00  0.00    +0.004 C 
ATOM     14  C   UNL     1      -0.432  -2.216   2.282  0.00  0.00    -0.001 C 
ENDBRANCH  12  14
ENDBRANCH   2  12
ENDBRANCH   1   2
BRANCH   1  15
ATOM     15  C   UNL     1      -0.950  -3.454  -0.464  0.00  0.00    +0.120 C 
BRANCH  15  16
ATOM     16  C   UNL     1      -2.165  -4.188  -0.970  0.00  0.00    -0.033 A 
ATOM     17  C   UNL     1      -3.125  -4.630  -0.080  0.00  0.00    +0.008 A 
ATOM     18  C   UNL     1      -4.240  -5.303  -0.541  0.00  0.00    +0.046 A 
ATOM     19  C   UNL     1      -4.395  -5.534  -1.900  0.00  0.00    +0.120 A 
ATOM     20  C   UNL     1      -3.430  -5.089  -2.792  0.00  0.00    +0.046 A 
ATOM     21  C   UNL     1      -2.320  -4.412  -2.326  0.00  0.00    +0.008 A 
BRANCH  19  22
ATOM     22  O   UNL     1      -5.490  -6.197  -2.357  0.00  0.00    -0.495 OA
ATOM     23  C   UNL     1      -5.584  -6.399  -3.769  0.00  0.00    +0.277 C 
ENDBRANCH  19  22
ENDBRANCH  15  16
ENDBRANCH   1  15
BRANCH   1  24
ATOM     24  C   UNL     1       0.100  -1.274  -0.559  0.00  0.00    +0.126 C 
BRANCH  24  25
ATOM     25  C   UNL     1      -0.101   0.087  -1.174  0.00  0.00    +0.031 A 
ATOM     26  C   UNL     1      -0.119   1.189  -0.383  0.00  0.00    +0.020 A 
ATOM     27  C   UNL     1      -0.315   2.497  -1.011  0.00  0.00    -0.001 A 
ATOM     28  C   UNL     1      -0.342   3.669  -0.248  0.00  0.00    +0.010 A 
ATOM     29  C   UNL     1      -0.527   4.874  -0.864  0.00  0.00    +0.001 A 
ATOM     30  C   UNL     1      -0.689   4.946  -2.241  0.00  0.00    +0.005 A 
ATOM     31  C   UNL     1      -0.666   3.804  -3.012  0.00  0.00    -0.026 A 
ATOM     32  C   UNL     1      -0.478   2.566  -2.407  0.00  0.00    +0.052 A 
ATOM     33  N   UNL     1      -0.450   1.408  -3.155  0.00  0.00    -0.322 N 
ATOM     34  H   UNL     1      -0.563   1.458  -4.117  0.00  0.00    +0.169 HD
ATOM     35  C   UNL     1      -0.264   0.212  -2.570  0.00  0.00    +0.254 A 
ATOM     36  O   UNL     1      -0.240  -0.791  -3.263  0.00  0.00    -0.268 OA
ATOM     37  C   UNL     1      -0.844   3.897  -4.506  0.00  0.00    +0.046 C 
ENDBRANCH  24  25
ENDBRANCH   1  24
TORSDOF 10
