REMARK  Name = ZINC26652958
REMARK  7 active torsions:
REMARK  status: ('A' for Active; 'I' for Inactive)
REMARK    1  A    between atoms: C_3  and  N_32
REMARK    2  A    between atoms: C_4  and  C_10
REMARK    3  A    between atoms: C_6  and  C_7
REMARK    4  A    between atoms: C_10  and  N_11
REMARK    5  A    between atoms: C_14  and  N_18
REMARK    6  A    between atoms: N_18  and  S_19
REMARK    7  A    between atoms: S_19  and  C_22
REMARK                            x       y       z     vdW  Elec       q    Type
REMARK                         _______ _______ _______ _____ _____    ______ ____
ROOT
ATOM      1  N   UNL     1       1.368   4.101  -1.350  0.00  0.00    -0.296 N 
ATOM      2  C   UNL     1       2.687   4.402  -1.917  0.00  0.00    +0.110 C 
ATOM      3  C   UNL     1       2.472   4.460  -3.448  0.00  0.00    +0.049 C 
ATOM      4  C   UNL     1       0.976   4.839  -3.540  0.00  0.00    +0.164 C 
ATOM      5  C   UNL     1       0.388   4.346  -2.236  0.00  0.00    +0.235 C 
ATOM      6  O   UNL     1      -0.796   4.194  -2.022  0.00  0.00    -0.274 OA
ENDROOT
BRANCH   4   7
ATOM      7  N   UNL     1       0.821   6.292  -3.655  0.00  0.00    -0.178 NA
ATOM      8  H   UNL     1       1.448   6.961  -3.048  0.00  0.00    +0.149 HD
BRANCH   7   9
ATOM      9  S   UNL     1      -0.453   6.924  -4.502  0.00  0.00    +0.065 S 
ATOM     10  O   UNL     1      -0.342   8.337  -4.409  0.00  0.00    -0.153 OA
ATOM     11  O   UNL     1      -0.489   6.243  -5.749  0.00  0.00    -0.153 OA
BRANCH   9  12
ATOM     12  C   UNL     1      -1.925   6.476  -3.642  0.00  0.00    +0.145 A 
ATOM     13  C   UNL     1      -2.556   7.152  -2.669  0.00  0.00    +0.064 A 
ATOM     14  C   UNL     1      -3.769   6.598  -2.089  0.00  0.00    +0.082 A 
ATOM     15  C   UNL     1      -4.168   5.359  -2.635  0.00  0.00    +0.040 A 
ATOM     16  S   UNL     1      -2.933   5.023  -3.862  0.00  0.00    -0.067 S 
ATOM     17  C   UNL     1      -5.297   4.701  -2.195  0.00  0.00    +0.020 A 
ATOM     18  C   UNL     1      -6.045   5.292  -1.188  0.00  0.00    +0.041 A 
ATOM     19  C   UNL     1      -5.621   6.511  -0.676  0.00  0.00    +0.130 A 
ATOM     20  N   UNL     1      -4.544   7.115  -1.113  0.00  0.00    -0.235 NA
ATOM     21 CL   UNL     1      -6.549   7.260   0.585  0.00  0.00    -0.062 Cl
ENDBRANCH   9  12
ENDBRANCH   7   9
ENDBRANCH   4   7
BRANCH   1  22
ATOM     22  C   UNL     1       1.147   3.602   0.010  0.00  0.00    +0.144 C 
BRANCH  22  26
ATOM     23  C   UNL     1       1.222  -0.683  -0.013  0.00  0.00    +0.013 A 
ATOM     24  C   UNL     1       2.403   0.025  -0.021  0.00  0.00    +0.024 A 
ATOM     25  C   UNL     1       2.381   1.416  -0.013  0.00  0.00    +0.029 A 
ATOM     26  C   UNL     1       1.167   2.096   0.002  0.00  0.00    -0.009 A 
ATOM     27  C   UNL     1      -0.017   1.392   0.010  0.00  0.00    +0.018 A 
ATOM     28  C   UNL     1       0.002  -0.004   0.002  0.00  0.00    +0.013 A 
BRANCH  28  29
ATOM     29  C   UNL     1      -1.268  -0.762   0.010  0.00  0.00    +0.094 C 
ATOM     30  N   UNL     1      -2.406  -0.127   0.023  0.00  0.00    -0.387 N 
ATOM     31  N   UNL     1      -1.248  -2.140   0.002  0.00  0.00    -0.345 N 
ATOM     32  H   UNL     1      -3.350  -0.691   0.029  0.00  0.00    +0.157 HD
ATOM     33  H   UNL     1      -2.192  -2.704   0.008  0.00  0.00    +0.144 HD
ATOM     34  H   UNL     1      -0.287  -2.676  -0.010  0.00  0.00    +0.144 HD
ATOM     35  H   UNL     1      -2.422   0.973   0.029  0.00  0.00    +0.157 HD
ENDBRANCH  28  29
BRANCH  25  36
ATOM     36  N   UNL     1       3.577   2.130  -0.020  0.00  0.00    -0.358 N 
ATOM     37  H   UNL     1       3.561   3.230  -0.014  0.00  0.00    +0.142 HD
ATOM     38  H   UNL     1       4.537   1.594  -0.032  0.00  0.00    +0.142 HD
ENDBRANCH  25  36
ENDBRANCH  22  26
ENDBRANCH   1  22
TORSDOF 7
