REMARK  Name = ZINC36797466
REMARK  9 active torsions:
REMARK  status: ('A' for Active; 'I' for Inactive)
REMARK    1  A    between atoms: C_1  and  C_2
REMARK    2  A    between atoms: C_2  and  N_3
REMARK    3  A    between atoms: N_3  and  C_4
REMARK    4  A    between atoms: N_3  and  C_9
REMARK    5  A    between atoms: C_4  and  C_5
REMARK    6  A    between atoms: N_7  and  C_8
REMARK    7  A    between atoms: C_9  and  C_10
REMARK    8  A    between atoms: N_12  and  C_13
REMARK    9  A    between atoms: C_16  and  N_20
REMARK                            x       y       z     vdW  Elec       q    Type
REMARK                         _______ _______ _______ _____ _____    ______ ____
ROOT
ATOM      1  C   UNL     1      -0.359  -2.567   1.392  0.00  0.00    +0.201 C 
ATOM      2  O   UNL     1       0.412  -1.824   1.961  0.00  0.00    -0.278 OA
ATOM      3  N   UNL     1      -0.680  -3.755   1.942  0.00  0.00    -0.285 N 
ATOM      4  H   UNL     1      -1.259  -4.370   1.464  0.00  0.00    +0.155 HD
ENDROOT
BRANCH   3   5
ATOM      5  C   UNL     1      -0.178  -4.102   3.204  0.00  0.00    +0.070 A 
ATOM      6  C   UNL     1      -0.171  -3.166   4.231  0.00  0.00    +0.065 A 
ATOM      7  C   UNL     1       0.325  -3.508   5.474  0.00  0.00    +0.044 A 
ATOM      8  C   UNL     1       0.816  -4.788   5.698  0.00  0.00    +0.027 A 
ATOM      9  C   UNL     1       0.809  -5.724   4.672  0.00  0.00    +0.044 A 
ATOM     10  C   UNL     1       0.308  -5.384   3.430  0.00  0.00    +0.065 A 
ATOM     11 CL   UNL     1       0.293  -6.556   2.150  0.00  0.00    -0.082 Cl
ATOM     12 CL   UNL     1      -0.784  -1.566   3.951  0.00  0.00    -0.082 Cl
BRANCH   8  13
ATOM     13  N   UNL     1       1.317  -5.134   6.957  0.00  0.00    -0.358 N 
ATOM     14  H   UNL     1       1.322  -4.480   7.674  0.00  0.00    +0.142 HD
ATOM     15  H   UNL     1       1.660  -6.028   7.114  0.00  0.00    +0.142 HD
ENDBRANCH   8  13
ENDBRANCH   3   5
BRANCH   1  16
ATOM     16  C   UNL     1      -0.959  -2.162   0.070  0.00  0.00    +0.020 C 
BRANCH  16  17
ATOM     17  N   UNL     1      -0.454  -0.836  -0.311  0.00  0.00    +0.391 N 
ATOM     18  H   UNL     1      -0.640  -0.180   0.433  0.00  0.00    -0.080 HD
BRANCH  17  20
ATOM     19  C   UNL     1       1.539   0.490  -0.824  0.00  0.00    -0.017 C 
ATOM     20  C   UNL     1       0.994  -0.912  -0.547  0.00  0.00    -0.081 C 
ENDBRANCH  17  20
BRANCH  17  21
ATOM     21  C   UNL     1      -1.128  -0.390  -1.538  0.00  0.00    +0.019 C 
BRANCH  21  22
ATOM     22  C   UNL     1      -2.582  -0.123  -1.244  0.00  0.00    +0.196 C 
ATOM     23  O   UNL     1      -3.017  -0.299  -0.125  0.00  0.00    -0.278 OA
ATOM     24  N   UNL     1      -3.399   0.310  -2.224  0.00  0.00    -0.320 N 
ATOM     25  C   UNL     1      -4.812   0.569  -1.938  0.00  0.00    +0.128 C 
ATOM     26  H   UNL     1      -3.051   0.451  -3.118  0.00  0.00    +0.148 HD
ENDBRANCH  21  22
ENDBRANCH  17  21
ENDBRANCH  16  17
ENDBRANCH   1  16
TORSDOF 7
