REMARK  Name = ZINC43527862
REMARK  11 active torsions:
REMARK  status: ('A' for Active; 'I' for Inactive)
REMARK    1  A    between atoms: C_1  and  C_2
REMARK    2  A    between atoms: C_2  and  C_3
REMARK    3  A    between atoms: C_3  and  C_4
REMARK    4  A    between atoms: C_3  and  C_6
REMARK    5  A    between atoms: C_4  and  C_5
REMARK    6  A    between atoms: C_8  and  C_18
REMARK    7  A    between atoms: C_10  and  C_12
REMARK    8  A    between atoms: C_27  and  C_29
REMARK    9  A    between atoms: C_29  and  N_30
REMARK   10  A    between atoms: N_30  and  S_31
REMARK   11  A    between atoms: S_31  and  C_34
REMARK                            x       y       z     vdW  Elec       q    Type
REMARK                         _______ _______ _______ _____ _____    ______ ____
ROOT
ATOM      1  C   UNL     1      -0.783  -5.391   1.772  0.00  0.00    +0.024 C 
ATOM      2  C   UNL     1      -1.581  -4.879   2.973  0.00  0.00    -0.068 C 
ATOM      3  N   UNL     1      -3.001  -4.779   2.627  0.00  0.00    +0.383 N 
ATOM      4  C   UNL     1      -3.198  -3.828   1.531  0.00  0.00    -0.078 C 
ATOM      5  C   UNL     1      -2.454  -4.305   0.282  0.00  0.00    -0.015 C 
ATOM      6  C   UNL     1      -1.745  -5.631   0.601  0.00  0.00    -0.007 C 
ATOM      7  C   UNL     1      -2.804  -6.649   1.045  0.00  0.00    -0.010 C 
ATOM      8  C   UNL     1      -3.538  -6.095   2.271  0.00  0.00    -0.053 C 
ATOM      9  H   UNL     1      -3.502  -4.436   3.432  0.00  0.00    -0.081 HD
ENDROOT
BRANCH   1  12
ATOM     10  C   UNL     1       0.952  -2.102   1.123  0.00  0.00    +0.048 A 
ATOM     11  C   UNL     1      -0.025  -3.012   1.498  0.00  0.00    +0.047 A 
ATOM     12  C   UNL     1       0.249  -4.366   1.377  0.00  0.00    +0.047 A 
ATOM     13  N   UNL     1       1.426  -4.747   0.911  0.00  0.00    -0.232 NA
ATOM     14  C   UNL     1       2.338  -3.851   0.562  0.00  0.00    +0.160 A 
ATOM     15  N   UNL     1       2.106  -2.550   0.660  0.00  0.00    -0.232 NA
BRANCH  14  16
ATOM     16  C   UNL     1       3.648  -4.316   0.043  0.00  0.00    +0.022 A 
ATOM     17  C   UNL     1       3.926  -5.680  -0.086  0.00  0.00    +0.031 A 
ATOM     18  C   UNL     1       5.158  -6.069  -0.573  0.00  0.00    +0.111 A 
ATOM     19  N   UNL     1       6.065  -5.174  -0.914  0.00  0.00    -0.263 NA
ATOM     20  C   UNL     1       5.843  -3.878  -0.808  0.00  0.00    +0.111 A 
ATOM     21  C   UNL     1       4.636  -3.403  -0.336  0.00  0.00    +0.031 A 
ENDBRANCH  14  16
BRANCH  10  22
ATOM     22  C   UNL     1       0.699  -0.621   1.237  0.00  0.00    +0.037 C 
BRANCH  22  24
ATOM     23  C   UNL     1       0.882  -0.280  -1.232  0.00  0.00    +0.004 C 
ATOM     24  C   UNL     1      -0.033  -0.131  -0.014  0.00  0.00    +0.006 C 
ENDBRANCH  22  24
BRANCH  22  25
ATOM     25  C   UNL     1      -0.161  -0.344   2.472  0.00  0.00    +0.006 C 
ATOM     26  C   UNL     1      -0.296   1.167   2.671  0.00  0.00    +0.004 C 
ENDBRANCH  22  25
ENDBRANCH  10  22
ENDBRANCH   1  12
BRANCH   8  27
ATOM     27  C   UNL     1      -5.029  -5.965   1.954  0.00  0.00    +0.091 C 
BRANCH  27  28
ATOM     28  N   UNL     1      -5.716  -5.338   3.087  0.00  0.00    -0.191 NA
ATOM     29  H   UNL     1      -5.275  -5.277   3.948  0.00  0.00    +0.148 HD
BRANCH  28  30
ATOM     30  S   UNL     1      -7.246  -4.734   2.896  0.00  0.00    +0.065 S 
ATOM     31  O   UNL     1      -7.643  -4.225   4.162  0.00  0.00    -0.153 OA
ATOM     32  O   UNL     1      -7.222  -3.930   1.724  0.00  0.00    -0.153 OA
BRANCH  30  33
ATOM     33  C   UNL     1      -8.306  -6.099   2.548  0.00  0.00    +0.142 A 
ATOM     34  C   UNL     1      -9.001  -6.881   3.409  0.00  0.00    +0.036 A 
ATOM     35  C   UNL     1      -9.778  -7.907   2.905  0.00  0.00    +0.010 A 
ATOM     36  C   UNL     1      -9.822  -8.100   1.565  0.00  0.00    +0.047 A 
ATOM     37  S   UNL     1      -8.748  -6.805   0.969  0.00  0.00    -0.077 S 
ENDBRANCH  30  33
ENDBRANCH  28  30
ENDBRANCH  27  28
ENDBRANCH   8  27
TORSDOF 9
