REMARK  Name = ZINC08156576
REMARK  4 active torsions:
REMARK  status: ('A' for Active; 'I' for Inactive)
REMARK    1  A    between atoms: C_4  and  C_7
REMARK    2  A    between atoms: N_18  and  C_19
REMARK    3  A    between atoms: C_19  and  C_20
REMARK    4  A    between atoms: N_22  and  N_23
REMARK                            x       y       z     vdW  Elec       q    Type
REMARK                         _______ _______ _______ _____ _____    ______ ____
ROOT
ATOM      1  C   UNL     1       3.550  -0.744  -0.061  0.00  0.00    +0.140 C 
ATOM      2  C   UNL     1       3.816  -1.216  -1.472  0.00  0.00    +0.000 A 
ATOM      3  C   UNL     1       3.733  -0.354  -2.541  0.00  0.00    +0.027 A 
ATOM      4  C   UNL     1       3.984  -0.823  -3.821  0.00  0.00    +0.041 A 
ATOM      5  C   UNL     1       4.317  -2.151  -4.019  0.00  0.00    +0.022 A 
ATOM      6  C   UNL     1       4.400  -3.017  -2.946  0.00  0.00    +0.025 A 
ATOM      7  C   UNL     1       4.150  -2.552  -1.662  0.00  0.00    +0.040 A 
ATOM      8  N   UNL     1       4.231  -3.411  -0.565  0.00  0.00    -0.269 N 
ATOM      9  C   UNL     1       3.999  -3.011   0.692  0.00  0.00    +0.308 C 
ATOM     10  O   UNL     1       4.093  -3.829   1.587  0.00  0.00    -0.252 OA
ATOM     11  N   UNL     1       3.667  -1.748   1.010  0.00  0.00    -0.265 N 
ATOM     12 CL   UNL     1       3.880   0.258  -5.176  0.00  0.00    -0.084 Cl
ATOM     13  H   UNL     1       4.466  -4.340  -0.720  0.00  0.00    +0.156 HD
ENDROOT
BRANCH   1  17
ATOM     14  C   UNL     1      -0.406   0.864   0.065  0.00  0.00    +0.000 A 
ATOM     15  C   UNL     1       0.681   1.710  -0.044  0.00  0.00    +0.000 A 
ATOM     16  C   UNL     1       1.962   1.190  -0.084  0.00  0.00    +0.006 A 
ATOM     17  C   UNL     1       2.155  -0.177  -0.016  0.00  0.00    -0.022 A 
ATOM     18  C   UNL     1       1.068  -1.024   0.093  0.00  0.00    +0.006 A 
ATOM     19  C   UNL     1      -0.213  -0.504   0.132  0.00  0.00    +0.000 A 
ENDBRANCH   1  17
BRANCH  11  20
ATOM     20  C   UNL     1       3.425  -1.375   2.406  0.00  0.00    +0.207 C 
BRANCH  20  21
ATOM     21  C   UNL     1       4.729  -0.986   3.055  0.00  0.00    +0.244 C 
ATOM     22  O   UNL     1       5.742  -0.925   2.392  0.00  0.00    -0.273 OA
ATOM     23  N   UNL     1       4.768  -0.705   4.373  0.00  0.00    -0.252 N 
ATOM     24  H   UNL     1       3.958  -0.753   4.903  0.00  0.00    +0.169 HD
BRANCH  23  25
ATOM     25  N   UNL     1       5.949  -0.352   4.961  0.00  0.00    -0.254 NA
ATOM     26  H   UNL     1       5.824  -0.172   5.946  0.00  0.00    +0.140 HD
ATOM     27  H   UNL     1       6.654  -1.058   4.809  0.00  0.00    +0.140 HD
ENDBRANCH  23  25
ENDBRANCH  20  21
ENDBRANCH  11  20
TORSDOF 4
