REMARK  Name = ZINC52812007
REMARK  1 active torsions:
REMARK  status: ('A' for Active; 'I' for Inactive)
REMARK    1  A    between atoms: C_9  and  C_11
REMARK                            x       y       z     vdW  Elec       q    Type
REMARK                         _______ _______ _______ _____ _____    ______ ____
ROOT
ATOM      1  C   UNL     1      -0.017   1.384   0.010  0.00  0.00    +0.019 A 
ATOM      2  C   UNL     1       1.159   2.104   0.002  0.00  0.00    +0.048 A 
ATOM      3  C   UNL     1       2.379   1.442  -0.013  0.00  0.00    +0.136 A 
ATOM      4  C   UNL     1       2.399   0.035  -0.021  0.00  0.00    +0.022 A 
ATOM      5  C   UNL     1       1.201  -0.682  -0.013  0.00  0.00    +0.027 A 
ATOM      6  C   UNL     1       0.002  -0.004   0.002  0.00  0.00    +0.019 A 
ATOM      7 BR   UNL     1      -1.625  -0.968   0.013  0.00  0.00    -0.050 Br
ATOM      8  C   UNL     1       3.814  -0.341  -0.037  0.00  0.00    +0.060 A 
ATOM      9  C   UNL     1       4.511   0.821  -0.038  0.00  0.00    +0.155 A 
ATOM     10  O   UNL     1       3.659   1.865  -0.024  0.00  0.00    -0.453 OA
ENDROOT
BRANCH   9  11
ATOM     11  C   UNL     1       5.984   0.926  -0.051  0.00  0.00    +0.111 A 
ATOM     12  C   UNL     1       6.607   2.180  -0.045  0.00  0.00    +0.051 A 
ATOM     13  C   UNL     1       7.989   2.228  -0.058  0.00  0.00    +0.116 A 
ATOM     14  N   UNL     1       8.677   1.097  -0.076  0.00  0.00    -0.223 NA
ATOM     15  C   UNL     1       8.062  -0.077  -0.082  0.00  0.00    +0.213 A 
ATOM     16  N   UNL     1       6.742  -0.171  -0.064  0.00  0.00    -0.212 NA
ATOM     17  N   UNL     1       8.819  -1.235  -0.101  0.00  0.00    -0.327 N 
ATOM     18  H   UNL     1       9.788  -1.181  -0.110  0.00  0.00    +0.145 HD
ATOM     19  H   UNL     1       8.382  -2.101  -0.105  0.00  0.00    +0.145 HD
ENDBRANCH   9  11
TORSDOF 1
