REMARK  Name = ZINC19849429
REMARK  9 active torsions:
REMARK  status: ('A' for Active; 'I' for Inactive)
REMARK    1  A    between atoms: C_4  and  C_7
REMARK    2  A    between atoms: C_7  and  O_8
REMARK    3  A    between atoms: O_8  and  C_9
REMARK    4  A    between atoms: C_13  and  C_15
REMARK    5  A    between atoms: N_16  and  N_17
REMARK    6  A    between atoms: C_18  and  C_20
REMARK    7  A    between atoms: C_20  and  N_21
REMARK    8  A    between atoms: N_24  and  C_27
REMARK    9  A    between atoms: C_27  and  C_28
REMARK                            x       y       z     vdW  Elec       q    Type
REMARK                         _______ _______ _______ _____ _____    ______ ____
ROOT
ATOM      1  N   UNL     1      -3.778   1.994  -0.298  0.00  0.00    -0.209 N 
ATOM      2  C   UNL     1      -4.903   1.268  -0.455  0.00  0.00    +0.216 C 
ATOM      3  O   UNL     1      -5.964   1.826  -0.639  0.00  0.00    -0.276 OA
ATOM      4  H   UNL     1      -2.816   1.488  -0.132  0.00  0.00    +0.177 HD
ENDROOT
BRANCH   1   6
ATOM      5  C   UNL     1      -2.739   4.088  -0.317  0.00  0.00    +0.138 C 
ATOM      6  N   UNL     1      -3.835   3.393  -0.347  0.00  0.00    -0.188 NA
BRANCH   5  11
ATOM      7  C   UNL     1       0.929   3.536  -0.910  0.00  0.00    +0.122 A 
ATOM      8  C   UNL     1       0.907   2.352  -1.636  0.00  0.00    +0.046 A 
ATOM      9  C   UNL     1      -0.296   1.738  -1.931  0.00  0.00    +0.004 A 
ATOM     10  C   UNL     1      -1.484   2.300  -1.510  0.00  0.00    +0.010 A 
ATOM     11  C   UNL     1      -1.472   3.487  -0.774  0.00  0.00    -0.002 A 
ATOM     12  C   UNL     1      -0.256   4.106  -0.477  0.00  0.00    +0.055 A 
BRANCH   7  13
ATOM     13  O   UNL     1       2.115   4.135  -0.624  0.00  0.00    -0.487 OA
BRANCH  13  14
ATOM     14  C   UNL     1       3.298   3.492  -1.101  0.00  0.00    +0.264 C 
BRANCH  14  18
ATOM     15  C   UNL     1       6.722   5.767   0.060  0.00  0.00    +0.000 A 
ATOM     16  C   UNL     1       6.239   4.773   0.890  0.00  0.00    +0.000 A 
ATOM     17  C   UNL     1       5.131   4.037   0.514  0.00  0.00    +0.007 A 
ATOM     18  C   UNL     1       4.506   4.295  -0.692  0.00  0.00    -0.010 A 
ATOM     19  C   UNL     1       4.993   5.285  -1.524  0.00  0.00    +0.007 A 
ATOM     20  C   UNL     1       6.098   6.025  -1.146  0.00  0.00    +0.000 A 
ENDBRANCH  14  18
ENDBRANCH  13  14
ENDBRANCH   7  13
ENDBRANCH   5  11
ENDBRANCH   1   6
BRANCH   2  21
ATOM     21  C   UNL     1      -4.842  -0.237  -0.403  0.00  0.00    +0.020 C 
BRANCH  21  22
ATOM     22  N   UNL     1      -6.189  -0.788  -0.600  0.00  0.00    +0.387 N 
ATOM     23  C   UNL     1      -7.071  -0.438   0.522  0.00  0.00    -0.063 C 
ATOM     24  C   UNL     1      -8.482  -0.962   0.242  0.00  0.00    +0.066 C 
ATOM     25  N   UNL     1      -8.432  -2.418   0.050  0.00  0.00    -0.302 NA
ATOM     26  C   UNL     1      -7.550  -2.768  -1.072  0.00  0.00    +0.066 C 
ATOM     27  C   UNL     1      -6.139  -2.244  -0.792  0.00  0.00    -0.063 C 
ATOM     28  H   UNL     1      -6.607  -0.339  -1.513  0.00  0.00    -0.081 HD
BRANCH  25  29
ATOM     29  C   UNL     1      -9.779  -2.969  -0.147  0.00  0.00    +0.120 C 
BRANCH  29  30
ATOM     30  C   UNL     1     -10.680  -2.505   0.968  0.00  0.00    -0.015 A 
ATOM     31  C   UNL     1     -11.653  -1.554   0.720  0.00  0.00    +0.006 A 
ATOM     32  C   UNL     1     -12.482  -1.131   1.742  0.00  0.00    +0.000 A 
ATOM     33  C   UNL     1     -12.333  -1.651   3.014  0.00  0.00    +0.001 A 
ATOM     34  C   UNL     1     -11.358  -2.598   3.264  0.00  0.00    +0.020 A 
ATOM     35  C   UNL     1     -10.530  -3.025   2.241  0.00  0.00    +0.045 A 
ATOM     36 CL   UNL     1      -9.304  -4.213   2.554  0.00  0.00    -0.083 Cl
ENDBRANCH  29  30
ENDBRANCH  25  29
ENDBRANCH  21  22
ENDBRANCH   2  21
TORSDOF 9
