REMARK  Name = ZINC39266380
REMARK  9 active torsions:
REMARK  status: ('A' for Active; 'I' for Inactive)
REMARK    1  A    between atoms: C_1  and  N_2
REMARK    2  A    between atoms: C_3  and  N_13
REMARK    3  A    between atoms: C_5  and  C_7
REMARK    4  A    between atoms: C_14  and  C_16
REMARK    5  A    between atoms: C_16  and  N_17
REMARK    6  A    between atoms: C_21  and  C_23
REMARK    7  A    between atoms: N_25  and  C_26
REMARK    8  A    between atoms: C_26  and  C_27
REMARK    9  A    between atoms: C_26  and  C_33
REMARK                            x       y       z     vdW  Elec       q    Type
REMARK                         _______ _______ _______ _____ _____    ______ ____
ROOT
ATOM      1  N   UNL     1       0.002  -1.952  -5.761  0.00  0.00    +0.393 N 
ATOM      2  C   UNL     1       1.283  -2.676  -5.620  0.00  0.00    -0.077 C 
ATOM      3  C   UNL     1       1.613  -3.179  -7.048  0.00  0.00    -0.020 C 
ATOM      4  C   UNL     1       1.117  -1.994  -7.919  0.00  0.00    -0.008 C 
ATOM      5  C   UNL     1      -0.132  -1.502  -7.158  0.00  0.00    +0.020 C 
ATOM      6  H   UNL     1      -0.762  -2.570  -5.528  0.00  0.00    -0.080 HD
ENDROOT
BRANCH   5   7
ATOM      7  C   UNL     1      -1.373  -2.097  -7.772  0.00  0.00    +0.200 C 
ATOM      8  O   UNL     1      -2.084  -2.827  -7.115  0.00  0.00    -0.278 OA
ATOM      9  N   UNL     1      -1.693  -1.817  -9.051  0.00  0.00    -0.306 N 
ATOM     10  H   UNL     1      -1.125  -1.233  -9.576  0.00  0.00    +0.150 HD
BRANCH   9  11
ATOM     11  C   UNL     1      -2.900  -2.395  -9.647  0.00  0.00    +0.133 C 
BRANCH  11  12
ATOM     12  C   UNL     1      -3.373  -1.516 -10.777  0.00  0.00    -0.023 A 
ATOM     13  C   UNL     1      -2.455  -0.945 -11.638  0.00  0.00    +0.006 A 
ATOM     14  C   UNL     1      -2.889  -0.138 -12.674  0.00  0.00    +0.000 A 
ATOM     15  C   UNL     1      -4.240   0.095 -12.849  0.00  0.00    +0.000 A 
ATOM     16  C   UNL     1      -5.157  -0.477 -11.988  0.00  0.00    +0.000 A 
ATOM     17  C   UNL     1      -4.724  -1.287 -10.955  0.00  0.00    +0.006 A 
ENDBRANCH  11  12
BRANCH  11  18
ATOM     18  C   UNL     1      -2.588  -3.771 -10.178  0.00  0.00    -0.023 A 
ATOM     19  C   UNL     1      -1.385  -4.010 -10.815  0.00  0.00    +0.006 A 
ATOM     20  C   UNL     1      -1.099  -5.272 -11.302  0.00  0.00    +0.000 A 
ATOM     21  C   UNL     1      -2.016  -6.295 -11.151  0.00  0.00    +0.000 A 
ATOM     22  C   UNL     1      -3.219  -6.056 -10.514  0.00  0.00    +0.000 A 
ATOM     23  C   UNL     1      -3.503  -4.795 -10.023  0.00  0.00    +0.006 A 
ENDBRANCH  11  18
ENDBRANCH   9  11
ENDBRANCH   5   7
BRANCH   1  24
ATOM     24  C   UNL     1      -0.010  -0.789  -4.863  0.00  0.00    +0.020 C 
BRANCH  24  26
ATOM     25  N   UNL     1      -0.004  -0.361  -2.427  0.00  0.00    -0.272 N 
ATOM     26  C   UNL     1       0.003  -1.260  -3.432  0.00  0.00    +0.202 C 
ATOM     27  O   UNL     1       0.021  -2.447  -3.183  0.00  0.00    -0.278 OA
ATOM     28  H   UNL     1      -0.019   0.588  -2.626  0.00  0.00    +0.156 HD
BRANCH  25  31
ATOM     29  C   UNL     1      -0.018   1.461   0.010  0.00  0.00    +0.174 C 
ATOM     30  N   UNL     1       0.002  -0.004   0.002  0.00  0.00    -0.253 N 
ATOM     31  C   UNL     1       0.008  -0.796  -1.102  0.00  0.00    +0.123 A 
ATOM     32  C   UNL     1       0.027  -2.089  -0.683  0.00  0.00    +0.073 A 
ATOM     33  C   UNL     1       0.034  -2.085   0.724  0.00  0.00    +0.095 A 
ATOM     34  N   UNL     1       0.025  -0.833   1.131  0.00  0.00    -0.170 NA
BRANCH  33  35
ATOM     35  C   UNL     1       0.053  -3.284   1.599  0.00  0.00    +0.002 A 
ATOM     36  C   UNL     1       0.073  -4.559   1.037  0.00  0.00    +0.010 A 
ATOM     37  C   UNL     1       0.092  -5.670   1.854  0.00  0.00    +0.001 A 
ATOM     38  C   UNL     1       0.090  -5.521   3.229  0.00  0.00    +0.000 A 
ATOM     39  C   UNL     1       0.069  -4.258   3.793  0.00  0.00    +0.001 A 
ATOM     40  C   UNL     1       0.058  -3.139   2.984  0.00  0.00    +0.010 A 
ENDBRANCH  33  35
ENDBRANCH  25  31
ENDBRANCH  24  26
ENDBRANCH   1  24
TORSDOF 8
