REMARK  Name = ZINC57421687
REMARK  11 active torsions:
REMARK  status: ('A' for Active; 'I' for Inactive)
REMARK    1  A    between atoms: C_1  and  C_2
REMARK    2  A    between atoms: C_2  and  C_3
REMARK    3  A    between atoms: C_8  and  N_9
REMARK    4  A    between atoms: C_12  and  C_17
REMARK    5  A    between atoms: C_17  and  S_18
REMARK    6  A    between atoms: S_18  and  C_19
REMARK    7  A    between atoms: C_19  and  C_20
REMARK    8  A    between atoms: N_22  and  C_23
REMARK    9  A    between atoms: C_26  and  C_29
REMARK   10  A    between atoms: N_31  and  C_32
REMARK   11  A    between atoms: N_31  and  C_33
REMARK                            x       y       z     vdW  Elec       q    Type
REMARK                         _______ _______ _______ _____ _____    ______ ____
ROOT
ATOM      1  N   UNL     1      -2.996  -0.609  -3.127  0.00  0.00    -0.283 N 
ATOM      2  C   UNL     1      -3.507  -0.857  -4.386  0.00  0.00    +0.224 A 
ATOM      3  N   UNL     1      -2.773  -0.596  -5.466  0.00  0.00    -0.198 NA
ATOM      4  C   UNL     1      -3.261  -0.832  -6.671  0.00  0.00    +0.146 A 
ATOM      5  N   UNL     1      -4.478  -1.327  -6.810  0.00  0.00    -0.199 NA
ATOM      6  C   UNL     1      -5.218  -1.590  -5.735  0.00  0.00    +0.217 A 
ATOM      7  N   UNL     1      -4.729  -1.359  -4.521  0.00  0.00    -0.181 NA
ATOM      8  N   UNL     1      -6.489  -2.106  -5.880  0.00  0.00    -0.327 N 
ATOM      9  H   UNL     1      -2.126  -0.192  -3.030  0.00  0.00    +0.155 HD
ATOM     10  H   UNL     1      -6.844  -2.278  -6.767  0.00  0.00    +0.145 HD
ATOM     11  H   UNL     1      -7.028  -2.298  -5.097  0.00  0.00    +0.145 HD
ENDROOT
BRANCH   1  17
ATOM     12  C   UNL     1      -3.081  -1.404  -0.848  0.00  0.00    -0.026 A 
ATOM     13  C   UNL     1      -3.812  -1.745   0.273  0.00  0.00    +0.005 A 
ATOM     14  C   UNL     1      -5.191  -1.651   0.256  0.00  0.00    +0.000 A 
ATOM     15  C   UNL     1      -5.844  -1.215  -0.883  0.00  0.00    +0.002 A 
ATOM     16  C   UNL     1      -5.119  -0.873  -2.007  0.00  0.00    +0.023 A 
ATOM     17  C   UNL     1      -3.733  -0.961  -1.992  0.00  0.00    +0.037 A 
BRANCH  12  19
ATOM     18  C   UNL     1      -0.979  -0.146  -0.466  0.00  0.00    +0.009 C 
ATOM     19  C   UNL     1      -1.578  -1.506  -0.829  0.00  0.00    +0.033 C 
ENDBRANCH  12  19
ENDBRANCH   1  17
BRANCH   4  20
ATOM     20  C   UNL     1      -2.426  -0.536  -7.891  0.00  0.00    +0.145 C 
BRANCH  20  21
ATOM     21  S   UNL     1      -1.453  -2.003  -8.328  0.00  0.00    -0.144 S 
BRANCH  21  22
ATOM     22  C   UNL     1      -0.518  -1.488  -9.795  0.00  0.00    +0.165 C 
BRANCH  22  23
ATOM     23  C   UNL     1       0.344  -2.630 -10.268  0.00  0.00    +0.227 C 
ATOM     24  O   UNL     1       0.330  -3.687  -9.674  0.00  0.00    -0.275 OA
ATOM     25  N   UNL     1       1.132  -2.476 -11.351  0.00  0.00    -0.285 N 
ATOM     26  H   UNL     1       1.202  -1.609 -11.780  0.00  0.00    +0.155 HD
BRANCH  25  27
ATOM     27  C   UNL     1       1.845  -3.563 -11.854  0.00  0.00    +0.033 A 
ATOM     28  C   UNL     1       1.356  -4.854 -11.681  0.00  0.00    +0.024 A 
ATOM     29  C   UNL     1       2.057  -5.930 -12.177  0.00  0.00    +0.015 A 
ATOM     30  C   UNL     1       3.262  -5.724 -12.855  0.00  0.00    +0.037 A 
ATOM     31  C   UNL     1       3.750  -4.426 -13.027  0.00  0.00    +0.015 A 
ATOM     32  C   UNL     1       3.041  -3.355 -12.533  0.00  0.00    +0.024 A 
BRANCH  30  33
ATOM     33  C   UNL     1       4.017  -6.875 -13.387  0.00  0.00    +0.246 C 
ATOM     34  O   UNL     1       4.623  -6.772 -14.436  0.00  0.00    -0.270 OA
ATOM     35  N   UNL     1       4.034  -8.041 -12.711  0.00  0.00    -0.304 N 
ATOM     36  C   UNL     1       4.870  -9.148 -13.181  0.00  0.00    +0.132 C 
ATOM     37  C   UNL     1       3.216  -8.201 -11.506  0.00  0.00    +0.132 C 
ENDBRANCH  30  33
ENDBRANCH  25  27
ENDBRANCH  22  23
ENDBRANCH  21  22
ENDBRANCH  20  21
ENDBRANCH   4  20
TORSDOF 8
