REMARK  Name = ZINC30977825
REMARK  13 active torsions:
REMARK  status: ('A' for Active; 'I' for Inactive)
REMARK    1  A    between atoms: C_1  and  C_2
REMARK    2  A    between atoms: C_2  and  C_3
REMARK    3  A    between atoms: C_2  and  C_4
REMARK    4  A    between atoms: C_2  and  C_5
REMARK    5  A    between atoms: C_8  and  C_11
REMARK    6  A    between atoms: C_13  and  C_16
REMARK    7  A    between atoms: C_16  and  N_17
REMARK    8  A    between atoms: C_20  and  C_23
REMARK    9  A    between atoms: N_25  and  C_26
REMARK   10  A    between atoms: C_26  and  C_27
REMARK   11  A    between atoms: C_27  and  C_28
REMARK   12  A    between atoms: C_28  and  S_29
REMARK   13  A    between atoms: S_29  and  C_30
REMARK                            x       y       z     vdW  Elec       q    Type
REMARK                         _______ _______ _______ _____ _____    ______ ____
ROOT
ATOM      1  N   UNL     1      -3.851   2.500   1.313  0.00  0.00    +0.386 N 
ATOM      2  C   UNL     1      -3.812   1.686   0.091  0.00  0.00    -0.077 C 
ATOM      3  C   UNL     1      -2.481   0.935   0.019  0.00  0.00    -0.006 C 
ATOM      4  C   UNL     1      -1.330   1.944   0.019  0.00  0.00    +0.071 C 
ATOM      5  C   UNL     1      -1.421   2.811   1.278  0.00  0.00    -0.006 C 
ATOM      6  C   UNL     1      -2.783   3.508   1.313  0.00  0.00    -0.077 C 
ATOM      7  H   UNL     1      -3.679   1.829   2.167  0.00  0.00    -0.081 HD
ENDROOT
BRANCH   4   8
ATOM      8  C   UNL     1      -0.014   1.209   0.009  0.00  0.00    +0.216 C 
ATOM      9  O   UNL     1       0.002  -0.004   0.002  0.00  0.00    -0.276 OA
ATOM     10  N   UNL     1       1.143   1.898   0.001  0.00  0.00    -0.315 N 
ATOM     11  H   UNL     1       1.129   2.998   0.007  0.00  0.00    +0.149 HD
BRANCH  10  12
ATOM     12  C   UNL     1       2.422   1.183  -0.015  0.00  0.00    +0.105 C 
BRANCH  12  13
ATOM     13  C   UNL     1       3.571   2.193  -0.020  0.00  0.00    +0.029 C 
BRANCH  13  14
ATOM     14  C   UNL     1       4.907   1.446  -0.037  0.00  0.00    +0.071 C 
BRANCH  14  15
ATOM     15  S   UNL     1       6.269   2.644  -0.044  0.00  0.00    -0.157 S 
BRANCH  15  16
ATOM     16  C   UNL     1       7.761   1.611  -0.063  0.00  0.00    +0.046 C 
ATOM     17  C   UNL     1       7.845   0.813   1.239  0.00  0.00    +0.014 C 
ATOM     18  C   UNL     1       9.103  -0.058   1.222  0.00  0.00    +0.001 C 
ATOM     19  C   UNL     1      10.339   0.834   1.089  0.00  0.00    +0.000 C 
ATOM     20  C   UNL     1      10.254   1.632  -0.213  0.00  0.00    +0.001 C 
ATOM     21  C   UNL     1       8.996   2.503  -0.196  0.00  0.00    +0.014 C 
ENDBRANCH  15  16
ENDBRANCH  14  15
ENDBRANCH  13  14
ENDBRANCH  12  13
ENDBRANCH  10  12
ENDBRANCH   4   8
BRANCH   1  22
ATOM     22  C   UNL     1      -5.168   3.127   1.486  0.00  0.00    +0.022 C 
BRANCH  22  25
ATOM     23  C   UNL     1      -5.162   5.076   4.505  0.00  0.00    +0.202 A 
ATOM     24  N   UNL     1      -4.917   4.970   3.180  0.00  0.00    -0.193 NA
ATOM     25  C   UNL     1      -5.253   3.747   2.857  0.00  0.00    +0.211 A 
ATOM     26  O   UNL     1      -5.691   3.152   3.971  0.00  0.00    -0.340 OA
ATOM     27  N   UNL     1      -5.628   3.922   4.905  0.00  0.00    -0.056 NA
BRANCH  23  31
ATOM     28  C   UNL     1      -4.531   8.518   6.922  0.00  0.00    -0.042 A 
ATOM     29  C   UNL     1      -5.035   7.362   7.489  0.00  0.00    +0.005 A 
ATOM     30  C   UNL     1      -5.242   6.242   6.709  0.00  0.00    +0.012 A 
ATOM     31  C   UNL     1      -4.942   6.278   5.349  0.00  0.00    +0.022 A 
ATOM     32  C   UNL     1      -4.430   7.444   4.784  0.00  0.00    +0.012 A 
ATOM     33  C   UNL     1      -4.231   8.560   5.572  0.00  0.00    +0.005 A 
BRANCH  28  35
ATOM     34  C   UNL     1      -3.310   9.404   8.890  0.00  0.00    +0.015 C 
ATOM     35  C   UNL     1      -4.307   9.738   7.778  0.00  0.00    -0.013 C 
ATOM     36  C   UNL     1      -3.748  10.871   6.916  0.00  0.00    +0.015 C 
ATOM     37  C   UNL     1      -5.635  10.177   8.399  0.00  0.00    +0.015 C 
ENDBRANCH  28  35
ENDBRANCH  23  31
ENDBRANCH  22  25
ENDBRANCH   1  22
TORSDOF 10
