REMARK  Name = ZINC23464277
REMARK  13 active torsions:
REMARK  status: ('A' for Active; 'I' for Inactive)
REMARK    1  A    between atoms: C_1  and  C_2
REMARK    2  A    between atoms: C_5  and  N_8
REMARK    3  A    between atoms: C_9  and  C_28
REMARK    4  A    between atoms: C_12  and  S_13
REMARK    5  A    between atoms: S_13  and  C_14
REMARK    6  A    between atoms: C_14  and  C_16
REMARK    7  A    between atoms: C_14  and  C_17
REMARK    8  A    between atoms: N_19  and  C_20
REMARK    9  A    between atoms: N_24  and  C_25
REMARK   10  A    between atoms: C_25  and  C_26
REMARK   11  A    between atoms: C_25  and  C_27
REMARK   12  A    between atoms: C_31  and  O_34
REMARK   13  A    between atoms: O_34  and  C_35
REMARK                            x       y       z     vdW  Elec       q    Type
REMARK                         _______ _______ _______ _____ _____    ______ ____
ROOT
ATOM      1  N   UNL     1       0.037  -4.173  -0.058  0.00  0.00    -0.270 N 
ATOM      2  C   UNL     1      -0.880  -5.021   0.523  0.00  0.00    +0.169 A 
ATOM      3  N   UNL     1      -0.451  -6.246   0.326  0.00  0.00    -0.128 NA
ATOM      4  N   UNL     1       0.654  -6.225  -0.329  0.00  0.00    -0.122 NA
ATOM      5  C   UNL     1       0.998  -4.985  -0.597  0.00  0.00    +0.197 A 
ENDROOT
BRANCH   1  10
ATOM      6  C   UNL     1      -0.147   1.498  -0.210  0.00  0.00    +0.044 C 
ATOM      7  C   UNL     1      -0.099  -0.008  -0.170  0.00  0.00    -0.050 A 
ATOM      8  C   UNL     1      -0.262  -0.735  -1.335  0.00  0.00    +0.005 A 
ATOM      9  C   UNL     1      -0.218  -2.115  -1.301  0.00  0.00    +0.026 A 
ATOM     10  C   UNL     1      -0.008  -2.772  -0.096  0.00  0.00    +0.051 A 
ATOM     11  C   UNL     1       0.156  -2.040   1.072  0.00  0.00    +0.026 A 
ATOM     12  C   UNL     1       0.115  -0.660   1.031  0.00  0.00    +0.005 A 
ENDBRANCH   1  10
BRANCH   2  13
ATOM     13  C   UNL     1      -2.114  -4.626   1.235  0.00  0.00    +0.020 A 
ATOM     14  C   UNL     1      -2.750  -5.530   2.088  0.00  0.00    +0.015 A 
ATOM     15  C   UNL     1      -3.900  -5.158   2.751  0.00  0.00    +0.046 A 
ATOM     16  C   UNL     1      -4.426  -3.886   2.571  0.00  0.00    +0.120 A 
ATOM     17  C   UNL     1      -3.796  -2.983   1.724  0.00  0.00    +0.046 A 
ATOM     18  C   UNL     1      -2.643  -3.346   1.062  0.00  0.00    +0.015 A 
BRANCH  16  19
ATOM     19  O   UNL     1      -5.560  -3.523   3.226  0.00  0.00    -0.495 OA
ATOM     20  C   UNL     1      -6.046  -2.199   2.995  0.00  0.00    +0.277 C 
ENDBRANCH  16  19
ENDBRANCH   2  13
BRANCH   5  21
ATOM     21  S   UNL     1       2.431  -4.465  -1.480  0.00  0.00    -0.073 S 
BRANCH  21  22
ATOM     22  C   UNL     1       3.269  -6.016  -1.910  0.00  0.00    +0.137 C 
ATOM     23  C   UNL     1       3.735  -6.715  -0.631  0.00  0.00    +0.029 C 
BRANCH  22  24
ATOM     24  C   UNL     1       4.460  -5.718  -2.783  0.00  0.00    +0.231 C 
ATOM     25  O   UNL     1       4.995  -4.631  -2.729  0.00  0.00    -0.274 OA
ATOM     26  N   UNL     1       4.932  -6.660  -3.624  0.00  0.00    -0.270 N 
ATOM     27  H   UNL     1       4.504  -7.529  -3.667  0.00  0.00    +0.156 HD
BRANCH  26  28
ATOM     28  C   UNL     1       6.035  -6.384  -4.431  0.00  0.00    +0.123 A 
ATOM     29  C   UNL     1       6.732  -5.216  -4.469  0.00  0.00    +0.065 A 
ATOM     30  C   UNL     1       7.757  -5.359  -5.409  0.00  0.00    +0.136 A 
ATOM     31  N   UNL     1       7.683  -6.562  -5.918  0.00  0.00    -0.178 NA
ATOM     32  N   UNL     1       6.609  -7.231  -5.316  0.00  0.00    -0.248 N 
BRANCH  32  33
ATOM     33  C   UNL     1       6.183  -8.604  -5.596  0.00  0.00    +0.103 C 
ATOM     34  C   UNL     1       5.805  -8.729  -7.074  0.00  0.00    +0.032 C 
ATOM     35  C   UNL     1       7.327  -9.569  -5.279  0.00  0.00    +0.032 C 
ENDBRANCH  32  33
ENDBRANCH  26  28
ENDBRANCH  22  24
ENDBRANCH  21  22
ENDBRANCH   5  21
TORSDOF 8
