REMARK  Name = ZINC20175509
REMARK  14 active torsions:
REMARK  status: ('A' for Active; 'I' for Inactive)
REMARK    1  A    between atoms: C_1  and  C_2
REMARK    2  A    between atoms: C_2  and  O_3
REMARK    3  A    between atoms: O_3  and  C_4
REMARK    4  A    between atoms: C_6  and  C_12
REMARK    5  A    between atoms: C_9  and  O_10
REMARK    6  A    between atoms: C_13  and  C_14
REMARK    7  A    between atoms: C_13  and  C_16
REMARK    8  A    between atoms: N_18  and  C_19
REMARK    9  A    between atoms: C_20  and  C_27
REMARK   10  A    between atoms: C_22  and  C_24
REMARK   11  A    between atoms: C_24  and  C_25
REMARK   12  A    between atoms: C_24  and  C_26
REMARK   13  A    between atoms: C_27  and  O_29
REMARK   14  A    between atoms: O_29  and  C_30
REMARK                            x       y       z     vdW  Elec       q    Type
REMARK                         _______ _______ _______ _____ _____    ______ ____
ROOT
ATOM      1  C   UNL     1       2.717  -0.811   8.047  0.00  0.00    +0.032 C 
ATOM      2  C   UNL     1       2.364  -0.562   6.738  0.00  0.00    +0.114 C 
ENDROOT
BRANCH   1   5
ATOM      3  C   UNL     1       4.832  -3.391   9.754  0.00  0.00    +0.163 A 
ATOM      4  C   UNL     1       3.783  -2.536   9.482  0.00  0.00    +0.057 A 
ATOM      5  C   UNL     1       3.829  -1.716   8.345  0.00  0.00    -0.019 A 
ATOM      6  C   UNL     1       4.946  -1.762   7.498  0.00  0.00    +0.027 A 
ATOM      7  C   UNL     1       5.989  -2.614   7.782  0.00  0.00    +0.063 A 
ATOM      8  C   UNL     1       5.939  -3.430   8.907  0.00  0.00    +0.173 A 
ATOM      9 BR   UNL     1       7.495  -2.674   6.639  0.00  0.00    -0.046 Br
BRANCH   8  10
ATOM     10  O   UNL     1       6.971  -4.268   9.181  0.00  0.00    -0.503 OA
ATOM     11  H   UNL     1       7.846  -4.300   8.514  0.00  0.00    +0.292 HD
ENDBRANCH   8  10
BRANCH   3  12
ATOM     12  O   UNL     1       4.788  -4.192  10.852  0.00  0.00    -0.489 OA
BRANCH  12  14
ATOM     13  C   UNL     1       3.755  -5.068  12.854  0.00  0.00    +0.048 C 
ATOM     14  C   UNL     1       3.624  -4.100  11.676  0.00  0.00    +0.226 C 
ENDBRANCH  12  14
ENDBRANCH   3  12
ENDBRANCH   1   5
BRANCH   2  15
ATOM     15  C   UNL     1       1.362   0.470   6.431  0.00  0.00    +0.259 C 
ATOM     16  O   UNL     1       0.844   1.103   7.332  0.00  0.00    -0.269 OA
ATOM     17  N   UNL     1       1.017   0.714   5.151  0.00  0.00    -0.275 N 
ATOM     18  H   UNL     1       1.485   0.142   4.337  0.00  0.00    +0.156 HD
BRANCH  17  19
ATOM     19  C   UNL     1       0.073   1.686   4.862  0.00  0.00    +0.086 A 
ATOM     20  C   UNL     1      -0.409   2.079   3.617  0.00  0.00    +0.088 A 
ATOM     21  C   UNL     1      -1.405   3.124   3.609  0.00  0.00    +0.028 A 
ATOM     22  C   UNL     1      -1.776   3.629   4.799  0.00  0.00    -0.005 A 
ATOM     23  S   UNL     1      -0.790   2.708   5.961  0.00  0.00    -0.077 S 
BRANCH  22  24
ATOM     24  C   UNL     1      -2.783   4.714   5.081  0.00  0.00    +0.020 C 
ATOM     25  C   UNL     1      -3.899   4.156   5.967  0.00  0.00    +0.013 C 
ATOM     26  C   UNL     1      -2.094   5.876   5.799  0.00  0.00    +0.013 C 
ENDBRANCH  22  24
BRANCH  20  27
ATOM     27  C   UNL     1       0.065   1.459   2.379  0.00  0.00    +0.341 C 
ATOM     28  O   UNL     1       0.905   0.580   2.421  0.00  0.00    -0.245 OA
BRANCH  27  29
ATOM     29  O   UNL     1      -0.430   1.863   1.190  0.00  0.00    -0.464 OA
ATOM     30  C   UNL     1       0.087   1.204   0.004  0.00  0.00    +0.280 C 
ENDBRANCH  27  29
ENDBRANCH  20  27
ENDBRANCH  17  19
ENDBRANCH   2  15
BRANCH   2  31
ATOM     31  C   UNL     1       2.973  -1.306   5.678  0.00  0.00    +0.104 C 
ATOM     32  N   UNL     1       3.456  -1.897   4.836  0.00  0.00    -0.191 NA
ENDBRANCH   2  31
TORSDOF 10
