REMARK  Name = ZINC39923119
REMARK  8 active torsions:
REMARK  status: ('A' for Active; 'I' for Inactive)
REMARK    1  A    between atoms: C_1  and  C_2
REMARK    2  A    between atoms: C_5  and  C_8
REMARK    3  A    between atoms: C_8  and  O_9
REMARK    4  A    between atoms: O_9  and  C_10
REMARK    5  A    between atoms: C_15  and  C_16
REMARK    6  A    between atoms: C_18  and  C_22
REMARK    7  A    between atoms: N_24  and  N_25
REMARK    8  A    between atoms: C_26  and  C_27
REMARK                            x       y       z     vdW  Elec       q    Type
REMARK                         _______ _______ _______ _____ _____    ______ ____
ROOT
ATOM      1  C   UNL     1       5.760  -5.582   0.500  0.00  0.00    +0.095 C 
ATOM      2  C   UNL     1       5.249  -4.344   0.358  0.00  0.00    +0.041 C 
ATOM      3  C   UNL     1       6.474  -3.447   0.329  0.00  0.00    +0.240 C 
ATOM      4  N   UNL     1       7.589  -4.397   0.471  0.00  0.00    -0.170 NA
ATOM      5  N   UNL     1       7.116  -5.532   0.563  0.00  0.00    -0.153 NA
ENDROOT
BRANCH   1  11
ATOM      6  C   UNL     1       3.560  -6.765   0.506  0.00  0.00    +0.130 A 
ATOM      7  C   UNL     1       2.816  -7.932   0.578  0.00  0.00    +0.046 A 
ATOM      8  C   UNL     1       3.451  -9.150   0.729  0.00  0.00    +0.004 A 
ATOM      9  C   UNL     1       4.831  -9.212   0.810  0.00  0.00    +0.001 A 
ATOM     10  C   UNL     1       5.585  -8.058   0.740  0.00  0.00    +0.014 A 
ATOM     11  C   UNL     1       4.955  -6.825   0.582  0.00  0.00    +0.044 A 
BRANCH   6  12
ATOM     12  O   UNL     1       2.936  -5.567   0.357  0.00  0.00    -0.487 OA
BRANCH  12  13
ATOM     13  C   UNL     1       1.509  -5.583   0.288  0.00  0.00    +0.264 C 
BRANCH  13  18
ATOM     14  C   UNL     1      -0.451  -0.183  -0.342  0.00  0.00    +0.044 C 
ATOM     15  C   UNL     1       0.060  -1.591  -0.178  0.00  0.00    -0.050 A 
ATOM     16  C   UNL     1       0.355  -2.354  -1.292  0.00  0.00    +0.004 A 
ATOM     17  C   UNL     1       0.824  -3.646  -1.142  0.00  0.00    +0.007 A 
ATOM     18  C   UNL     1       0.999  -4.175   0.123  0.00  0.00    -0.010 A 
ATOM     19  C   UNL     1       0.705  -3.412   1.238  0.00  0.00    +0.007 A 
ATOM     20  C   UNL     1       0.240  -2.119   1.088  0.00  0.00    +0.004 A 
ENDBRANCH  13  18
ENDBRANCH  12  13
ENDBRANCH   6  12
ENDBRANCH   1  11
BRANCH   3  21
ATOM     21  C   UNL     1       6.562  -2.709  -0.982  0.00  0.00    +0.263 C 
ATOM     22  O   UNL     1       7.309  -3.106  -1.852  0.00  0.00    -0.271 OA
ATOM     23  N   UNL     1       5.811  -1.609  -1.189  0.00  0.00    -0.205 N 
ATOM     24  H   UNL     1       5.214  -1.292  -0.493  0.00  0.00    +0.177 HD
BRANCH  23  25
ATOM     25  N   UNL     1       5.893  -0.924  -2.408  0.00  0.00    -0.188 NA
ATOM     26  C   UNL     1       5.256   0.209  -2.566  0.00  0.00    +0.136 C 
BRANCH  26  27
ATOM     27  C   UNL     1       4.613   0.810  -1.475  0.00  0.00    +0.000 C 
ATOM     28  C   UNL     1       4.020   2.070  -1.436  0.00  0.00    +0.004 A 
ATOM     29  C   UNL     1       3.877   3.087  -2.405  0.00  0.00    +0.010 A 
ATOM     30  C   UNL     1       3.238   4.240  -2.082  0.00  0.00    +0.001 A 
ATOM     31  C   UNL     1       2.712   4.452  -0.804  0.00  0.00    +0.002 A 
ATOM     32  C   UNL     1       2.812   3.520   0.175  0.00  0.00    +0.026 A 
ATOM     33  C   UNL     1       3.467   2.288  -0.088  0.00  0.00    +0.043 A 
ATOM     34  N   UNL     1       3.693   1.241   0.677  0.00  0.00    -0.380 N 
ATOM     35  C   UNL     1       4.413   0.223  -0.095  0.00  0.00    +0.150 C 
ATOM     36  H   UNL     1       3.422   1.154   1.604  0.00  0.00    +0.160 HD
ENDBRANCH  26  27
ENDBRANCH  23  25
ENDBRANCH   3  21
TORSDOF 7
