REMARK  Name = ZINC37398097
REMARK  10 active torsions:
REMARK  status: ('A' for Active; 'I' for Inactive)
REMARK    1  A    between atoms: C_1  and  O_2
REMARK    2  A    between atoms: O_2  and  C_3
REMARK    3  A    between atoms: C_8  and  N_9
REMARK    4  A    between atoms: C_10  and  C_32
REMARK    5  A    between atoms: C_13  and  S_14
REMARK    6  A    between atoms: S_14  and  C_15
REMARK    7  A    between atoms: C_15  and  C_16
REMARK    8  A    between atoms: C_19  and  C_22
REMARK    9  A    between atoms: N_24  and  C_25
REMARK   10  A    between atoms: C_25  and  C_26
REMARK                            x       y       z     vdW  Elec       q    Type
REMARK                         _______ _______ _______ _____ _____    ______ ____
ROOT
ATOM      1  S   UNL     1      -2.435  -3.002   1.259  0.00  0.00    -0.081 S 
ENDROOT
BRANCH   1   6
ATOM      2  N   UNL     1       0.096  -2.779   0.083  0.00  0.00    -0.264 N 
ATOM      3  C   UNL     1       0.694  -3.226  -1.076  0.00  0.00    +0.205 A 
ATOM      4  N   UNL     1      -0.214  -3.908  -1.739  0.00  0.00    -0.125 NA
ATOM      5  N   UNL     1      -1.320  -3.919  -1.085  0.00  0.00    -0.122 NA
ATOM      6  C   UNL     1      -1.188  -3.250   0.039  0.00  0.00    +0.197 A 
BRANCH   2  12
ATOM      7  C   UNL     1       0.626  -0.619   1.042  0.00  0.00    +0.144 A 
ATOM      8  C   UNL     1       1.202   0.137   2.051  0.00  0.00    +0.048 A 
ATOM      9  C   UNL     1       1.837  -0.489   3.107  0.00  0.00    +0.004 A 
ATOM     10  C   UNL     1       1.898  -1.870   3.161  0.00  0.00    +0.002 A 
ATOM     11  C   UNL     1       1.326  -2.630   2.159  0.00  0.00    +0.030 A 
ATOM     12  C   UNL     1       0.683  -2.009   1.099  0.00  0.00    +0.092 A 
BRANCH   7  14
ATOM     13  C   UNL     1      -0.017   1.425   0.010  0.00  0.00    +0.277 C 
ATOM     14  O   UNL     1       0.002  -0.004   0.002  0.00  0.00    -0.493 OA
ENDBRANCH   7  14
ENDBRANCH   2  12
BRANCH   3  15
ATOM     15  C   UNL     1       2.084  -2.984  -1.493  0.00  0.00    +0.172 A 
ATOM     16  C   UNL     1       2.750  -3.647  -2.481  0.00  0.00    +0.053 A 
ATOM     17  C   UNL     1       4.044  -3.094  -2.538  0.00  0.00    +0.042 A 
ATOM     18  C   UNL     1       4.106  -2.133  -1.595  0.00  0.00    +0.196 A 
ATOM     19  O   UNL     1       2.919  -2.066  -0.969  0.00  0.00    -0.460 OA
ENDBRANCH   3  15
ENDBRANCH   1   6
BRANCH   1  20
ATOM     20  C   UNL     1      -3.880  -3.874   0.594  0.00  0.00    +0.112 C 
BRANCH  20  21
ATOM     21  C   UNL     1      -5.034  -3.739   1.554  0.00  0.00    -0.037 A 
ATOM     22  C   UNL     1      -5.210  -4.677   2.555  0.00  0.00    +0.005 A 
ATOM     23  C   UNL     1      -6.264  -4.560   3.438  0.00  0.00    +0.013 A 
ATOM     24  C   UNL     1      -7.154  -3.491   3.318  0.00  0.00    +0.037 A 
ATOM     25  C   UNL     1      -6.971  -2.548   2.305  0.00  0.00    +0.013 A 
ATOM     26  C   UNL     1      -5.909  -2.674   1.434  0.00  0.00    +0.005 A 
BRANCH  24  27
ATOM     27  C   UNL     1      -8.286  -3.359   4.259  0.00  0.00    +0.244 C 
ATOM     28  O   UNL     1      -8.444  -4.182   5.140  0.00  0.00    -0.270 OA
ATOM     29  N   UNL     1      -9.144  -2.326   4.141  0.00  0.00    -0.307 N 
ATOM     30  H   UNL     1      -9.018  -1.669   3.439  0.00  0.00    +0.149 HD
BRANCH  29  31
ATOM     31  C   UNL     1     -10.266  -2.196   5.074  0.00  0.00    +0.140 C 
BRANCH  31  32
ATOM     32  C   UNL     1     -11.066  -0.967   4.728  0.00  0.00    -0.027 A 
ATOM     33  C   UNL     1     -10.758   0.263   5.290  0.00  0.00    +0.025 A 
ATOM     34  C   UNL     1     -11.514   1.368   4.949  0.00  0.00    +0.111 A 
ATOM     35  N   UNL     1     -12.519   1.262   4.101  0.00  0.00    -0.263 NA
ATOM     36  C   UNL     1     -12.841   0.110   3.547  0.00  0.00    +0.111 A 
ATOM     37  C   UNL     1     -12.126  -1.037   3.836  0.00  0.00    +0.025 A 
ENDBRANCH  31  32
ENDBRANCH  29  31
ENDBRANCH  24  27
ENDBRANCH  20  21
ENDBRANCH   1  20
TORSDOF 9
