REMARK  Name = ZINC13071938
REMARK  7 active torsions:
REMARK  status: ('A' for Active; 'I' for Inactive)
REMARK    1  A    between atoms: C_1  and  N_53
REMARK    2  A    between atoms: C_2  and  C_3
REMARK    3  A    between atoms: C_2  and  N_53
REMARK    4  A    between atoms: C_11  and  N_12
REMARK    5  A    between atoms: C_11  and  N_53
REMARK    6  A    between atoms: N_15  and  C_27
REMARK    7  A    between atoms: C_16  and  C_18
REMARK                            x       y       z     vdW  Elec       q    Type
REMARK                         _______ _______ _______ _____ _____    ______ ____
ROOT
ATOM      1  N   UNL     1      -0.708   3.455   0.140  0.00  0.00    -0.257 N 
ATOM      2  C   UNL     1      -1.123   2.187  -0.052  0.00  0.00    +0.181 A 
ATOM      3  S   UNL     1      -2.749   1.658  -0.146  0.00  0.00    -0.011 S 
ATOM      4  N   UNL     1      -0.027   1.409  -0.155  0.00  0.00    -0.271 N 
ATOM      5  C   UNL     1       1.089   2.216  -0.032  0.00  0.00    +0.167 A 
ATOM      6  N   UNL     1       0.693   3.445   0.146  0.00  0.00    -0.152 NA
ENDROOT
BRANCH   5   7
ATOM      7  C   UNL     1       2.495   1.760  -0.091  0.00  0.00    +0.023 A 
ATOM      8  C   UNL     1       3.518   2.678  -0.336  0.00  0.00    +0.015 A 
ATOM      9  C   UNL     1       4.828   2.252  -0.392  0.00  0.00    +0.050 A 
ATOM     10  C   UNL     1       5.135   0.912  -0.204  0.00  0.00    +0.166 A 
ATOM     11  C   UNL     1       4.118  -0.009   0.042  0.00  0.00    +0.167 A 
ATOM     12  C   UNL     1       2.803   0.413   0.103  0.00  0.00    +0.061 A 
ATOM     13  O   UNL     1       4.677  -1.246   0.189  0.00  0.00    -0.453 OA
ATOM     14  C   UNL     1       6.075  -1.009   0.438  0.00  0.00    +0.466 C 
ATOM     15  O   UNL     1       6.329   0.251  -0.210  0.00  0.00    -0.453 OA
ENDBRANCH   5   7
BRANCH   4  16
ATOM     16  C   UNL     1      -0.020   0.023  -0.358  0.00  0.00    +0.050 A 
ATOM     17  C   UNL     1       0.429  -0.502  -1.563  0.00  0.00    +0.026 A 
ATOM     18  C   UNL     1       0.440  -1.869  -1.758  0.00  0.00    +0.002 A 
ATOM     19  C   UNL     1      -0.006  -2.715  -0.759  0.00  0.00    +0.000 A 
ATOM     20  C   UNL     1      -0.458  -2.195   0.441  0.00  0.00    +0.002 A 
ATOM     21  C   UNL     1      -0.466  -0.829   0.644  0.00  0.00    +0.026 A 
ENDBRANCH   4  16
BRANCH   1  22
ATOM     22  C   UNL     1      -1.566   4.631   0.307  0.00  0.00    +0.072 C 
BRANCH  22  24
ATOM     23  C   UNL     1      -0.621   5.768  -1.611  0.00  0.00    -0.093 C 
ATOM     24  N   UNL     1      -1.855   5.203  -1.025  0.00  0.00    +0.394 N 
ATOM     25  H   UNL     1      -2.205   4.459  -1.639  0.00  0.00    -0.079 HD
BRANCH  24  26
ATOM     26  C   UNL     1      -2.886   6.256  -0.909  0.00  0.00    -0.041 C 
BRANCH  26  27
ATOM     27  C   UNL     1      -3.320   6.665  -2.293  0.00  0.00    -0.062 A 
ATOM     28  C   UNL     1      -2.680   7.708  -2.937  0.00  0.00    +0.003 A 
ATOM     29  C   UNL     1      -3.073   8.082  -4.209  0.00  0.00    +0.021 A 
ATOM     30  C   UNL     1      -4.114   7.419  -4.833  0.00  0.00    +0.059 A 
ATOM     31  C   UNL     1      -4.759   6.378  -4.186  0.00  0.00    +0.059 A 
ATOM     32  C   UNL     1      -4.360   6.002  -2.916  0.00  0.00    +0.023 A 
ATOM     33 CL   UNL     1      -6.065   5.545  -4.969  0.00  0.00    -0.082 Cl
ATOM     34 CL   UNL     1      -4.612   7.891  -6.428  0.00  0.00    -0.082 Cl
ENDBRANCH  26  27
ENDBRANCH  24  26
ENDBRANCH  22  24
ENDBRANCH   1  22
TORSDOF 6
