REMARK  Name = ZINC02399911
REMARK  6 active torsions:
REMARK  status: ('A' for Active; 'I' for Inactive)
REMARK    1  A    between atoms: C_4  and  C_7
REMARK    2  A    between atoms: C_7  and  C_8
REMARK    3  A    between atoms: C_7  and  O_14
REMARK    4  A    between atoms: O_14  and  C_15
REMARK    5  A    between atoms: C_15  and  C_16
REMARK    6  A    between atoms: C_16  and  N_67
REMARK                            x       y       z     vdW  Elec       q    Type
REMARK                         _______ _______ _______ _____ _____    ______ ____
ROOT
ATOM      1  C   UNL     1      -5.380  -0.255  -4.477  0.00  0.00    -0.059 C 
ATOM      2  C   UNL     1      -5.892   0.134  -3.089  0.00  0.00    +0.088 C 
ATOM      3  N   UNL     1      -4.769   0.616  -2.272  0.00  0.00    -0.318 N 
ATOM      4  C   UNL     1      -4.128   1.780  -2.898  0.00  0.00    +0.088 C 
ATOM      5  C   UNL     1      -3.616   1.392  -4.287  0.00  0.00    -0.059 C 
ATOM      6  C   UNL     1      -5.182   0.910  -0.985  0.00  0.00    +0.133 A 
ATOM      7  C   UNL     1      -4.712   0.181   0.146  0.00  0.00    +0.051 A 
ATOM      8  C   UNL     1      -3.776  -0.930   0.146  0.00  0.00    -0.025 A 
ATOM      9  C   UNL     1      -3.475  -1.470   1.350  0.00  0.00    -0.004 A 
ATOM     10  S   UNL     1      -4.415  -0.533   2.530  0.00  0.00    -0.073 S 
ATOM     11  C   UNL     1      -5.208   0.578   1.413  0.00  0.00    +0.114 A 
ATOM     12  N   UNL     1      -6.064   1.567   1.579  0.00  0.00    -0.228 NA
ATOM     13  C   UNL     1      -6.461   2.204   0.485  0.00  0.00    +0.224 A 
ATOM     14  N   UNL     1      -6.043   1.891  -0.726  0.00  0.00    -0.220 NA
ATOM     15  C   UNL     1      -2.547  -2.617   1.627  0.00  0.00    +0.043 C 
ATOM     16  C   UNL     1      -2.262  -3.337   0.302  0.00  0.00    +0.005 C 
ATOM     17  C   UNL     1      -1.904  -2.293  -0.760  0.00  0.00    +0.005 C 
ATOM     18  C   UNL     1      -3.147  -1.483  -1.130  0.00  0.00    +0.037 C 
ATOM     19  N   UNL     1      -4.758   0.930  -5.104  0.00  0.00    +0.383 N 
ATOM     20  H   UNL     1      -5.454   1.683  -5.160  0.00  0.00    -0.082 HD
ENDROOT
BRANCH  19  21
ATOM     21  C   UNL     1      -4.300   0.598  -6.470  0.00  0.00    -0.050 C 
BRANCH  21  22
ATOM     22  C   UNL     1      -5.513   0.577  -7.403  0.00  0.00    +0.142 C 
BRANCH  22  23
ATOM     23  O   UNL     1      -6.085   1.884  -7.469  0.00  0.00    -0.369 OA
BRANCH  23  24
ATOM     24  C   UNL     1      -7.231   1.975  -8.319  0.00  0.00    +0.178 C 
BRANCH  24  28
ATOM     25  C   UNL     1     -10.757   1.177  -6.044  0.00  0.00    +0.000 A 
ATOM     26  C   UNL     1     -10.636   0.679  -7.328  0.00  0.00    +0.000 A 
ATOM     27  C   UNL     1      -9.494   0.938  -8.064  0.00  0.00    +0.006 A 
ATOM     28  C   UNL     1      -8.475   1.694  -7.516  0.00  0.00    -0.015 A 
ATOM     29  C   UNL     1      -8.594   2.187  -6.230  0.00  0.00    +0.006 A 
ATOM     30  C   UNL     1      -9.737   1.933  -5.496  0.00  0.00    +0.000 A 
ENDBRANCH  24  28
BRANCH  24  31
ATOM     31  C   UNL     1      -7.313   3.361  -8.904  0.00  0.00    -0.015 A 
ATOM     32  C   UNL     1      -6.922   4.453  -8.153  0.00  0.00    +0.006 A 
ATOM     33  C   UNL     1      -6.993   5.724  -8.692  0.00  0.00    +0.000 A 
ATOM     34  C   UNL     1      -7.465   5.904  -9.979  0.00  0.00    +0.000 A 
ATOM     35  C   UNL     1      -7.862   4.812 -10.728  0.00  0.00    +0.000 A 
ATOM     36  C   UNL     1      -7.786   3.541 -10.191  0.00  0.00    +0.006 A 
ENDBRANCH  24  31
ENDBRANCH  23  24
ENDBRANCH  22  23
ENDBRANCH  21  22
ENDBRANCH  19  21
TORSDOF 6
