REMARK  Name = ZINC11910098
REMARK  13 active torsions:
REMARK  status: ('A' for Active; 'I' for Inactive)
REMARK    1  A    between atoms: C_1  and  C_2
REMARK    2  A    between atoms: C_2  and  C_3
REMARK    3  A    between atoms: C_2  and  C_4
REMARK    4  A    between atoms: C_4  and  N_5
REMARK    5  A    between atoms: N_5  and  C_6
REMARK    6  A    between atoms: N_5  and  S_7
REMARK    7  A    between atoms: S_7  and  C_10
REMARK    8  A    between atoms: C_11  and  C_27
REMARK    9  A    between atoms: C_18  and  C_19
REMARK   10  A    between atoms: C_18  and  N_58
REMARK   11  A    between atoms: C_22  and  O_26
REMARK   12  A    between atoms: C_27  and  O_29
REMARK   13  A    between atoms: O_29  and  C_30
REMARK                            x       y       z     vdW  Elec       q    Type
REMARK                         _______ _______ _______ _____ _____    ______ ____
ROOT
ATOM      1  C   UNL     1       1.803   5.691  -6.433  0.00  0.00    +0.157 A 
ATOM      2  C   UNL     1       2.757   5.265  -5.532  0.00  0.00    +0.096 A 
ATOM      3  C   UNL     1       2.300   4.782  -4.245  0.00  0.00    -0.025 A 
ATOM      4  C   UNL     1       0.958   4.801  -4.065  0.00  0.00    -0.021 A 
ATOM      5  S   UNL     1       0.314   5.451  -5.579  0.00  0.00    -0.074 S 
ATOM      6  C   UNL     1       0.219   4.360  -2.841  0.00  0.00    -0.035 C 
ATOM      7  C   UNL     1       2.417   4.281  -1.825  0.00  0.00    -0.073 C 
ATOM      8  C   UNL     1       3.212   4.277  -3.133  0.00  0.00    +0.018 C 
ATOM      9  N   UNL     1       1.149   3.548  -2.018  0.00  0.00    +0.386 N 
ATOM     10  H   UNL     1       1.344   2.666  -2.506  0.00  0.00    -0.081 HD
ENDROOT
BRANCH   1  11
ATOM     11  S   UNL     1       2.041   6.325  -8.059  0.00  0.00    +0.068 S 
ATOM     12  O   UNL     1       2.720   7.566  -7.916  0.00  0.00    -0.152 OA
ATOM     13  O   UNL     1       2.562   5.258  -8.840  0.00  0.00    -0.152 OA
BRANCH  11  14
ATOM     14  N   UNL     1       0.543   6.673  -8.673  0.00  0.00    -0.179 NA
ATOM     15  C   UNL     1      -0.200   5.652  -9.415  0.00  0.00    +0.131 C 
BRANCH  14  16
ATOM     16  C   UNL     1      -0.039   8.003  -8.474  0.00  0.00    +0.112 C 
BRANCH  16  18
ATOM     17  C   UNL     1      -0.396   8.340 -10.924  0.00  0.00    +0.008 C 
ATOM     18  C   UNL     1       0.295   8.891  -9.675  0.00  0.00    -0.001 C 
ATOM     19  C   UNL     1      -0.195  10.316  -9.407  0.00  0.00    +0.008 C 
ENDBRANCH  16  18
ENDBRANCH  14  16
ENDBRANCH  11  14
ENDBRANCH   1  11
BRANCH   2  20
ATOM     20  C   UNL     1       4.188   5.300  -5.866  0.00  0.00    +0.342 C 
ATOM     21  O   UNL     1       4.713   4.339  -6.394  0.00  0.00    -0.245 OA
BRANCH  20  22
ATOM     22  O   UNL     1       4.919   6.398  -5.587  0.00  0.00    -0.464 OA
ATOM     23  C   UNL     1       6.325   6.362  -5.945  0.00  0.00    +0.280 C 
ENDBRANCH  20  22
ENDBRANCH   2  20
BRANCH   9  24
ATOM     24  C   UNL     1       0.533   3.247  -0.708  0.00  0.00    -0.042 C 
BRANCH  24  25
ATOM     25  C   UNL     1      -0.871   2.746  -0.925  0.00  0.00    -0.062 A 
ATOM     26  C   UNL     1      -1.101   1.395  -1.110  0.00  0.00    +0.005 A 
ATOM     27  C   UNL     1      -2.388   0.933  -1.309  0.00  0.00    +0.047 A 
ATOM     28  C   UNL     1      -3.449   1.825  -1.328  0.00  0.00    +0.135 A 
ATOM     29  C   UNL     1      -3.217   3.180  -1.137  0.00  0.00    +0.082 A 
ATOM     30  C   UNL     1      -1.927   3.638  -0.938  0.00  0.00    +0.025 A 
ATOM     31 CL   UNL     1      -4.543   4.300  -1.154  0.00  0.00    -0.080 Cl
BRANCH  28  32
ATOM     32  O   UNL     1      -4.715   1.373  -1.529  0.00  0.00    -0.505 OA
ATOM     33  H   UNL     1      -5.183   1.140  -0.715  0.00  0.00    +0.292 HD
ENDBRANCH  28  32
ENDBRANCH  24  25
ENDBRANCH   9  24
TORSDOF 9
