REMARK  Name = ZINC40003488
REMARK  17 active torsions:
REMARK  status: ('A' for Active; 'I' for Inactive)
REMARK    1  A    between atoms: C_1  and  C_2
REMARK    2  A    between atoms: C_2  and  O_3
REMARK    3  A    between atoms: O_3  and  C_4
REMARK    4  A    between atoms: C_6  and  C_14
REMARK    5  A    between atoms: C_9  and  O_10
REMARK    6  A    between atoms: O_10  and  C_11
REMARK    7  A    between atoms: C_11  and  C_12
REMARK    8  A    between atoms: C_16  and  C_28
REMARK    9  A    between atoms: N_20  and  C_21
REMARK   10  A    between atoms: C_21  and  C_22
REMARK   11  A    between atoms: C_22  and  C_23
REMARK   12  A    between atoms: C_23  and  N_24
REMARK   13  A    between atoms: N_24  and  C_25
REMARK   14  A    between atoms: N_24  and  C_26
REMARK   15  A    between atoms: C_28  and  C_30
REMARK   16  A    between atoms: C_31  and  C_40
REMARK   17  A    between atoms: C_38  and  C_39
REMARK                            x       y       z     vdW  Elec       q    Type
REMARK                         _______ _______ _______ _____ _____    ______ ____
ROOT
ATOM      1  C   UNL     1      -0.621  -4.461   1.561  0.00  0.00    +0.145 C 
ATOM      2  C   UNL     1      -1.163  -5.135   0.322  0.00  0.00    +0.078 C 
ATOM      3  C   UNL     1      -0.260  -6.075  -0.038  0.00  0.00    +0.249 C 
ATOM      4  C   UNL     1       0.867  -6.056   0.914  0.00  0.00    +0.288 C 
ATOM      5  O   UNL     1       1.839  -6.785   0.859  0.00  0.00    -0.266 OA
ATOM      6  N   UNL     1       0.661  -5.113   1.854  0.00  0.00    -0.284 N 
ATOM      7  O   UNL     1      -0.372  -6.903  -1.104  0.00  0.00    -0.282 OA
ENDROOT
BRANCH   1  10
ATOM      8  C   UNL     1      -1.042  -0.708   1.659  0.00  0.00    +0.162 A 
ATOM      9  C   UNL     1      -1.236  -2.059   1.897  0.00  0.00    +0.055 A 
ATOM     10  C   UNL     1      -0.408  -2.992   1.301  0.00  0.00    -0.019 A 
ATOM     11  C   UNL     1       0.616  -2.580   0.469  0.00  0.00    +0.009 A 
ATOM     12  C   UNL     1       0.816  -1.234   0.228  0.00  0.00    +0.050 A 
ATOM     13  C   UNL     1      -0.015  -0.294   0.816  0.00  0.00    +0.162 A 
BRANCH   8  14
ATOM     14  O   UNL     1      -1.856   0.211   2.243  0.00  0.00    -0.489 OA
BRANCH  14  16
ATOM     15  C   UNL     1      -3.563   0.901   3.809  0.00  0.00    +0.048 C 
ATOM     16  C   UNL     1      -2.822  -0.279   3.176  0.00  0.00    +0.226 C 
ENDBRANCH  14  16
ENDBRANCH   8  14
BRANCH  13  17
ATOM     17  O   UNL     1       0.177   1.031   0.576  0.00  0.00    -0.484 OA
BRANCH  17  18
ATOM     18  C   UNL     1       1.250   1.383  -0.300  0.00  0.00    +0.256 C 
BRANCH  18  19
ATOM     19  C   UNL     1       1.308   2.881  -0.446  0.00  0.00    +0.006 C 
ATOM     20  C   UNL     1       2.460   3.502  -0.376  0.00  0.00    +0.007 C 
ENDBRANCH  18  19
ENDBRANCH  17  18
ENDBRANCH  13  17
ENDBRANCH   1  10
BRANCH   2  21
ATOM     21  C   UNL     1      -2.426  -4.828  -0.360  0.00  0.00    +0.213 C 
ATOM     22  O   UNL     1      -2.414  -4.267  -1.443  0.00  0.00    -0.285 OA
BRANCH  21  23
ATOM     23  C   UNL     1      -3.659  -5.184   0.240  0.00  0.00    +0.116 A 
ATOM     24  C   UNL     1      -3.837  -5.935   1.396  0.00  0.00    +0.068 A 
ATOM     25  N   UNL     1      -5.135  -6.044   1.621  0.00  0.00    -0.232 NA
ATOM     26  C   UNL     1      -5.815  -5.402   0.671  0.00  0.00    +0.141 A 
ATOM     27  N   UNL     1      -4.925  -4.849  -0.205  0.00  0.00    -0.296 N 
ATOM     28  C   UNL     1      -5.360  -4.129  -1.274  0.00  0.00    +0.093 A 
ATOM     29  C   UNL     1      -6.683  -3.944  -1.488  0.00  0.00    +0.018 A 
ATOM     30  C   UNL     1      -7.622  -4.495  -0.606  0.00  0.00    +0.008 A 
ATOM     31  C   UNL     1      -7.194  -5.226   0.464  0.00  0.00    -0.008 A 
ATOM     32  C   UNL     1      -8.190  -5.824   1.424  0.00  0.00    +0.047 C 
ATOM     33  C   UNL     1      -2.740  -6.523   2.245  0.00  0.00    +0.068 C 
ENDBRANCH  21  23
ENDBRANCH   2  21
BRANCH   6  34
ATOM     34  C   UNL     1       1.556  -4.795   2.969  0.00  0.00    +0.107 C 
BRANCH  34  35
ATOM     35  C   UNL     1       1.187  -5.653   4.181  0.00  0.00    +0.000 C 
BRANCH  35  36
ATOM     36  C   UNL     1       2.121  -5.321   5.346  0.00  0.00    -0.078 C 
BRANCH  36  37
ATOM     37  N   UNL     1       1.766  -6.145   6.509  0.00  0.00    +0.376 N 
ATOM     38  C   UNL     1       2.017  -7.559   6.201  0.00  0.00    -0.097 C 
ATOM     39  C   UNL     1       2.583  -5.742   7.661  0.00  0.00    -0.097 C 
ATOM     40  H   UNL     1       0.790  -6.016   6.727  0.00  0.00    -0.083 HD
ENDBRANCH  36  37
ENDBRANCH  35  36
ENDBRANCH  34  35
ENDBRANCH   6  34
TORSDOF 12
