REMARK  Name = ZINC02738032
REMARK  8 active torsions:
REMARK  status: ('A' for Active; 'I' for Inactive)
REMARK    1  A    between atoms: C_1  and  C_2
REMARK    2  A    between atoms: C_2  and  N_59
REMARK    3  A    between atoms: C_13  and  C_16
REMARK    4  A    between atoms: C_19  and  O_32
REMARK    5  A    between atoms: C_20  and  C_22
REMARK    6  A    between atoms: C_22  and  O_23
REMARK    7  A    between atoms: O_23  and  C_24
REMARK    8  A    between atoms: O_32  and  C_33
REMARK                            x       y       z     vdW  Elec       q    Type
REMARK                         _______ _______ _______ _____ _____    ______ ____
ROOT
ATOM      1  C   UNL     1      -1.248  -1.584   6.576  0.00  0.00    -0.074 C 
ATOM      2  C   UNL     1      -1.371  -2.191   5.176  0.00  0.00    +0.018 C 
ATOM      3  C   UNL     1      -1.887  -1.110   4.232  0.00  0.00    -0.027 A 
ATOM      4  C   UNL     1      -2.479  -0.001   4.733  0.00  0.00    -0.021 A 
ATOM      5  S   UNL     1      -2.912   0.966   3.313  0.00  0.00    -0.080 S 
ATOM      6  C   UNL     1      -2.325  -0.078   2.089  0.00  0.00    +0.080 A 
ATOM      7  C   UNL     1      -1.789  -1.173   2.784  0.00  0.00    +0.068 A 
ATOM      8  C   UNL     1      -1.185  -2.263   1.984  0.00  0.00    +0.248 C 
ATOM      9  O   UNL     1      -0.802  -3.294   2.505  0.00  0.00    -0.270 OA
ATOM     10  N   UNL     1      -1.077  -2.066   0.653  0.00  0.00    -0.289 N 
ATOM     11  C   UNL     1      -1.293  -0.774   0.010  0.00  0.00    +0.190 C 
ATOM     12  N   UNL     1      -2.318   0.013   0.721  0.00  0.00    -0.316 N 
ATOM     13  C   UNL     1      -2.705   0.311   6.179  0.00  0.00    -0.035 C 
ATOM     14  H   UNL     1      -0.844  -2.824   0.095  0.00  0.00    +0.151 HD
ATOM     15  H   UNL     1      -2.955   0.567   0.244  0.00  0.00    +0.149 HD
ATOM     16  N   UNL     1      -2.527  -0.945   6.947  0.00  0.00    +0.383 N 
ATOM     17  H   UNL     1      -3.298  -1.585   6.724  0.00  0.00    -0.081 HD
ENDROOT
BRANCH  11  18
ATOM     18  C   UNL     1       0.002  -0.004   0.002  0.00  0.00    -0.009 A 
ATOM     19  C   UNL     1      -0.017   1.379   0.010  0.00  0.00    +0.010 A 
ATOM     20  C   UNL     1       1.169   2.087   0.002  0.00  0.00    +0.046 A 
ATOM     21  C   UNL     1       2.380   1.409  -0.013  0.00  0.00    +0.126 A 
ATOM     22  C   UNL     1       2.396   0.022  -0.021  0.00  0.00    +0.032 A 
ATOM     23  C   UNL     1       1.207  -0.681  -0.013  0.00  0.00    +0.017 A 
BRANCH  21  24
ATOM     24  O   UNL     1       3.548   2.104  -0.022  0.00  0.00    -0.495 OA
ATOM     25  C   UNL     1       3.456   3.530  -0.014  0.00  0.00    +0.277 C 
ENDBRANCH  21  24
BRANCH  22  26
ATOM     26  C   UNL     1       3.710  -0.717  -0.038  0.00  0.00    +0.268 C 
BRANCH  26  27
ATOM     27  O   UNL     1       3.464  -2.124  -0.043  0.00  0.00    -0.487 OA
BRANCH  27  28
ATOM     28  C   UNL     1       4.551  -2.940  -0.058  0.00  0.00    +0.123 A 
ATOM     29  C   UNL     1       5.827  -2.396  -0.073  0.00  0.00    +0.048 A 
ATOM     30  C   UNL     1       6.932  -3.226  -0.084  0.00  0.00    +0.043 A 
ATOM     31  C   UNL     1       6.766  -4.601  -0.090  0.00  0.00    +0.142 A 
ATOM     32  C   UNL     1       5.492  -5.146  -0.080  0.00  0.00    +0.080 A 
ATOM     33  C   UNL     1       4.386  -4.317  -0.064  0.00  0.00    +0.068 A 
ATOM     34 CL   UNL     1       5.286  -6.869  -0.087  0.00  0.00    -0.080 Cl
ATOM     35  F   UNL     1       7.847  -5.411  -0.106  0.00  0.00    -0.204 F 
ENDBRANCH  27  28
ENDBRANCH  26  27
ENDBRANCH  22  26
ENDBRANCH  11  18
BRANCH  16  37
ATOM     36  C   UNL     1      -3.955  -0.209   8.795  0.00  0.00    -0.017 C 
ATOM     37  C   UNL     1      -2.547  -0.657   8.398  0.00  0.00    -0.082 C 
ENDBRANCH  16  37
TORSDOF 6
