REMARK  Name = ZINC66604549
REMARK  8 active torsions:
REMARK  status: ('A' for Active; 'I' for Inactive)
REMARK    1  A    between atoms: C_1  and  C_2
REMARK    2  A    between atoms: C_5  and  C_12
REMARK    3  A    between atoms: C_8  and  C_10
REMARK    4  A    between atoms: C_8  and  C_11
REMARK    5  A    between atoms: C_12  and  C_13
REMARK    6  A    between atoms: N_15  and  C_16
REMARK    7  A    between atoms: C_16  and  C_17
REMARK    8  A    between atoms: C_20  and  N_23
REMARK                            x       y       z     vdW  Elec       q    Type
REMARK                         _______ _______ _______ _____ _____    ______ ____
ROOT
ATOM      1  C   UNL     1      -3.463  -2.389  -1.418  0.00  0.00    +0.214 C 
ATOM      2  O   UNL     1      -2.910  -1.637  -2.192  0.00  0.00    -0.276 OA
ATOM      3  N   UNL     1      -4.755  -2.720  -1.607  0.00  0.00    -0.311 N 
ATOM      4  H   UNL     1      -5.198  -3.322  -0.987  0.00  0.00    +0.149 HD
ENDROOT
BRANCH   1   5
ATOM      5  C   UNL     1      -2.704  -2.954  -0.245  0.00  0.00    +0.099 C 
BRANCH   5   9
ATOM      6  C   UNL     1       0.142   1.134   0.154  0.00  0.00    +0.007 C 
ATOM      7  C   UNL     1       0.154  -0.381  -0.064  0.00  0.00    -0.013 C 
ATOM      8  C   UNL     1      -1.281  -0.910  -0.045  0.00  0.00    +0.007 C 
ATOM      9  C   UNL     1      -1.268  -2.425  -0.263  0.00  0.00    -0.002 C 
ATOM     10  C   UNL     1      -0.464  -3.093   0.854  0.00  0.00    +0.010 C 
ATOM     11  C   UNL     1       0.971  -2.564   0.836  0.00  0.00    -0.034 C 
ATOM     12  C   UNL     1       0.959  -1.049   1.053  0.00  0.00    +0.009 C 
ATOM     13  C   UNL     1       1.615  -2.880  -0.516  0.00  0.00    +0.011 C 
ATOM     14  C   UNL     1       1.776  -3.232   1.952  0.00  0.00    +0.011 C 
ENDBRANCH   5   9
ENDBRANCH   1   5
BRANCH   3  15
ATOM     15  C   UNL     1      -5.493  -2.171  -2.747  0.00  0.00    +0.139 C 
BRANCH  15  16
ATOM     16  C   UNL     1      -6.907  -2.693  -2.729  0.00  0.00    -0.030 A 
ATOM     17  C   UNL     1      -7.216  -3.870  -3.385  0.00  0.00    +0.007 A 
ATOM     18  C   UNL     1      -8.511  -4.351  -3.370  0.00  0.00    +0.023 A 
ATOM     19  C   UNL     1      -9.502  -3.651  -2.696  0.00  0.00    +0.035 A 
ATOM     20  C   UNL     1      -9.189  -2.468  -2.039  0.00  0.00    +0.023 A 
ATOM     21  C   UNL     1      -7.891  -1.996  -2.053  0.00  0.00    +0.007 A 
BRANCH  19  22
ATOM     22  N   UNL     1     -10.815  -4.135  -2.680  0.00  0.00    -0.270 N 
ATOM     23  C   UNL     1     -11.044  -5.463  -2.680  0.00  0.00    +0.301 C 
ATOM     24  O   UNL     1     -10.112  -6.240  -2.596  0.00  0.00    -0.253 OA
ATOM     25  N   UNL     1     -12.305  -5.930  -2.773  0.00  0.00    -0.313 N 
ATOM     26  H   UNL     1     -11.561  -3.514  -2.669  0.00  0.00    +0.156 HD
ATOM     27  H   UNL     1     -13.048  -5.310  -2.839  0.00  0.00    +0.146 HD
ATOM     28  H   UNL     1     -12.469  -6.886  -2.772  0.00  0.00    +0.146 HD
ENDBRANCH  19  22
ENDBRANCH  15  16
ENDBRANCH   3  15
TORSDOF 5
