REMARK  Name = ZINC41001790
REMARK  15 active torsions:
REMARK  status: ('A' for Active; 'I' for Inactive)
REMARK    1  A    between atoms: C_1  and  C_2
REMARK    2  A    between atoms: C_2  and  O_3
REMARK    3  A    between atoms: O_3  and  C_4
REMARK    4  A    between atoms: C_6  and  C_13
REMARK    5  A    between atoms: C_9  and  O_10
REMARK    6  A    between atoms: O_10  and  C_11
REMARK    7  A    between atoms: C_15  and  C_27
REMARK    8  A    between atoms: C_16  and  C_26
REMARK    9  A    between atoms: C_21  and  S_23
REMARK   10  A    between atoms: S_23  and  C_24
REMARK   11  A    between atoms: C_24  and  C_25
REMARK   12  A    between atoms: C_27  and  O_29
REMARK   13  A    between atoms: O_29  and  C_30
REMARK   14  A    between atoms: C_30  and  C_31
REMARK   15  A    between atoms: C_30  and  C_32
REMARK                            x       y       z     vdW  Elec       q    Type
REMARK                         _______ _______ _______ _____ _____    ______ ____
ROOT
ATOM      1  C   UNL     1      -0.206  -4.951   0.373  0.00  0.00    +0.179 C 
ATOM      2  C   UNL     1      -1.179  -5.832  -0.363  0.00  0.00    +0.082 C 
ATOM      3  C   UNL     1      -1.008  -7.156  -0.504  0.00  0.00    +0.020 C 
ATOM      4  N   UNL     1       0.074  -7.813   0.027  0.00  0.00    -0.287 N 
ATOM      5  C   UNL     1       0.857  -7.121   0.942  0.00  0.00    +0.219 A 
ATOM      6  N   UNL     1       0.735  -5.783   1.119  0.00  0.00    -0.220 N 
ATOM      7  N   UNL     1       1.653  -5.425   2.105  0.00  0.00    -0.141 NA
ATOM      8  C   UNL     1       2.273  -6.529   2.463  0.00  0.00    +0.210 A 
ATOM      9  N   UNL     1       1.784  -7.555   1.751  0.00  0.00    -0.187 NA
ATOM     10  C   UNL     1      -2.036  -7.946  -1.270  0.00  0.00    +0.061 C 
ATOM     11  H   UNL     1       0.283  -8.725  -0.227  0.00  0.00    +0.155 HD
ENDROOT
BRANCH   1  14
ATOM     12  C   UNL     1       1.169  -1.940  -1.448  0.00  0.00    +0.163 A 
ATOM     13  C   UNL     1       0.475  -2.723  -0.540  0.00  0.00    +0.055 A 
ATOM     14  C   UNL     1       0.550  -4.101  -0.616  0.00  0.00    -0.014 A 
ATOM     15  C   UNL     1       1.317  -4.702  -1.596  0.00  0.00    +0.025 A 
ATOM     16  C   UNL     1       2.013  -3.926  -2.506  0.00  0.00    +0.063 A 
ATOM     17  C   UNL     1       1.937  -2.543  -2.439  0.00  0.00    +0.175 A 
ATOM     18 BR   UNL     1       3.063  -4.752  -3.845  0.00  0.00    -0.046 Br
BRANCH  17  19
ATOM     19  O   UNL     1       2.615  -1.779  -3.336  0.00  0.00    -0.490 OA
ATOM     20  C   UNL     1       3.950  -1.402  -2.989  0.00  0.00    +0.277 C 
ENDBRANCH  17  19
BRANCH  12  21
ATOM     21  O   UNL     1       1.096  -0.584  -1.374  0.00  0.00    -0.489 OA
BRANCH  21  23
ATOM     22  C   UNL     1       0.329   1.494  -0.407  0.00  0.00    +0.048 C 
ATOM     23  C   UNL     1       0.289  -0.033  -0.331  0.00  0.00    +0.226 C 
ENDBRANCH  21  23
ENDBRANCH  12  21
ENDBRANCH   1  14
BRANCH   2  24
ATOM     24  C   UNL     1      -2.328  -5.238  -0.931  0.00  0.00    +0.339 C 
ATOM     25  O   UNL     1      -3.251  -4.893  -0.218  0.00  0.00    -0.245 OA
BRANCH  24  26
ATOM     26  O   UNL     1      -2.401  -5.053  -2.267  0.00  0.00    -0.459 OA
BRANCH  26  27
ATOM     27  C   UNL     1      -3.592  -4.447  -2.773  0.00  0.00    +0.171 C 
ATOM     28  C   UNL     1      -3.262  -3.657  -4.041  0.00  0.00    +0.052 C 
ATOM     29  C   UNL     1      -4.618  -5.533  -3.101  0.00  0.00    +0.052 C 
ENDBRANCH  26  27
ENDBRANCH  24  26
ENDBRANCH   2  24
BRANCH   8  30
ATOM     30  S   UNL     1       3.541  -6.641   3.682  0.00  0.00    -0.085 S 
BRANCH  30  31
ATOM     31  C   UNL     1       3.972  -8.403   3.705  0.00  0.00    +0.074 C 
ATOM     32  C   UNL     1       5.077  -8.644   4.736  0.00  0.00    +0.016 C 
ENDBRANCH  30  31
ENDBRANCH   8  30
TORSDOF 9
