REMARK  Name = ZINC62825345
REMARK  4 active torsions:
REMARK  status: ('A' for Active; 'I' for Inactive)
REMARK    1  A    between atoms: C_5  and  N_10
REMARK    2  A    between atoms: C_6  and  C_7
REMARK    3  A    between atoms: C_11  and  C_13
REMARK    4  A    between atoms: C_13  and  N_14
REMARK                            x       y       z     vdW  Elec       q    Type
REMARK                         _______ _______ _______ _____ _____    ______ ____
ROOT
ATOM      1  C   UNL     1       0.196   1.372   0.783  0.00  0.00    +0.032 A 
ATOM      2  C   UNL     1       1.162   2.094   0.115  0.00  0.00    +0.020 A 
ATOM      3  C   UNL     1       2.152   1.441  -0.604  0.00  0.00    +0.032 A 
ATOM      4  C   UNL     1       2.182   0.061  -0.659  0.00  0.00    +0.041 A 
ATOM      5  C   UNL     1       1.217  -0.683   0.007  0.00  0.00    +0.062 A 
ATOM      6  C   UNL     1       0.213  -0.026   0.737  0.00  0.00    +0.086 A 
ATOM      7 BR   UNL     1       3.537  -0.815  -1.645  0.00  0.00    -0.048 Br
ATOM      8 BR   UNL     1       1.137   3.983   0.179  0.00  0.00    -0.050 Br
ENDROOT
BRANCH   5   9
ATOM      9  N   UNL     1       1.245  -2.074  -0.049  0.00  0.00    -0.286 N 
ATOM     10  C   UNL     1       2.408  -2.732   0.125  0.00  0.00    +0.200 C 
ATOM     11  O   UNL     1       3.419  -2.117   0.390  0.00  0.00    -0.278 OA
ATOM     12  H   UNL     1       0.427  -2.569  -0.212  0.00  0.00    +0.155 HD
BRANCH  10  13
ATOM     13  C   UNL     1       2.452  -4.232  -0.010  0.00  0.00    +0.011 C 
BRANCH  13  14
ATOM     14  N   UNL     1       3.824  -4.705   0.223  0.00  0.00    +0.384 N 
ATOM     15  H   UNL     1       4.443  -4.288  -0.455  0.00  0.00    -0.089 HD
ATOM     16  H   UNL     1       4.116  -4.442   1.152  0.00  0.00    -0.089 HD
ATOM     17  H   UNL     1       3.853  -5.709   0.133  0.00  0.00    -0.089 HD
ENDBRANCH  13  14
ENDBRANCH  10  13
ENDBRANCH   5   9
BRANCH   6  18
ATOM     18  C   UNL     1      -0.814  -0.803   1.448  0.00  0.00    +0.388 C 
ATOM     19  O   UNL     1      -1.747  -0.229   1.994  0.00  0.00    -0.241 OA
ATOM     20  O   UNL     1      -0.736  -2.023   1.493  0.00  0.00    -0.241 OA
ENDBRANCH   6  18
TORSDOF 4
