REMARK  Name = ZINC41000971
REMARK  14 active torsions:
REMARK  status: ('A' for Active; 'I' for Inactive)
REMARK    1  A    between atoms: C_1  and  C_2
REMARK    2  A    between atoms: C_2  and  C_3
REMARK    3  A    between atoms: C_3  and  C_4
REMARK    4  A    between atoms: C_4  and  S_5
REMARK    5  A    between atoms: S_5  and  C_6
REMARK    6  A    between atoms: C_11  and  C_20
REMARK    7  A    between atoms: C_13  and  C_17
REMARK    8  A    between atoms: C_14  and  C_16
REMARK    9  A    between atoms: C_17  and  C_19
REMARK   10  A    between atoms: C_22  and  O_30
REMARK   11  A    between atoms: C_23  and  O_27
REMARK   12  A    between atoms: O_27  and  C_28
REMARK   13  A    between atoms: C_28  and  C_29
REMARK   14  A    between atoms: O_30  and  C_31
REMARK                            x       y       z     vdW  Elec       q    Type
REMARK                         _______ _______ _______ _____ _____    ______ ____
ROOT
ATOM      1  C   UNL     1       1.750  -4.448   2.799  0.00  0.00    +0.210 A 
ATOM      2  N   UNL     1       1.153  -5.008   1.736  0.00  0.00    -0.187 NA
ATOM      3  C   UNL     1       1.218  -6.308   1.835  0.00  0.00    +0.219 A 
ATOM      4  N   UNL     1       1.865  -6.611   2.987  0.00  0.00    -0.220 N 
ATOM      5  N   UNL     1       2.205  -5.399   3.586  0.00  0.00    -0.141 NA
ATOM      6  C   UNL     1       2.116  -7.978   3.439  0.00  0.00    +0.176 C 
ATOM      7  C   UNL     1       1.826  -8.937   2.315  0.00  0.00    +0.040 C 
ATOM      8  C   UNL     1       1.181  -8.575   1.189  0.00  0.00    +0.016 C 
ATOM      9  N   UNL     1       0.747  -7.293   0.978  0.00  0.00    -0.287 N 
ATOM     10  C   UNL     1       0.929  -9.614   0.128  0.00  0.00    +0.061 C 
ATOM     11  H   UNL     1       0.135  -7.082   0.256  0.00  0.00    +0.155 HD
ENDROOT
BRANCH   6  12
ATOM     12  C   UNL     1       1.224  -8.292   4.611  0.00  0.00    -0.014 A 
ATOM     13  C   UNL     1       1.780  -8.631   5.831  0.00  0.00    +0.055 A 
ATOM     14  C   UNL     1       0.961  -8.921   6.910  0.00  0.00    +0.163 A 
ATOM     15  C   UNL     1      -0.422  -8.868   6.764  0.00  0.00    +0.176 A 
ATOM     16  C   UNL     1      -0.974  -8.526   5.540  0.00  0.00    +0.063 A 
ATOM     17  C   UNL     1      -0.150  -8.234   4.467  0.00  0.00    +0.025 A 
ATOM     18 BR   UNL     1      -2.853  -8.453   5.336  0.00  0.00    -0.046 Br
BRANCH  14  19
ATOM     19  O   UNL     1       1.507  -9.256   8.110  0.00  0.00    -0.491 OA
ATOM     20  C   UNL     1       2.934  -9.290   8.186  0.00  0.00    +0.277 C 
ENDBRANCH  14  19
BRANCH  15  21
ATOM     21  O   UNL     1      -1.230  -9.151   7.821  0.00  0.00    -0.487 OA
BRANCH  21  22
ATOM     22  C   UNL     1      -1.604  -8.059   8.663  0.00  0.00    +0.226 C 
ATOM     23  C   UNL     1      -2.507  -8.568   9.788  0.00  0.00    +0.048 C 
ENDBRANCH  21  22
ENDBRANCH  15  21
ENDBRANCH   6  12
BRANCH   7  24
ATOM     24  C   UNL     1       2.247 -10.269   2.447  0.00  0.00    +0.160 C 
ATOM     25  O   UNL     1       1.426 -11.160   2.535  0.00  0.00    -0.293 OA
ATOM     26  C   UNL     1       3.719 -10.594   2.478  0.00  0.00    +0.091 C 
ENDBRANCH   7  24
BRANCH   1  27
ATOM     27  S   UNL     1       1.905  -2.717   3.090  0.00  0.00    -0.084 S 
BRANCH  27  28
ATOM     28  C   UNL     1       1.085  -1.956   1.661  0.00  0.00    +0.077 C 
BRANCH  28  29
ATOM     29  C   UNL     1       1.148  -0.433   1.789  0.00  0.00    +0.011 C 
BRANCH  29  31
ATOM     30  C   UNL     1       0.520   1.732   0.711  0.00  0.00    +0.004 C 
ATOM     31  C   UNL     1       0.457   0.208   0.584  0.00  0.00    -0.003 C 
ENDBRANCH  29  31
ENDBRANCH  28  29
ENDBRANCH  27  28
ENDBRANCH   1  27
TORSDOF 9
