REMARK  Name = ZINC35664144
REMARK  13 active torsions:
REMARK  status: ('A' for Active; 'I' for Inactive)
REMARK    1  A    between atoms: C_1  and  C_2
REMARK    2  A    between atoms: C_2  and  N_3
REMARK    3  A    between atoms: C_4  and  C_25
REMARK    4  A    between atoms: C_5  and  C_20
REMARK    5  A    between atoms: C_6  and  C_11
REMARK    6  A    between atoms: C_14  and  C_17
REMARK    7  A    between atoms: C_17  and  C_18
REMARK    8  A    between atoms: C_17  and  C_19
REMARK    9  A    between atoms: C_20  and  O_22
REMARK   10  A    between atoms: O_22  and  C_23
REMARK   11  A    between atoms: C_23  and  C_24
REMARK   12  A    between atoms: C_25  and  N_26
REMARK   13  A    between atoms: C_32  and  C_34
REMARK                            x       y       z     vdW  Elec       q    Type
REMARK                         _______ _______ _______ _____ _____    ______ ____
ROOT
ATOM      1  N   UNL     1       0.743  -0.445  -1.190  0.00  0.00    -0.258 N 
ATOM      2  C   UNL     1      -0.033  -0.577  -2.307  0.00  0.00    +0.041 C 
ATOM      3  C   UNL     1       0.484  -1.045  -3.463  0.00  0.00    +0.080 C 
ATOM      4  C   UNL     1       1.953  -1.418  -3.479  0.00  0.00    +0.144 C 
ATOM      5  N   UNL     1       2.701  -1.237  -2.224  0.00  0.00    -0.288 N 
ATOM      6  C   UNL     1       2.045  -0.754  -1.150  0.00  0.00    +0.307 C 
ATOM      7  O   UNL     1       2.654  -0.598  -0.110  0.00  0.00    -0.252 OA
ATOM      8  H   UNL     1       3.644  -1.458  -2.171  0.00  0.00    +0.151 HD
ENDROOT
BRANCH   4   9
ATOM      9  C   UNL     1       2.060  -2.867  -3.879  0.00  0.00    -0.022 A 
ATOM     10  C   UNL     1       1.828  -3.860  -2.946  0.00  0.00    +0.006 A 
ATOM     11  C   UNL     1       1.926  -5.189  -3.313  0.00  0.00    +0.004 A 
ATOM     12  C   UNL     1       2.256  -5.525  -4.612  0.00  0.00    -0.045 A 
ATOM     13  C   UNL     1       2.486  -4.532  -5.546  0.00  0.00    +0.004 A 
ATOM     14  C   UNL     1       2.384  -3.203  -5.180  0.00  0.00    +0.006 A 
BRANCH  12  15
ATOM     15  C   UNL     1       2.364  -6.974  -5.012  0.00  0.00    +0.013 C 
ATOM     16  C   UNL     1       1.358  -7.273  -6.125  0.00  0.00    +0.012 C 
ATOM     17  C   UNL     1       3.780  -7.261  -5.514  0.00  0.00    +0.012 C 
ENDBRANCH  12  15
ENDBRANCH   4   9
BRANCH   1  19
ATOM     18  C   UNL     1       0.230   1.595   0.057  0.00  0.00    +0.025 C 
ATOM     19  C   UNL     1       0.116   0.070   0.030  0.00  0.00    +0.111 C 
ENDBRANCH   1  19
BRANCH   3  20
ATOM     20  C   UNL     1      -0.318  -1.183  -4.620  0.00  0.00    +0.339 C 
ATOM     21  O   UNL     1      -0.763  -2.274  -4.925  0.00  0.00    -0.245 OA
BRANCH  20  22
ATOM     22  O   UNL     1      -0.591  -0.105  -5.385  0.00  0.00    -0.462 OA
BRANCH  22  23
ATOM     23  C   UNL     1      -1.407  -0.318  -6.538  0.00  0.00    +0.229 C 
ATOM     24  C   UNL     1      -1.605   1.008  -7.274  0.00  0.00    +0.048 C 
ENDBRANCH  22  23
ENDBRANCH  20  22
ENDBRANCH   3  20
BRANCH   2  25
ATOM     25  C   UNL     1      -1.489  -0.194  -2.247  0.00  0.00    +0.136 C 
BRANCH  25  26
ATOM     26  N   UNL     1      -2.202  -1.119  -1.355  0.00  0.00    -0.294 NA
ATOM     27  C   UNL     1      -2.213  -2.480  -1.908  0.00  0.00    +0.104 C 
ATOM     28  C   UNL     1      -2.802  -3.443  -0.872  0.00  0.00    +0.123 C 
ATOM     29  N   UNL     1      -4.116  -2.932  -0.452  0.00  0.00    -0.299 N 
ATOM     30  C   UNL     1      -4.209  -1.531  -0.014  0.00  0.00    +0.123 C 
ATOM     31  C   UNL     1      -3.565  -0.642  -1.084  0.00  0.00    +0.104 C 
ATOM     32  C   UNL     1      -5.204  -3.726  -0.467  0.00  0.00    +0.219 C 
ATOM     33  O   UNL     1      -5.109  -4.879  -0.831  0.00  0.00    -0.275 OA
BRANCH  32  34
ATOM     34  C   UNL     1      -6.541  -3.181  -0.032  0.00  0.00    +0.075 C 
ATOM     35  C   UNL     1      -6.742  -3.187   1.492  0.00  0.00    +0.013 C 
ATOM     36  C   UNL     1      -8.190  -3.628   1.220  0.00  0.00    +0.001 C 
ATOM     37  C   UNL     1      -7.680  -4.212  -0.108  0.00  0.00    +0.013 C 
ENDBRANCH  32  34
ENDBRANCH  25  26
ENDBRANCH   2  25
TORSDOF 9
