REMARK  Name = ZINC36065834
REMARK  11 active torsions:
REMARK  status: ('A' for Active; 'I' for Inactive)
REMARK    1  A    between atoms: C_1  and  C_2
REMARK    2  A    between atoms: C_2  and  C_3
REMARK    3  A    between atoms: C_2  and  C_4
REMARK    4  A    between atoms: C_4  and  N_5
REMARK    5  A    between atoms: C_6  and  C_8
REMARK    6  A    between atoms: C_11  and  C_13
REMARK    7  A    between atoms: C_13  and  N_14
REMARK    8  A    between atoms: N_14  and  C_15
REMARK    9  A    between atoms: N_14  and  C_25
REMARK   10  A    between atoms: C_15  and  C_16
REMARK   11  A    between atoms: C_25  and  C_26
REMARK                            x       y       z     vdW  Elec       q    Type
REMARK                         _______ _______ _______ _____ _____    ______ ____
ROOT
ATOM      1  N   UNL     1      -0.496  -7.920   0.933  0.00  0.00    +0.391 N 
ATOM      2  H   UNL     1       0.030  -7.197   1.399  0.00  0.00    -0.080 HD
ENDROOT
BRANCH   1   3
ATOM      3  C   UNL     1      -1.010  -7.407  -0.344  0.00  0.00    +0.020 C 
BRANCH   3   7
ATOM      4  C   UNL     1      -2.336  -4.075   0.165  0.00  0.00    +0.163 A 
ATOM      5  C   UNL     1      -3.468  -4.815   0.321  0.00  0.00    +0.230 A 
ATOM      6  O   UNL     1      -3.120  -6.101   0.155  0.00  0.00    -0.449 OA
ATOM      7  C   UNL     1      -1.804  -6.151  -0.097  0.00  0.00    +0.179 A 
ATOM      8  N   UNL     1      -1.323  -4.944  -0.100  0.00  0.00    -0.210 NA
BRANCH   4  10
ATOM      9  N   UNL     1      -1.038  -2.005   0.073  0.00  0.00    -0.310 N 
ATOM     10  C   UNL     1      -2.230  -2.607   0.258  0.00  0.00    +0.266 C 
ATOM     11  O   UNL     1      -3.217  -1.940   0.501  0.00  0.00    -0.268 OA
ATOM     12  H   UNL     1      -0.251  -2.537  -0.121  0.00  0.00    +0.149 HD
BRANCH   9  13
ATOM     13  C   UNL     1      -0.933  -0.547   0.166  0.00  0.00    +0.107 C 
BRANCH  13  15
ATOM     14  C   UNL     1       0.605   1.403  -0.110  0.00  0.00    +0.009 C 
ATOM     15  C   UNL     1       0.517  -0.124  -0.083  0.00  0.00    -0.000 C 
ATOM     16  C   UNL     1       1.405  -0.666   1.038  0.00  0.00    +0.009 C 
ENDBRANCH  13  15
ENDBRANCH   9  13
ENDBRANCH   4  10
ENDBRANCH   3   7
ENDBRANCH   1   3
BRANCH   1  17
ATOM     17  C   UNL     1       0.376  -9.075   0.681  0.00  0.00    -0.042 C 
BRANCH  17  18
ATOM     18  C   UNL     1       1.599  -8.626  -0.074  0.00  0.00    -0.060 A 
ATOM     19  C   UNL     1       1.635  -8.727  -1.453  0.00  0.00    +0.005 A 
ATOM     20  C   UNL     1       2.755  -8.316  -2.151  0.00  0.00    +0.050 A 
ATOM     21  C   UNL     1       3.846  -7.800  -1.469  0.00  0.00    +0.166 A 
ATOM     22  C   UNL     1       3.810  -7.697  -0.081  0.00  0.00    +0.166 A 
ATOM     23  C   UNL     1       2.682  -8.107   0.611  0.00  0.00    +0.051 A 
ATOM     24  O   UNL     1       4.991  -7.165   0.348  0.00  0.00    -0.453 OA
ATOM     25  C   UNL     1       5.906  -7.323  -0.753  0.00  0.00    +0.466 C 
ATOM     26  O   UNL     1       5.050  -7.332  -1.911  0.00  0.00    -0.453 OA
ENDBRANCH  17  18
ENDBRANCH   1  17
BRANCH   1  27
ATOM     27  C   UNL     1      -1.621  -8.332   1.783  0.00  0.00    -0.040 C 
BRANCH  27  28
ATOM     28  C   UNL     1      -1.103  -8.749   3.136  0.00  0.00    -0.046 A 
ATOM     29  C   UNL     1      -0.999 -10.090   3.453  0.00  0.00    +0.004 A 
ATOM     30  C   UNL     1      -0.523 -10.473   4.693  0.00  0.00    +0.020 A 
ATOM     31  C   UNL     1      -0.150  -9.513   5.618  0.00  0.00    +0.042 A 
ATOM     32  C   UNL     1      -0.253  -8.170   5.300  0.00  0.00    +0.040 A 
ATOM     33  C   UNL     1      -0.725  -7.788   4.057  0.00  0.00    +0.044 A 
ATOM     34 CL   UNL     1      -0.849  -6.104   3.656  0.00  0.00    -0.083 Cl
ATOM     35 CL   UNL     1       0.447  -9.993   7.175  0.00  0.00    -0.083 Cl
ENDBRANCH  27  28
ENDBRANCH   1  27
TORSDOF 9
