REMARK  Name = ZINC04061297
REMARK  1 active torsions:
REMARK  status: ('A' for Active; 'I' for Inactive)
REMARK    1  A    between atoms: C_5  and  C_7
REMARK                            x       y       z     vdW  Elec       q    Type
REMARK                         _______ _______ _______ _____ _____    ______ ____
ROOT
ATOM      1  C   UNL     1       0.002  -0.004   0.002  0.00  0.00    +0.098 A 
ATOM      2  C   UNL     1      -1.168  -0.711   0.009  0.00  0.00    +0.078 A 
ATOM      3  S   UNL     1      -0.545  -2.387  -0.006  0.00  0.00    -0.060 S 
ATOM      4  C   UNL     1       1.196  -1.981  -0.021  0.00  0.00    +0.164 A 
ATOM      5  N   UNL     1       1.159  -0.661  -0.018  0.00  0.00    -0.223 NA
ATOM      6  N   UNL     1       2.294  -2.828  -0.036  0.00  0.00    -0.273 N 
ATOM      7  C   UNL     1       2.110  -4.198  -0.043  0.00  0.00    +0.165 A 
ATOM      8  N   UNL     1       3.014  -5.150  -0.057  0.00  0.00    -0.225 NA
ATOM      9  C   UNL     1       2.687  -6.462  -0.062  0.00  0.00    +0.080 A 
ATOM     10  C   UNL     1       3.555  -7.577  -0.076  0.00  0.00    +0.032 A 
ATOM     11  C   UNL     1       3.056  -8.854  -0.079  0.00  0.00    +0.040 A 
ATOM     12  C   UNL     1       1.689  -9.098  -0.067  0.00  0.00    +0.125 A 
ATOM     13  C   UNL     1       0.810  -8.028  -0.052  0.00  0.00    +0.055 A 
ATOM     14  C   UNL     1       1.303  -6.747  -0.050  0.00  0.00    +0.043 A 
ATOM     15  S   UNL     1       0.581  -5.124  -0.026  0.00  0.00    -0.052 S 
ATOM     16  F   UNL     1       1.222 -10.366  -0.069  0.00  0.00    -0.205 F 
ATOM     17  H   UNL     1       3.191  -2.459  -0.043  0.00  0.00    +0.156 HD
ENDROOT
BRANCH   1  22
ATOM     18  C   UNL     1       1.148   3.568   0.010  0.00  0.00    +0.004 A 
ATOM     19  C   UNL     1      -0.088   4.200   0.025  0.00  0.00    +0.020 A 
ATOM     20  C   UNL     1      -1.240   3.437   0.032  0.00  0.00    +0.111 A 
ATOM     21  N   UNL     1      -1.179   2.120   0.019  0.00  0.00    -0.253 NA
ATOM     22  C   UNL     1      -0.018   1.477   0.010  0.00  0.00    +0.090 A 
ATOM     23  C   UNL     1       1.183   2.186   0.003  0.00  0.00    +0.030 A 
ENDBRANCH   1  22
TORSDOF 1
