REMARK  Name = ZINC00688614
REMARK  5 active torsions:
REMARK  status: ('A' for Active; 'I' for Inactive)
REMARK    1  A    between atoms: C_1  and  C_2
REMARK    2  A    between atoms: C_3  and  C_22
REMARK    3  A    between atoms: C_4  and  C_16
REMARK    4  A    between atoms: C_10  and  C_14
REMARK    5  A    between atoms: C_10  and  C_15
REMARK                            x       y       z     vdW  Elec       q    Type
REMARK                         _______ _______ _______ _____ _____    ______ ____
ROOT
ATOM      1  C   UNL     1      -3.654   2.879  -0.305  0.00  0.00    +0.061 C 
ATOM      2  C   UNL     1      -3.548   1.382  -0.160  0.00  0.00    +0.014 C 
ATOM      3  C   UNL     1      -2.342   0.811  -0.005  0.00  0.00    +0.043 C 
ATOM      4  C   UNL     1      -2.197  -0.676   0.129  0.00  0.00    +0.092 C 
ATOM      5  C   UNL     1      -3.512  -1.314   0.508  0.00  0.00    +0.024 C 
ATOM      6  C   UNL     1      -4.675  -0.654   0.324  0.00  0.00    +0.016 C 
ATOM      7  N   UNL     1      -4.680   0.616  -0.187  0.00  0.00    -0.321 N 
ATOM      8  C   UNL     1      -5.996  -1.296   0.672  0.00  0.00    +0.058 C 
ATOM      9  C   UNL     1      -5.805  -2.260   1.845  0.00  0.00    -0.023 C 
ATOM     10  C   UNL     1      -4.763  -3.310   1.447  0.00  0.00    +0.086 C 
ATOM     11  C   UNL     1      -3.492  -2.613   1.046  0.00  0.00    +0.162 C 
ATOM     12  O   UNL     1      -2.428  -3.182   1.191  0.00  0.00    -0.292 OA
ATOM     13  C   UNL     1      -5.313  -1.486   3.070  0.00  0.00    +0.011 C 
ATOM     14  C   UNL     1      -7.134  -2.945   2.169  0.00  0.00    +0.011 C 
ATOM     15  H   UNL     1      -5.607   1.018  -0.623  0.00  0.00    +0.152 HD
ENDROOT
BRANCH   3  16
ATOM     16  C   UNL     1      -1.185   1.628   0.026  0.00  0.00    +0.248 C 
ATOM     17  O   UNL     1      -0.634   1.862   1.085  0.00  0.00    -0.270 OA
ATOM     18  N   UNL     1      -0.695   2.145  -1.118  0.00  0.00    -0.267 N 
ATOM     19  C   UNL     1       0.494   2.870  -1.101  0.00  0.00    +0.125 A 
ATOM     20  C   UNL     1       1.054   3.304  -2.298  0.00  0.00    +0.045 A 
ATOM     21  C   UNL     1       2.235   4.024  -2.267  0.00  0.00    +0.020 A 
ATOM     22  C   UNL     1       2.819   4.286  -1.034  0.00  0.00    +0.036 A 
ATOM     23  C   UNL     1       2.208   3.824   0.116  0.00  0.00    +0.128 A 
ATOM     24  N   UNL     1       1.078   3.145   0.055  0.00  0.00    -0.239 NA
ATOM     25 BR   UNL     1       4.434   5.265  -0.930  0.00  0.00    -0.049 Br
ATOM     26  H   UNL     1      -1.234   1.995  -2.065  0.00  0.00    +0.157 HD
ENDBRANCH   3  16
BRANCH   4  27
ATOM     27  C   UNL     1      -1.723  -1.248  -1.182  0.00  0.00    -0.017 A 
ATOM     28  C   UNL     1      -0.520  -1.934  -1.255  0.00  0.00    +0.007 A 
ATOM     29  C   UNL     1      -0.126  -2.447  -2.482  0.00  0.00    +0.020 A 
ATOM     30  C   UNL     1      -0.934  -2.249  -3.585  0.00  0.00    +0.111 A 
ATOM     31  N   UNL     1      -2.070  -1.587  -3.480  0.00  0.00    -0.263 NA
ATOM     32  C   UNL     1      -2.478  -1.089  -2.329  0.00  0.00    +0.115 A 
ENDBRANCH   4  27
TORSDOF 2
