REMARK  Name = ZINC36145432
REMARK  13 active torsions:
REMARK  status: ('A' for Active; 'I' for Inactive)
REMARK    1  A    between atoms: C_1  and  C_2
REMARK    2  A    between atoms: C_2  and  O_4
REMARK    3  A    between atoms: O_4  and  C_5
REMARK    4  A    between atoms: C_6  and  C_26
REMARK    5  A    between atoms: C_7  and  C_17
REMARK    6  A    between atoms: N_9  and  C_10
REMARK    7  A    between atoms: C_20  and  N_23
REMARK    8  A    between atoms: N_23  and  C_24
REMARK    9  A    between atoms: N_23  and  C_25
REMARK   10  A    between atoms: C_29  and  N_32
REMARK   11  A    between atoms: C_33  and  C_35
REMARK   12  A    between atoms: C_35  and  O_36
REMARK   13  A    between atoms: O_36  and  C_37
REMARK                            x       y       z     vdW  Elec       q    Type
REMARK                         _______ _______ _______ _____ _____    ______ ____
ROOT
ATOM      1  C   UNL     1      -0.150  -2.359  -0.799  0.00  0.00    +0.235 A 
ATOM      2  C   UNL     1      -0.274  -3.262  -1.835  0.00  0.00    +0.072 A 
ATOM      3  C   UNL     1      -0.139  -4.560  -1.280  0.00  0.00    +0.105 A 
ATOM      4  N   UNL     1       0.054  -4.433   0.015  0.00  0.00    -0.163 NA
ATOM      5  N   UNL     1       0.057  -3.072   0.340  0.00  0.00    -0.199 N 
ENDROOT
BRANCH   5   6
ATOM      6  C   UNL     1       0.239  -2.536   1.622  0.00  0.00    +0.069 A 
ATOM      7  C   UNL     1       1.029  -1.407   1.797  0.00  0.00    +0.031 A 
ATOM      8  C   UNL     1       1.207  -0.880   3.061  0.00  0.00    +0.040 A 
ATOM      9  C   UNL     1       0.599  -1.476   4.153  0.00  0.00    +0.124 A 
ATOM     10  C   UNL     1      -0.189  -2.602   3.980  0.00  0.00    +0.040 A 
ATOM     11  C   UNL     1      -0.374  -3.129   2.717  0.00  0.00    +0.031 A 
ATOM     12  F   UNL     1       0.774  -0.959   5.389  0.00  0.00    -0.205 F 
ENDBRANCH   5   6
BRANCH   3  13
ATOM     13  C   UNL     1      -0.205  -5.837  -2.030  0.00  0.00    +0.003 A 
ATOM     14  C   UNL     1       0.423  -5.952  -3.270  0.00  0.00    +0.012 A 
ATOM     15  C   UNL     1       0.361  -7.141  -3.965  0.00  0.00    +0.024 A 
ATOM     16  C   UNL     1      -0.327  -8.225  -3.430  0.00  0.00    +0.029 A 
ATOM     17  C   UNL     1      -0.954  -8.112  -2.195  0.00  0.00    +0.024 A 
ATOM     18  C   UNL     1      -0.889  -6.927  -1.493  0.00  0.00    +0.012 A 
BRANCH  16  19
ATOM     19  N   UNL     1      -0.389  -9.428  -4.136  0.00  0.00    -0.336 N 
ATOM     20  C   UNL     1       0.271  -9.547  -5.439  0.00  0.00    +0.129 C 
ATOM     21  C   UNL     1      -1.114 -10.570  -3.574  0.00  0.00    +0.129 C 
ENDBRANCH  16  19
ENDBRANCH   3  13
BRANCH   2  22
ATOM     22  C   UNL     1      -0.505  -2.935  -3.262  0.00  0.00    -0.011 A 
ATOM     23  C   UNL     1      -1.704  -3.296  -3.876  0.00  0.00    +0.010 A 
ATOM     24  C   UNL     1      -1.916  -2.991  -5.204  0.00  0.00    +0.024 A 
ATOM     25  C   UNL     1      -0.937  -2.326  -5.930  0.00  0.00    +0.033 A 
ATOM     26  C   UNL     1       0.259  -1.965  -5.321  0.00  0.00    +0.024 A 
ATOM     27  C   UNL     1       0.474  -2.261  -3.992  0.00  0.00    +0.010 A 
BRANCH  25  28
ATOM     28  N   UNL     1      -1.155  -2.018  -7.278  0.00  0.00    -0.284 N 
ATOM     29  C   UNL     1      -0.682  -0.866  -7.792  0.00  0.00    +0.243 C 
ATOM     30  O   UNL     1       0.003  -0.134  -7.109  0.00  0.00    -0.273 OA
ATOM     31  H   UNL     1      -1.647  -2.635  -7.843  0.00  0.00    +0.155 HD
BRANCH  29  32
ATOM     32  C   UNL     1      -1.004  -0.486  -9.214  0.00  0.00    +0.255 C 
BRANCH  32  33
ATOM     33  O   UNL     1      -0.393   0.769  -9.522  0.00  0.00    -0.374 OA
ATOM     34  C   UNL     1      -0.637   1.222 -10.855  0.00  0.00    +0.194 C 
ENDBRANCH  32  33
ENDBRANCH  29  32
ENDBRANCH  25  28
ENDBRANCH   2  22
BRANCH   1  35
ATOM     35  O   UNL     1      -0.216  -1.007  -0.899  0.00  0.00    -0.407 OA
BRANCH  35  37
ATOM     36  C   UNL     1      -1.501   1.088  -0.662  0.00  0.00    +0.136 C 
ATOM     37  C   UNL     1      -1.400  -0.416  -0.674  0.00  0.00    +0.310 C 
ATOM     38  O   UNL     1      -2.385  -1.089  -0.481  0.00  0.00    -0.251 OA
ENDBRANCH  35  37
ENDBRANCH   1  35
TORSDOF 9
