REMARK  Name = ZINC32945320
REMARK  3 active torsions:
REMARK  status: ('A' for Active; 'I' for Inactive)
REMARK    1  A    between atoms: C_1  and  C_2
REMARK    2  A    between atoms: C_2  and  C_4
REMARK    3  A    between atoms: C_2  and  N_11
REMARK                            x       y       z     vdW  Elec       q    Type
REMARK                         _______ _______ _______ _____ _____    ______ ____
ROOT
ATOM      1  N   UNL     1       0.647  -0.689   1.124  0.00  0.00    -0.230 N 
ATOM      2  C   UNL     1       1.968  -0.612   1.373  0.00  0.00    +0.227 C 
ATOM      3  O   UNL     1       2.752   0.161   0.863  0.00  0.00    -0.275 OA
ATOM      4  C   UNL     1       2.298  -1.685   2.423  0.00  0.00    +0.091 C 
ATOM      5  C   UNL     1       2.598  -2.948   1.611  0.00  0.00    +0.040 C 
ATOM      6  C   UNL     1       2.154  -4.201   2.282  0.00  0.00    -0.030 C 
ATOM      7  C   UNL     1       1.303  -4.257   3.252  0.00  0.00    -0.030 C 
ATOM      8  C   UNL     1       0.679  -3.046   3.869  0.00  0.00    +0.040 C 
ATOM      9  C   UNL     1       0.929  -1.771   3.117  0.00  0.00    +0.091 C 
ATOM     10  C   UNL     1      -0.032  -1.454   2.008  0.00  0.00    +0.227 C 
ATOM     11  O   UNL     1      -1.186  -1.815   1.922  0.00  0.00    -0.275 OA
ENDROOT
BRANCH   1  13
ATOM     12  C   UNL     1       0.228   1.505   0.130  0.00  0.00    +0.038 C 
ATOM     13  C   UNL     1       0.003  -0.003   0.002  0.00  0.00    +0.167 C 
BRANCH  13  14
ATOM     14  C   UNL     1       0.597  -0.491  -1.294  0.00  0.00    +0.236 C 
ATOM     15  O   UNL     1       1.725  -0.935  -1.314  0.00  0.00    -0.274 OA
ATOM     16  N   UNL     1      -0.125  -0.435  -2.430  0.00  0.00    -0.300 N 
ATOM     17  C   UNL     1      -1.456   0.176  -2.571  0.00  0.00    +0.108 C 
ATOM     18  C   UNL     1      -1.897  -0.020  -4.037  0.00  0.00    +0.020 C 
ATOM     19  C   UNL     1      -1.037  -1.225  -4.501  0.00  0.00    +0.020 C 
ATOM     20  C   UNL     1       0.290  -0.969  -3.740  0.00  0.00    +0.108 C 
ENDBRANCH  13  14
ENDBRANCH   1  13
TORSDOF 2
