REMARK  Name = ZINC49486222
REMARK  7 active torsions:
REMARK  status: ('A' for Active; 'I' for Inactive)
REMARK    1  A    between atoms: C_3  and  C_6
REMARK    2  A    between atoms: C_6  and  C_8
REMARK    3  A    between atoms: C_6  and  N_23
REMARK    4  A    between atoms: C_8  and  N_9
REMARK    5  A    between atoms: C_10  and  C_12
REMARK    6  A    between atoms: C_12  and  C_18
REMARK    7  A    between atoms: N_26  and  C_29
REMARK                            x       y       z     vdW  Elec       q    Type
REMARK                         _______ _______ _______ _____ _____    ______ ____
ROOT
ATOM      1  C   UNL     1       3.679   0.841  -0.027  0.00  0.00    +0.017 C 
ENDROOT
BRANCH   1   2
ATOM      2  N   UNL     1       4.327  -0.058   0.937  0.00  0.00    +0.389 N 
ATOM      3  C   UNL     1       5.779   0.165   0.911  0.00  0.00    -0.059 C 
ATOM      4  C   UNL     1       6.466  -0.850   1.830  0.00  0.00    +0.086 C 
ATOM      5  N   UNL     1       5.861  -0.754   3.167  0.00  0.00    -0.333 N 
ATOM      6  C   UNL     1       4.394  -0.803   3.269  0.00  0.00    +0.086 C 
ATOM      7  C   UNL     1       3.804   0.210   2.282  0.00  0.00    -0.059 C 
ATOM      8  H   UNL     1       4.132  -1.016   0.685  0.00  0.00    -0.081 HD
BRANCH   5   9
ATOM      9  C   UNL     1       6.657  -0.618   4.309  0.00  0.00    +0.030 A 
ATOM     10  C   UNL     1       6.077  -0.657   5.570  0.00  0.00    +0.026 A 
ATOM     11  C   UNL     1       6.865  -0.523   6.696  0.00  0.00    +0.040 A 
ATOM     12  C   UNL     1       8.233  -0.351   6.568  0.00  0.00    +0.124 A 
ATOM     13  C   UNL     1       8.814  -0.312   5.312  0.00  0.00    +0.040 A 
ATOM     14  C   UNL     1       8.030  -0.451   4.183  0.00  0.00    +0.026 A 
ATOM     15  F   UNL     1       9.002  -0.220   7.671  0.00  0.00    -0.205 F 
ENDBRANCH   5   9
ENDBRANCH   1   2
BRANCH   1  18
ATOM     16  C   UNL     1       0.004   1.075   0.124  0.00  0.00    +0.041 A 
ATOM     17  C   UNL     1       1.279   1.673  -0.002  0.00  0.00    +0.043 A 
ATOM     18  C   UNL     1       2.183   0.679   0.063  0.00  0.00    +0.093 A 
ATOM     19  O   UNL     1       1.527  -0.482   0.221  0.00  0.00    -0.469 OA
ATOM     20  C   UNL     1       0.205  -0.248   0.259  0.00  0.00    +0.195 A 
ENDBRANCH   1  18
BRANCH   1  21
ATOM     21  C   UNL     1       4.145   0.495  -1.442  0.00  0.00    +0.096 C 
BRANCH  21  22
ATOM     22  N   UNL     1       3.886  -0.922  -1.709  0.00  0.00    -0.316 N 
ATOM     23  C   UNL     1       4.311  -1.481  -2.859  0.00  0.00    +0.224 C 
ATOM     24  O   UNL     1       4.827  -0.791  -3.713  0.00  0.00    -0.275 OA
ATOM     25  H   UNL     1       3.408  -1.459  -1.057  0.00  0.00    +0.149 HD
BRANCH  23  26
ATOM     26  C   UNL     1       4.146  -2.962  -3.084  0.00  0.00    +0.078 C 
ATOM     27  C   UNL     1       4.735  -3.726  -1.897  0.00  0.00    +0.021 C 
ATOM     28  C   UNL     1       6.223  -3.393  -1.763  0.00  0.00    +0.001 C 
ATOM     29  C   UNL     1       6.954  -3.799  -3.044  0.00  0.00    +0.000 C 
ATOM     30  C   UNL     1       6.365  -3.034  -4.231  0.00  0.00    +0.001 C 
ATOM     31  C   UNL     1       4.878  -3.367  -4.366  0.00  0.00    +0.021 C 
BRANCH  26  32
ATOM     32  C   UNL     1       2.682  -3.290  -3.216  0.00  0.00    +0.005 A 
ATOM     33  C   UNL     1       1.666  -3.023  -2.359  0.00  0.00    +0.012 A 
ATOM     34  C   UNL     1       0.386  -3.422  -2.692  0.00  0.00    +0.008 A 
ATOM     35  C   UNL     1       0.182  -4.068  -3.865  0.00  0.00    +0.045 A 
ATOM     36  S   UNL     1       1.832  -4.124  -4.546  0.00  0.00    -0.101 S 
ENDBRANCH  26  32
ENDBRANCH  23  26
ENDBRANCH  21  22
ENDBRANCH   1  21
TORSDOF 7
