REMARK  Name = ZINC52582291
REMARK  8 active torsions:
REMARK  status: ('A' for Active; 'I' for Inactive)
REMARK    1  A    between atoms: C_1  and  C_2
REMARK    2  A    between atoms: N_5  and  C_8
REMARK    3  A    between atoms: C_8  and  C_10
REMARK    4  A    between atoms: C_8  and  C_24
REMARK    5  A    between atoms: C_10  and  N_11
REMARK    6  A    between atoms: N_14  and  N_15
REMARK    7  A    between atoms: C_16  and  C_18
REMARK    8  A    between atoms: N_20  and  C_21
REMARK                            x       y       z     vdW  Elec       q    Type
REMARK                         _______ _______ _______ _____ _____    ______ ____
ROOT
ATOM      1  N   UNL     1       0.238  -5.859   2.589  0.00  0.00    -0.299 N 
ATOM      2  C   UNL     1       0.851  -6.493   3.607  0.00  0.00    +0.316 C 
ATOM      3  O   UNL     1       1.275  -5.857   4.553  0.00  0.00    -0.251 OA
ATOM      4  N   UNL     1       0.995  -7.833   3.578  0.00  0.00    -0.218 N 
ATOM      5  H   UNL     1      -0.101  -6.366   1.835  0.00  0.00    +0.150 HD
ATOM      6  H   UNL     1       1.436  -8.290   4.311  0.00  0.00    +0.174 HD
ENDROOT
BRANCH   4   7
ATOM      7  N   UNL     1       0.506  -8.566   2.488  0.00  0.00    -0.225 N 
ATOM      8  C   UNL     1       0.649  -9.906   2.459  0.00  0.00    +0.315 C 
ATOM      9  O   UNL     1       1.202 -10.477   3.376  0.00  0.00    -0.264 OA
ATOM     10  H   UNL     1       0.065  -8.109   1.755  0.00  0.00    +0.173 HD
BRANCH   8  11
ATOM     11  C   UNL     1       0.128 -10.688   1.296  0.00  0.00    +0.301 C 
ATOM     12  O   UNL     1      -0.424 -10.116   0.380  0.00  0.00    -0.265 OA
ATOM     13  N   UNL     1       0.272 -12.027   1.267  0.00  0.00    -0.305 N 
ATOM     14  H   UNL     1       0.713 -12.484   2.000  0.00  0.00    +0.149 HD
BRANCH  13  15
ATOM     15  C   UNL     1      -0.239 -12.794   0.128  0.00  0.00    +0.073 C 
ATOM     16  C   UNL     1      -0.990 -14.092   0.430  0.00  0.00    +0.024 C 
ATOM     17  C   UNL     1       0.418 -14.144  -0.167  0.00  0.00    +0.024 C 
ENDBRANCH  13  15
ENDBRANCH   8  11
ENDBRANCH   4   7
BRANCH   1  18
ATOM     18  C   UNL     1       0.082  -4.402   2.621  0.00  0.00    +0.095 C 
BRANCH  18  19
ATOM     19  C   UNL     1      -0.759  -3.953   1.425  0.00  0.00    -0.020 C 
BRANCH  19  24
ATOM     20  C   UNL     1      -0.646   1.641   0.321  0.00  0.00    +0.007 C 
ATOM     21  C   UNL     1      -0.495   0.122   0.208  0.00  0.00    -0.018 C 
ATOM     22  C   UNL     1      -1.871  -0.539   0.331  0.00  0.00    -0.015 C 
ATOM     23  C   UNL     1      -1.704  -2.060   0.298  0.00  0.00    -0.078 C 
ATOM     24  N   UNL     1      -0.853  -2.487   1.415  0.00  0.00    +0.385 N 
ATOM     25  C   UNL     1       0.490  -1.914   1.265  0.00  0.00    -0.078 C 
ATOM     26  C   UNL     1       0.408  -0.387   1.335  0.00  0.00    -0.015 C 
ATOM     27  H   UNL     1      -1.257  -2.172   2.284  0.00  0.00    -0.081 HD
ENDBRANCH  19  24
BRANCH  19  28
ATOM     28  C   UNL     1      -2.142  -4.544   1.532  0.00  0.00    -0.059 A 
ATOM     29  C   UNL     1      -3.081  -3.959   2.361  0.00  0.00    +0.002 A 
ATOM     30  C   UNL     1      -4.348  -4.501   2.460  0.00  0.00    +0.000 A 
ATOM     31  C   UNL     1      -4.678  -5.627   1.729  0.00  0.00    +0.000 A 
ATOM     32  C   UNL     1      -3.739  -6.211   0.899  0.00  0.00    +0.000 A 
ATOM     33  C   UNL     1      -2.472  -5.667   0.797  0.00  0.00    +0.002 A 
ENDBRANCH  19  28
ENDBRANCH  18  19
ENDBRANCH   1  18
TORSDOF 7
