REMARK  Name = ZINC09599595
REMARK  7 active torsions:
REMARK  status: ('A' for Active; 'I' for Inactive)
REMARK    1  A    between atoms: C_1  and  C_2
REMARK    2  A    between atoms: C_10  and  N_15
REMARK    3  A    between atoms: C_11  and  C_12
REMARK    4  A    between atoms: C_16  and  C_18
REMARK    5  A    between atoms: C_18  and  C_19
REMARK    6  A    between atoms: C_19  and  S_20
REMARK    7  A    between atoms: S_20  and  C_23
REMARK                            x       y       z     vdW  Elec       q    Type
REMARK                         _______ _______ _______ _____ _____    ______ ____
ROOT
ATOM      1  C   UNL     1      -0.018   1.503   0.010  0.00  0.00    +0.109 C 
ATOM      2  C   UNL     1       0.002  -0.004   0.002  0.00  0.00    +0.213 C 
ATOM      3  O   UNL     1       1.060  -0.596  -0.011  0.00  0.00    -0.276 OA
ATOM      4  N   UNL     1      -1.156  -0.694   0.009  0.00  0.00    -0.297 N 
ATOM      5  C   UNL     1      -1.167  -2.164   0.008  0.00  0.00    +0.113 C 
ATOM      6  C   UNL     1      -1.786  -2.674   1.311  0.00  0.00    +0.056 C 
ATOM      7  C   UNL     1      -3.078  -1.917   1.579  0.00  0.00    -0.020 A 
ATOM      8  C   UNL     1      -3.339  -0.731   0.989  0.00  0.00    +0.013 A 
ATOM      9  S   UNL     1      -4.926  -0.257   1.609  0.00  0.00    -0.076 S 
ATOM     10  C   UNL     1      -5.245  -1.568   2.608  0.00  0.00    +0.084 A 
ATOM     11  C   UNL     1      -4.129  -2.378   2.470  0.00  0.00    +0.068 A 
ATOM     12  C   UNL     1      -2.459  -0.000   0.025  0.00  0.00    +0.150 C 
ENDROOT
BRANCH  11  13
ATOM     13  C   UNL     1      -4.014  -3.649   3.193  0.00  0.00    +0.244 C 
ATOM     14  O   UNL     1      -3.505  -3.676   4.298  0.00  0.00    -0.270 OA
ATOM     15  N   UNL     1      -4.474  -4.786   2.634  0.00  0.00    -0.325 N 
ATOM     16  H   UNL     1      -4.880  -4.764   1.753  0.00  0.00    +0.145 HD
ATOM     17  H   UNL     1      -4.398  -5.627   3.112  0.00  0.00    +0.145 HD
ENDBRANCH  11  13
BRANCH  10  18
ATOM     18  N   UNL     1      -6.368  -1.790   3.391  0.00  0.00    -0.279 N 
ATOM     19  C   UNL     1      -7.369  -0.887   3.404  0.00  0.00    +0.219 C 
ATOM     20  O   UNL     1      -7.288   0.119   2.731  0.00  0.00    -0.275 OA
ATOM     21  H   UNL     1      -6.433  -2.594   3.929  0.00  0.00    +0.155 HD
BRANCH  19  22
ATOM     22  C   UNL     1      -8.589  -1.128   4.255  0.00  0.00    +0.119 C 
BRANCH  22  23
ATOM     23  C   UNL     1      -9.565   0.039   4.089  0.00  0.00    +0.181 C 
BRANCH  23  24
ATOM     24  S   UNL     1     -11.034  -0.251   5.113  0.00  0.00    -0.003 S 
ATOM     25  O   UNL     1     -11.774  -1.353   4.606  0.00  0.00    -0.169 OA
ATOM     26  O   UNL     1     -10.692  -0.180   6.491  0.00  0.00    -0.169 OA
BRANCH  24  27
ATOM     27  C   UNL     1     -12.065   1.150   4.834  0.00  0.00    +0.088 A 
ATOM     28  C   UNL     1     -11.940   2.271   5.634  0.00  0.00    +0.027 A 
ATOM     29  C   UNL     1     -12.749   3.370   5.414  0.00  0.00    +0.002 A 
ATOM     30  C   UNL     1     -13.682   3.349   4.394  0.00  0.00    +0.000 A 
ATOM     31  C   UNL     1     -13.805   2.229   3.594  0.00  0.00    +0.002 A 
ATOM     32  C   UNL     1     -12.994   1.132   3.810  0.00  0.00    +0.027 A 
ENDBRANCH  24  27
ENDBRANCH  23  24
ENDBRANCH  22  23
ENDBRANCH  19  22
ENDBRANCH  10  18
TORSDOF 6
