REMARK  Name = ZINC13322286
REMARK  7 active torsions:
REMARK  status: ('A' for Active; 'I' for Inactive)
REMARK    1  A    between atoms: C_7  and  C_18
REMARK    2  A    between atoms: C_9  and  C_11
REMARK    3  A    between atoms: C_14  and  O_17
REMARK    4  A    between atoms: N_20  and  N_21
REMARK    5  A    between atoms: C_22  and  C_23
REMARK    6  A    between atoms: C_26  and  O_30
REMARK    7  A    between atoms: C_27  and  O_29
REMARK                            x       y       z     vdW  Elec       q    Type
REMARK                         _______ _______ _______ _____ _____    ______ ____
ROOT
ATOM      1  C   UNL     1      -2.829   9.752   0.386  0.00  0.00    +0.001 A 
ATOM      2  C   UNL     1      -4.072  10.382   0.391  0.00  0.00    +0.002 A 
ATOM      3  C   UNL     1      -5.224   9.664   0.289  0.00  0.00    +0.028 A 
ATOM      4  C   UNL     1      -5.166   8.263   0.176  0.00  0.00    +0.072 A 
ATOM      5  C   UNL     1      -3.899   7.627   0.177  0.00  0.00    +0.013 A 
ATOM      6  C   UNL     1      -2.734   8.396   0.278  0.00  0.00    +0.011 A 
ATOM      7  C   UNL     1      -3.845   6.170   0.054  0.00  0.00    +0.050 A 
ATOM      8  C   UNL     1      -5.053   5.494  -0.048  0.00  0.00    +0.042 A 
ATOM      9  C   UNL     1      -6.253   6.221  -0.033  0.00  0.00    +0.072 A 
ATOM     10  N   UNL     1      -6.278   7.534   0.074  0.00  0.00    -0.247 NA
ENDROOT
BRANCH   9  11
ATOM     11  C   UNL     1      -7.535   5.487  -0.142  0.00  0.00    +0.001 A 
ATOM     12  C   UNL     1      -7.537   4.098  -0.262  0.00  0.00    +0.013 A 
ATOM     13  C   UNL     1      -8.733   3.418  -0.357  0.00  0.00    +0.046 A 
ATOM     14  C   UNL     1      -9.933   4.115  -0.345  0.00  0.00    +0.117 A 
ATOM     15  C   UNL     1      -9.934   5.500  -0.232  0.00  0.00    +0.046 A 
ATOM     16  C   UNL     1      -8.743   6.185  -0.131  0.00  0.00    +0.013 A 
BRANCH  14  17
ATOM     17  O   UNL     1     -11.109   3.443  -0.446  0.00  0.00    -0.507 OA
ATOM     18  H   UNL     1     -11.416   3.320  -1.354  0.00  0.00    +0.292 HD
ENDBRANCH  14  17
ENDBRANCH   9  11
BRANCH   7  19
ATOM     19  C   UNL     1      -2.556   5.446   0.044  0.00  0.00    +0.264 C 
ATOM     20  O   UNL     1      -1.510   6.067   0.029  0.00  0.00    -0.268 OA
ATOM     21  N   UNL     1      -2.539   4.099   0.051  0.00  0.00    -0.203 N 
ATOM     22  H   UNL     1      -3.373   3.603   0.062  0.00  0.00    +0.178 HD
BRANCH  21  23
ATOM     23  N   UNL     1      -1.318   3.413   0.041  0.00  0.00    -0.187 NA
ATOM     24  C   UNL     1      -1.302   2.115   0.048  0.00  0.00    +0.138 C 
BRANCH  24  25
ATOM     25  C   UNL     1      -0.017   1.393   0.038  0.00  0.00    -0.002 A 
ATOM     26  C   UNL     1       1.186   2.105   0.015  0.00  0.00    +0.013 A 
ATOM     27  C   UNL     1       2.387   1.428   0.001  0.00  0.00    +0.050 A 
ATOM     28  C   UNL     1       2.405   0.041   0.008  0.00  0.00    +0.158 A 
ATOM     29  C   UNL     1       1.210  -0.675   0.029  0.00  0.00    +0.159 A 
ATOM     30  C   UNL     1       0.002  -0.004   0.045  0.00  0.00    +0.058 A 
BRANCH  29  31
ATOM     31  O   UNL     1       1.233  -2.035   0.036  0.00  0.00    -0.503 OA
ATOM     32  H   UNL     1       1.225  -2.433  -0.845  0.00  0.00    +0.292 HD
ENDBRANCH  29  31
BRANCH  28  33
ATOM     33  O   UNL     1       3.592  -0.622  -0.007  0.00  0.00    -0.503 OA
ATOM     34  H   UNL     1       3.922  -0.818  -0.895  0.00  0.00    +0.292 HD
ENDBRANCH  28  33
ENDBRANCH  24  25
ENDBRANCH  21  23
ENDBRANCH   7  19
TORSDOF 7
