REMARK  Name = ZINC05004097
REMARK  9 active torsions:
REMARK  status: ('A' for Active; 'I' for Inactive)
REMARK    1  A    between atoms: C_1  and  C_2
REMARK    2  A    between atoms: C_2  and  C_3
REMARK    3  A    between atoms: C_3  and  O_32
REMARK    4  A    between atoms: C_5  and  O_31
REMARK    5  A    between atoms: C_12  and  O_13
REMARK    6  A    between atoms: C_21  and  O_22
REMARK    7  A    between atoms: C_25  and  C_27
REMARK    8  A    between atoms: C_27  and  O_29
REMARK    9  A    between atoms: O_29  and  C_30
REMARK                            x       y       z     vdW  Elec       q    Type
REMARK                         _______ _______ _______ _____ _____    ______ ____
ROOT
ATOM      1  C   UNL     1       0.159   1.362  -0.050  0.00  0.00    +0.085 C 
ATOM      2  C   UNL     1       0.370  -0.142  -0.260  0.00  0.00    +0.072 C 
ATOM      3  C   UNL     1       0.809  -0.369  -1.705  0.00  0.00    +0.151 C 
ATOM      4  C   UNL     1       1.966   0.530  -2.057  0.00  0.00    +0.027 A 
ATOM      5  C   UNL     1       2.289   1.644  -1.318  0.00  0.00    -0.021 A 
ATOM      6  C   UNL     1       3.365   2.446  -1.695  0.00  0.00    +0.017 A 
ATOM      7  C   UNL     1       4.122   2.131  -2.812  0.00  0.00    +0.037 A 
ATOM      8  C   UNL     1       3.800   0.989  -3.570  0.00  0.00    +0.075 A 
ATOM      9  C   UNL     1       2.722   0.195  -3.186  0.00  0.00    +0.134 A 
ATOM     10  C   UNL     1       4.605   0.648  -4.759  0.00  0.00    +0.202 C 
ATOM     11  O   UNL     1       4.512  -0.451  -5.272  0.00  0.00    -0.286 OA
ATOM     12  C   UNL     1       5.526   1.657  -5.319  0.00  0.00    +0.075 A 
ATOM     13  C   UNL     1       5.850   2.801  -4.565  0.00  0.00    +0.037 A 
ATOM     14  C   UNL     1       6.716   3.752  -5.091  0.00  0.00    +0.012 A 
ATOM     15  C   UNL     1       7.258   3.571  -6.355  0.00  0.00    +0.004 A 
ATOM     16  C   UNL     1       6.944   2.453  -7.099  0.00  0.00    +0.046 A 
ATOM     17  C   UNL     1       6.079   1.487  -6.590  0.00  0.00    +0.128 A 
ATOM     18  C   UNL     1       5.263   2.981  -3.219  0.00  0.00    +0.195 C 
ATOM     19  O   UNL     1       5.711   3.815  -2.458  0.00  0.00    -0.287 OA
ATOM     20  C   UNL     1       1.523   2.048  -0.084  0.00  0.00    +0.160 C 
ENDROOT
BRANCH   1  22
ATOM     21  C   UNL     1      -1.877   0.927   1.332  0.00  0.00    +0.007 C 
ATOM     22  C   UNL     1      -0.505   1.605   1.307  0.00  0.00    +0.032 C 
ENDBRANCH   1  22
BRANCH   9  23
ATOM     23  O   UNL     1       2.403  -0.908  -3.908  0.00  0.00    -0.506 OA
ATOM     24  H   UNL     1       1.773  -0.741  -4.623  0.00  0.00    +0.292 HD
ENDBRANCH   9  23
BRANCH  17  25
ATOM     25  O   UNL     1       5.775   0.389  -7.325  0.00  0.00    -0.506 OA
ATOM     26  H   UNL     1       5.001   0.498  -7.894  0.00  0.00    +0.292 HD
ENDBRANCH  17  25
BRANCH  20  27
ATOM     27  C   UNL     1       2.309   1.654   1.140  0.00  0.00    +0.317 C 
ATOM     28  O   UNL     1       2.982   0.650   1.128  0.00  0.00    -0.250 OA
BRANCH  27  29
ATOM     29  O   UNL     1       2.261   2.417   2.243  0.00  0.00    -0.467 OA
ATOM     30  C   UNL     1       3.043   1.976   3.384  0.00  0.00    +0.280 C 
ENDBRANCH  27  29
ENDBRANCH  20  27
BRANCH   3  31
ATOM     31  O   UNL     1       1.205  -1.732  -1.869  0.00  0.00    -0.387 OA
ATOM     32  H   UNL     1       0.484  -2.367  -1.757  0.00  0.00    +0.210 HD
ENDBRANCH   3  31
BRANCH   1  33
ATOM     33  O   UNL     1      -0.668   1.883  -1.092  0.00  0.00    -0.387 OA
ATOM     34  H   UNL     1      -1.545   1.477  -1.138  0.00  0.00    +0.210 HD
ENDBRANCH   1  33
TORSDOF 7
