REMARK  Name = ZINC13499521
REMARK  13 active torsions:
REMARK  status: ('A' for Active; 'I' for Inactive)
REMARK    1  A    between atoms: C_1  and  C_2
REMARK    2  A    between atoms: C_2  and  C_3
REMARK    3  A    between atoms: C_3  and  C_4
REMARK    4  A    between atoms: C_4  and  C_6
REMARK    5  A    between atoms: C_4  and  N_17
REMARK    6  A    between atoms: N_10  and  C_11
REMARK    7  A    between atoms: C_11  and  C_12
REMARK    8  A    between atoms: N_17  and  C_18
REMARK    9  A    between atoms: N_17  and  C_25
REMARK   10  A    between atoms: C_18  and  C_19
REMARK   11  A    between atoms: C_25  and  C_26
REMARK   12  A    between atoms: C_30  and  C_39
REMARK   13  A    between atoms: C_31  and  C_38
REMARK                            x       y       z     vdW  Elec       q    Type
REMARK                         _______ _______ _______ _____ _____    ______ ____
ROOT
ATOM      1  N   UNL     1       1.459  -2.636   0.026  0.00  0.00    -0.284 NA
ENDROOT
BRANCH   1   2
ATOM      2  C   UNL     1       1.093  -2.327   1.415  0.00  0.00    +0.127 C 
BRANCH   2   3
ATOM      3  C   UNL     1      -0.152  -3.090   1.788  0.00  0.00    +0.169 A 
ATOM      4  N   UNL     1      -0.306  -4.392   1.773  0.00  0.00    -0.112 NA
ATOM      5  N   UNL     1      -1.507  -4.654   2.158  0.00  0.00    -0.023 NA
ATOM      6  N   UNL     1      -2.123  -3.554   2.419  0.00  0.00    -0.043 NA
ATOM      7  N   UNL     1      -1.319  -2.568   2.208  0.00  0.00    -0.220 N 
BRANCH   7   8
ATOM      8  C   UNL     1      -1.621  -1.145   2.388  0.00  0.00    +0.221 C 
BRANCH   8   9
ATOM      9  C   UNL     1      -2.387  -0.639   1.193  0.00  0.00    +0.126 A 
ATOM     10  C   UNL     1      -3.725  -0.534   1.104  0.00  0.00    +0.046 A 
ATOM     11  C   UNL     1      -4.010  -0.018  -0.181  0.00  0.00    +0.041 A 
ATOM     12  C   UNL     1      -2.830   0.161  -0.800  0.00  0.00    +0.195 A 
ATOM     13  O   UNL     1      -1.850  -0.211   0.039  0.00  0.00    -0.466 OA
ENDBRANCH   8   9
ENDBRANCH   7   8
ENDBRANCH   2   3
BRANCH   2  14
ATOM     14  C   UNL     1       2.238  -2.732   2.345  0.00  0.00    +0.026 C 
BRANCH  14  16
ATOM     15  C   UNL     1       4.571  -2.191   3.056  0.00  0.00    +0.004 C 
ATOM     16  C   UNL     1       3.468  -1.873   2.046  0.00  0.00    -0.001 C 
ENDBRANCH  14  16
ENDBRANCH   2  14
ENDBRANCH   1   2
BRANCH   1  17
ATOM     17  C   UNL     1       1.349  -4.077  -0.239  0.00  0.00    +0.120 C 
BRANCH  17  18
ATOM     18  C   UNL     1       2.112  -4.417  -1.494  0.00  0.00    -0.033 A 
ATOM     19  C   UNL     1       1.463  -4.434  -2.714  0.00  0.00    +0.005 A 
ATOM     20  C   UNL     1       2.163  -4.745  -3.865  0.00  0.00    +0.000 A 
ATOM     21  C   UNL     1       3.512  -5.039  -3.795  0.00  0.00    +0.000 A 
ATOM     22  C   UNL     1       4.161  -5.021  -2.574  0.00  0.00    +0.000 A 
ATOM     23  C   UNL     1       3.462  -4.706  -1.424  0.00  0.00    +0.005 A 
ENDBRANCH  17  18
ENDBRANCH   1  17
BRANCH   1  24
ATOM     24  C   UNL     1       0.640  -1.863  -0.918  0.00  0.00    +0.126 C 
BRANCH  24  25
ATOM     25  C   UNL     1       1.302  -0.536  -1.185  0.00  0.00    +0.031 A 
ATOM     26  C   UNL     1       2.100  -0.385  -2.271  0.00  0.00    +0.020 A 
ATOM     27  C   UNL     1       2.727   0.918  -2.502  0.00  0.00    -0.001 A 
ATOM     28  C   UNL     1       3.560   1.134  -3.605  0.00  0.00    +0.013 A 
ATOM     29  C   UNL     1       4.129   2.362  -3.793  0.00  0.00    -0.047 A 
ATOM     30  C   UNL     1       3.889   3.396  -2.899  0.00  0.00    -0.046 A 
ATOM     31  C   UNL     1       3.072   3.206  -1.806  0.00  0.00    +0.030 A 
ATOM     32  C   UNL     1       2.480   1.965  -1.594  0.00  0.00    +0.049 A 
ATOM     33  N   UNL     1       1.658   1.746  -0.509  0.00  0.00    -0.322 N 
ATOM     34  H   UNL     1       1.489   2.469   0.116  0.00  0.00    +0.169 HD
ATOM     35  C   UNL     1       1.083   0.548  -0.308  0.00  0.00    +0.254 A 
ATOM     36  O   UNL     1       0.357   0.392   0.659  0.00  0.00    -0.268 OA
ATOM     37  C   UNL     1       4.529   4.742  -3.126  0.00  0.00    +0.044 C 
ATOM     38  C   UNL     1       5.027   2.595  -4.981  0.00  0.00    +0.044 C 
ENDBRANCH  24  25
ENDBRANCH   1  24
TORSDOF 10
