REMARK  Name = ZINC33118794
REMARK  10 active torsions:
REMARK  status: ('A' for Active; 'I' for Inactive)
REMARK    1  A    between atoms: C_1  and  C_2
REMARK    2  A    between atoms: C_5  and  N_8
REMARK    3  A    between atoms: C_9  and  C_11
REMARK    4  A    between atoms: C_11  and  S_12
REMARK    5  A    between atoms: S_12  and  C_13
REMARK    6  A    between atoms: C_13  and  C_15
REMARK    7  A    between atoms: C_13  and  C_16
REMARK    8  A    between atoms: N_18  and  C_19
REMARK    9  A    between atoms: C_19  and  C_21
REMARK   10  A    between atoms: C_19  and  C_22
REMARK                            x       y       z     vdW  Elec       q    Type
REMARK                         _______ _______ _______ _____ _____    ______ ____
ROOT
ATOM      1  C   UNL     1       5.476   0.084  -6.001  0.00  0.00    +0.226 C 
ATOM      2  O   UNL     1       5.598  -1.110  -6.179  0.00  0.00    -0.275 OA
ATOM      3  N   UNL     1       5.098   0.551  -4.795  0.00  0.00    -0.308 N 
ATOM      4  H   UNL     1       4.988   1.633  -4.633  0.00  0.00    +0.149 HD
ENDROOT
BRANCH   1   5
ATOM      5  C   UNL     1       5.748   1.045  -7.129  0.00  0.00    +0.129 C 
ATOM      6  C   UNL     1       4.423   1.483  -7.757  0.00  0.00    +0.029 C 
BRANCH   5   7
ATOM      7  S   UNL     1       6.771   0.229  -8.385  0.00  0.00    -0.139 S 
BRANCH   7   8
ATOM      8  C   UNL     1       7.132   1.545  -9.581  0.00  0.00    +0.165 C 
BRANCH   8  10
ATOM      9  N   UNL     1       8.381   1.797 -11.701  0.00  0.00    -0.285 N 
ATOM     10  C   UNL     1       7.987   0.994 -10.692  0.00  0.00    +0.227 C 
ATOM     11  O   UNL     1       8.321  -0.172 -10.679  0.00  0.00    -0.275 OA
ATOM     12  H   UNL     1       8.017   2.833 -11.753  0.00  0.00    +0.155 HD
BRANCH   9  17
ATOM     13  C   UNL     1      11.920  -0.171 -15.675  0.00  0.00    +0.044 C 
ATOM     14  C   UNL     1      10.980   0.352 -14.619  0.00  0.00    -0.050 A 
ATOM     15  C   UNL     1      10.033  -0.488 -14.061  0.00  0.00    +0.005 A 
ATOM     16  C   UNL     1       9.170  -0.012 -13.094  0.00  0.00    +0.023 A 
ATOM     17  C   UNL     1       9.254   1.312 -12.681  0.00  0.00    +0.033 A 
ATOM     18  C   UNL     1      10.202   2.154 -13.247  0.00  0.00    +0.023 A 
ATOM     19  C   UNL     1      11.066   1.670 -14.210  0.00  0.00    +0.005 A 
ENDBRANCH   9  17
ENDBRANCH   8  10
ENDBRANCH   7   8
ENDBRANCH   5   7
ENDBRANCH   1   5
BRANCH   3  20
ATOM     20  C   UNL     1       4.833  -0.384  -3.698  0.00  0.00    +0.100 C 
ATOM     21  C   UNL     1       6.147  -0.725  -2.991  0.00  0.00    +0.033 C 
BRANCH  20  22
ATOM     22  C   UNL     1       3.884   0.251  -2.715  0.00  0.00    -0.026 A 
ATOM     23  C   UNL     1       4.019   1.589  -2.392  0.00  0.00    +0.009 A 
ATOM     24  C   UNL     1       3.151   2.179  -1.491  0.00  0.00    +0.048 A 
ATOM     25  C   UNL     1       2.144   1.429  -0.911  0.00  0.00    +0.142 A 
ATOM     26  C   UNL     1       2.008   0.080  -1.236  0.00  0.00    +0.076 A 
ATOM     27  C   UNL     1       2.880  -0.506  -2.138  0.00  0.00    +0.032 A 
ATOM     28  N   UNL     1       0.984  -0.669  -0.639  0.00  0.00    -0.280 N 
ATOM     29  C   UNL     1      -0.027  -0.021  -0.021  0.00  0.00    +0.255 C 
ATOM     30  O   UNL     1      -0.908  -0.648   0.528  0.00  0.00    -0.272 OA
ATOM     31  C   UNL     1      -0.056   1.487  -0.017  0.00  0.00    +0.325 C 
ATOM     32  O   UNL     1       1.281   1.993  -0.024  0.00  0.00    -0.481 OA
ATOM     33  H   UNL     1       1.012  -1.768  -0.678  0.00  0.00    +0.155 HD
ENDBRANCH  20  22
ENDBRANCH   3  20
TORSDOF 7
