REMARK  Name = ZINC32124334
REMARK  9 active torsions:
REMARK  status: ('A' for Active; 'I' for Inactive)
REMARK    1  A    between atoms: C_1  and  O_2
REMARK    2  A    between atoms: O_2  and  C_3
REMARK    3  A    between atoms: C_8  and  C_9
REMARK    4  A    between atoms: N_22  and  C_23
REMARK    5  A    between atoms: C_23  and  C_25
REMARK    6  A    between atoms: C_23  and  C_32
REMARK    7  A    between atoms: C_25  and  C_26
REMARK    8  A    between atoms: C_32  and  O_34
REMARK    9  A    between atoms: O_34  and  C_35
REMARK                            x       y       z     vdW  Elec       q    Type
REMARK                         _______ _______ _______ _____ _____    ______ ____
ROOT
ATOM      1  C   UNL     1       0.051  -2.828  -0.033  0.00  0.00    +0.160 C 
ATOM      2  C   UNL     1       1.052  -3.021   1.081  0.00  0.00    +0.062 A 
ATOM      3  C   UNL     1       1.678  -4.191   1.332  0.00  0.00    +0.040 A 
ATOM      4  N   UNL     1       2.501  -3.981   2.397  0.00  0.00    -0.349 N 
ATOM      5  H   UNL     1       3.085  -4.634   2.812  0.00  0.00    +0.166 HD
ATOM      6  C   UNL     1       2.350  -2.688   2.766  0.00  0.00    +0.171 A 
ATOM      7  N   UNL     1       1.479  -2.123   1.971  0.00  0.00    -0.348 N 
ATOM      8  C   UNL     1       1.466  -5.465   0.556  0.00  0.00    +0.074 C 
ATOM      9  C   UNL     1       0.807  -5.122  -0.786  0.00  0.00    +0.116 C 
ATOM     10  N   UNL     1      -0.287  -4.165  -0.556  0.00  0.00    -0.273 N 
ATOM     11  C   UNL     1      -1.567  -4.501  -0.814  0.00  0.00    +0.304 C 
ATOM     12  O   UNL     1      -2.447  -3.670  -0.705  0.00  0.00    -0.253 OA
ATOM     13  N   UNL     1      -1.869  -5.758  -1.193  0.00  0.00    -0.286 N 
ATOM     14  H   UNL     1      -1.179  -6.440  -1.208  0.00  0.00    +0.151 HD
ATOM     15  H   UNL     1       1.190  -1.198   2.019  0.00  0.00    +0.167 HD
ENDROOT
BRANCH   1  21
ATOM     16  C   UNL     1      -0.155  -1.425  -2.101  0.00  0.00    +0.125 A 
ATOM     17  C   UNL     1       0.406  -0.647  -3.104  0.00  0.00    +0.046 A 
ATOM     18  C   UNL     1       1.771  -0.440  -3.134  0.00  0.00    +0.004 A 
ATOM     19  C   UNL     1       2.579  -1.008  -2.166  0.00  0.00    +0.001 A 
ATOM     20  C   UNL     1       2.023  -1.783  -1.166  0.00  0.00    +0.009 A 
ATOM     21  C   UNL     1       0.657  -1.988  -1.128  0.00  0.00    +0.021 A 
BRANCH  16  23
ATOM     22  C   UNL     1      -2.272  -1.018  -3.103  0.00  0.00    +0.277 C 
ATOM     23  O   UNL     1      -1.498  -1.629  -2.069  0.00  0.00    -0.495 OA
ENDBRANCH  16  23
ENDBRANCH   1  21
BRANCH  13  24
ATOM     24  C   UNL     1      -3.241  -6.096  -1.582  0.00  0.00    +0.187 C 
BRANCH  24  25
ATOM     25  C   UNL     1      -4.045  -6.428  -0.352  0.00  0.00    +0.328 C 
ATOM     26  O   UNL     1      -3.526  -6.386   0.739  0.00  0.00    -0.249 OA
BRANCH  25  27
ATOM     27  O   UNL     1      -5.338  -6.769  -0.467  0.00  0.00    -0.467 OA
ATOM     28  C   UNL     1      -6.039  -7.071   0.741  0.00  0.00    +0.280 C 
ENDBRANCH  25  27
ENDBRANCH  24  25
BRANCH  24  29
ATOM     29  C   UNL     1      -3.222  -7.305  -2.520  0.00  0.00    +0.069 C 
BRANCH  29  30
ATOM     30  C   UNL     1      -2.523  -6.934  -3.803  0.00  0.00    -0.045 A 
ATOM     31  C   UNL     1      -3.247  -6.412  -4.858  0.00  0.00    +0.004 A 
ATOM     32  C   UNL     1      -2.606  -6.072  -6.035  0.00  0.00    +0.000 A 
ATOM     33  C   UNL     1      -1.241  -6.255  -6.156  0.00  0.00    +0.000 A 
ATOM     34  C   UNL     1      -0.517  -6.776  -5.101  0.00  0.00    +0.000 A 
ATOM     35  C   UNL     1      -1.157  -7.112  -3.922  0.00  0.00    +0.004 A 
ENDBRANCH  29  30
ENDBRANCH  24  29
ENDBRANCH  13  24
TORSDOF 7
