REMARK  Name = ZINC65585522
REMARK  8 active torsions:
REMARK  status: ('A' for Active; 'I' for Inactive)
REMARK    1  A    between atoms: C_1  and  C_2
REMARK    2  A    between atoms: C_2  and  C_3
REMARK    3  A    between atoms: C_3  and  C_4
REMARK    4  A    between atoms: C_4  and  C_5
REMARK    5  A    between atoms: C_5  and  C_6
REMARK    6  A    between atoms: C_5  and  N_24
REMARK    7  A    between atoms: N_8  and  C_9
REMARK    8  A    between atoms: C_14  and  N_15
REMARK                            x       y       z     vdW  Elec       q    Type
REMARK                         _______ _______ _______ _____ _____    ______ ____
ROOT
ATOM      1  C   UNL     1       1.011  -4.026  -2.106  0.00  0.00    +0.238 C 
ATOM      2  O   UNL     1       1.625  -4.706  -1.311  0.00  0.00    -0.273 OA
ATOM      3  N   UNL     1       0.243  -4.613  -3.045  0.00  0.00    -0.282 N 
ATOM      4  H   UNL     1      -0.310  -4.071  -3.628  0.00  0.00    +0.155 HD
ENDROOT
BRANCH   3   5
ATOM      5  C   UNL     1       0.244  -6.008  -3.178  0.00  0.00    +0.055 A 
ATOM      6  C   UNL     1       1.340  -6.747  -2.758  0.00  0.00    +0.025 A 
ATOM      7  C   UNL     1       1.339  -8.123  -2.891  0.00  0.00    +0.002 A 
ATOM      8  C   UNL     1       0.247  -8.767  -3.442  0.00  0.00    +0.002 A 
ATOM      9  C   UNL     1      -0.850  -8.040  -3.863  0.00  0.00    +0.025 A 
ATOM     10  C   UNL     1      -0.860  -6.659  -3.728  0.00  0.00    +0.051 A 
BRANCH  10  11
ATOM     11  N   UNL     1      -1.971  -5.921  -4.149  0.00  0.00    -0.324 N 
ATOM     12  C   UNL     1      -2.056  -5.422  -5.529  0.00  0.00    +0.110 C 
ATOM     13  C   UNL     1      -3.238  -6.118  -6.222  0.00  0.00    +0.061 C 
ATOM     14  C   UNL     1      -4.396  -6.148  -5.278  0.00  0.00    -0.004 A 
ATOM     15  C   UNL     1      -4.383  -5.947  -3.933  0.00  0.00    -0.020 A 
ATOM     16  C   UNL     1      -5.609  -6.039  -3.275  0.00  0.00    +0.013 A 
ATOM     17  C   UNL     1      -6.734  -6.311  -3.975  0.00  0.00    +0.046 A 
ATOM     18  S   UNL     1      -6.105  -6.454  -5.641  0.00  0.00    -0.101 S 
ATOM     19  C   UNL     1      -3.073  -5.639  -3.219  0.00  0.00    +0.141 C 
ENDBRANCH  10  11
ENDBRANCH   3   5
BRANCH   1  20
ATOM     20  C   UNL     1       1.107  -2.523  -2.043  0.00  0.00    +0.161 C 
BRANCH  20  21
ATOM     21  N   UNL     1       2.313  -2.141  -1.304  0.00  0.00    -0.288 N 
ATOM     22  C   UNL     1       2.472  -2.531  -0.024  0.00  0.00    +0.298 C 
ATOM     23  O   UNL     1       1.613  -3.200   0.518  0.00  0.00    -0.253 OA
ATOM     24  N   UNL     1       3.581  -2.180   0.655  0.00  0.00    -0.313 N 
ATOM     25  H   UNL     1       2.998  -1.607  -1.737  0.00  0.00    +0.151 HD
ATOM     26  H   UNL     1       4.266  -1.646   0.222  0.00  0.00    +0.146 HD
ATOM     27  H   UNL     1       3.695  -2.461   1.576  0.00  0.00    +0.146 HD
ENDBRANCH  20  21
BRANCH  20  28
ATOM     28  C   UNL     1      -0.126  -1.963  -1.331  0.00  0.00    +0.032 C 
BRANCH  28  29
ATOM     29  C   UNL     1      -0.090  -0.434  -1.376  0.00  0.00    +0.002 C 
BRANCH  29  31
ATOM     30  C   UNL     1      -1.288   1.655  -0.710  0.00  0.00    +0.004 C 
ATOM     31  C   UNL     1      -1.323   0.126  -0.664  0.00  0.00    -0.003 C 
ENDBRANCH  29  31
ENDBRANCH  28  29
ENDBRANCH  20  28
ENDBRANCH   1  20
TORSDOF 7
