REMARK  Name = ZINC38905594
REMARK  9 active torsions:
REMARK  status: ('A' for Active; 'I' for Inactive)
REMARK    1  A    between atoms: C_1  and  N_2
REMARK    2  A    between atoms: N_2  and  C_3
REMARK    3  A    between atoms: N_2  and  C_28
REMARK    4  A    between atoms: C_3  and  C_4
REMARK    5  A    between atoms: C_4  and  N_5
REMARK    6  A    between atoms: C_6  and  C_8
REMARK    7  A    between atoms: N_13  and  C_15
REMARK    8  A    between atoms: C_15  and  C_16
REMARK    9  A    between atoms: C_18  and  C_21
REMARK                            x       y       z     vdW  Elec       q    Type
REMARK                         _______ _______ _______ _____ _____    ______ ____
ROOT
ATOM      1  C   UNL     1      -2.523  -2.876   4.879  0.00  0.00    +0.058 C 
ATOM      2  C   UNL     1      -1.804  -2.044   5.945  0.00  0.00    +0.009 C 
ATOM      3  C   UNL     1      -1.855  -2.791   7.281  0.00  0.00    -0.018 C 
ATOM      4  C   UNL     1      -3.314  -3.068   7.649  0.00  0.00    -0.078 C 
ATOM      5  N   UNL     1      -3.938  -3.889   6.604  0.00  0.00    +0.386 N 
ATOM      6  C   UNL     1      -3.957  -3.151   5.335  0.00  0.00    -0.065 C 
ATOM      7  H   UNL     1      -3.411  -4.741   6.487  0.00  0.00    -0.081 HD
ENDROOT
BRANCH   1   9
ATOM      8  N   UNL     1      -1.389  -1.760   2.985  0.00  0.00    -0.314 N 
ATOM      9  C   UNL     1      -2.545  -2.115   3.578  0.00  0.00    +0.214 C 
ATOM     10  O   UNL     1      -3.605  -1.824   3.064  0.00  0.00    -0.276 OA
ATOM     11  H   UNL     1      -0.541  -1.993   3.396  0.00  0.00    +0.149 HD
BRANCH   8  12
ATOM     12  C   UNL     1      -1.411  -1.020   1.720  0.00  0.00    +0.123 C 
BRANCH  12  13
ATOM     13  C   UNL     1       0.024  -0.743   1.267  0.00  0.00    +0.123 C 
BRANCH  13  15
ATOM     14  C   UNL     1      -0.018   1.461   0.010  0.00  0.00    +0.129 C 
ATOM     15  N   UNL     1       0.002  -0.004   0.002  0.00  0.00    -0.331 N 
BRANCH  15  16
ATOM     16  C   UNL     1       0.000  -0.696  -1.211  0.00  0.00    +0.029 A 
ATOM     17  C   UNL     1       0.013  -2.085  -1.221  0.00  0.00    +0.023 A 
ATOM     18  C   UNL     1       0.010  -2.766  -2.422  0.00  0.00    +0.002 A 
ATOM     19  C   UNL     1      -0.005  -2.066  -3.615  0.00  0.00    +0.000 A 
ATOM     20  C   UNL     1      -0.018  -0.684  -3.609  0.00  0.00    +0.002 A 
ATOM     21  C   UNL     1      -0.021   0.004  -2.411  0.00  0.00    +0.023 A 
ENDBRANCH  15  16
ENDBRANCH  13  15
ENDBRANCH  12  13
ENDBRANCH   8  12
ENDBRANCH   1   9
BRANCH   5  22
ATOM     22  C   UNL     1      -5.314  -4.218   6.998  0.00  0.00    +0.022 C 
BRANCH  22  23
ATOM     23  C   UNL     1      -5.290  -5.088   8.228  0.00  0.00    +0.211 A 
ATOM     24  N   UNL     1      -5.314  -4.666   9.460  0.00  0.00    -0.193 NA
ATOM     25  C   UNL     1      -5.282  -5.711  10.306  0.00  0.00    +0.202 A 
ATOM     26  N   UNL     1      -5.236  -6.816   9.604  0.00  0.00    -0.056 NA
ATOM     27  O   UNL     1      -5.246  -6.427   8.239  0.00  0.00    -0.340 OA
BRANCH  25  28
ATOM     28  C   UNL     1      -5.295  -5.626  11.787  0.00  0.00    +0.023 A 
ATOM     29  C   UNL     1      -5.350  -4.383  12.416  0.00  0.00    +0.013 A 
ATOM     30  C   UNL     1      -5.362  -4.310  13.794  0.00  0.00    +0.016 A 
ATOM     31  C   UNL     1      -5.318  -5.467  14.552  0.00  0.00    +0.018 A 
ATOM     32  C   UNL     1      -5.262  -6.704  13.932  0.00  0.00    +0.016 A 
ATOM     33  C   UNL     1      -5.257  -6.788  12.555  0.00  0.00    +0.013 A 
ATOM     34 BR   UNL     1      -5.334  -5.359  16.439  0.00  0.00    -0.050 Br
ENDBRANCH  25  28
ENDBRANCH  22  23
ENDBRANCH   5  22
TORSDOF 8
