REMARK  Name = ZINC33039705
REMARK  7 active torsions:
REMARK  status: ('A' for Active; 'I' for Inactive)
REMARK    1  A    between atoms: C_1  and  C_2
REMARK    2  A    between atoms: C_12  and  S_14
REMARK    3  A    between atoms: S_14  and  C_15
REMARK    4  A    between atoms: C_15  and  C_16
REMARK    5  A    between atoms: N_18  and  C_19
REMARK    6  A    between atoms: C_22  and  C_26
REMARK    7  A    between atoms: N_30  and  C_31
REMARK                            x       y       z     vdW  Elec       q    Type
REMARK                         _______ _______ _______ _____ _____    ______ ____
ROOT
ATOM      1  C   UNL     1       4.603  -4.397  -0.758  0.00  0.00    +0.044 C 
ATOM      2  C   UNL     1       4.670  -2.943  -0.366  0.00  0.00    -0.050 A 
ATOM      3  C   UNL     1       5.888  -2.375  -0.032  0.00  0.00    +0.005 A 
ATOM      4  C   UNL     1       5.955  -1.045   0.327  0.00  0.00    +0.025 A 
ATOM      5  C   UNL     1       4.802  -0.266   0.357  0.00  0.00    +0.060 A 
ATOM      6  C   UNL     1       3.571  -0.835   0.022  0.00  0.00    +0.025 A 
ATOM      7  C   UNL     1       3.521  -2.186  -0.341  0.00  0.00    +0.015 A 
ATOM      8  C   UNL     1       2.306  -0.068   0.034  0.00  0.00    +0.104 A 
ATOM      9  C   UNL     1       2.308   1.329   0.046  0.00  0.00    +0.153 A 
ATOM     10  C   UNL     1       1.116   2.014   0.052  0.00  0.00    +0.144 A 
ATOM     11  N   UNL     1      -0.015   1.319   0.050  0.00  0.00    -0.228 NA
ATOM     12  C   UNL     1       0.002  -0.006   0.040  0.00  0.00    +0.189 A 
ATOM     13  N   UNL     1       1.132  -0.698   0.032  0.00  0.00    -0.220 NA
ATOM     14  S   UNL     1       3.859   2.170   0.054  0.00  0.00    +0.078 S 
ATOM     15  O   UNL     1       4.245   2.345  -1.302  0.00  0.00    -0.150 OA
ATOM     16  O   UNL     1       3.741   3.251   0.968  0.00  0.00    -0.150 OA
ATOM     17  N   UNL     1       4.921   1.077   0.726  0.00  0.00    -0.205 N 
ATOM     18  C   UNL     1       5.949   1.510   1.675  0.00  0.00    +0.157 C 
ENDROOT
BRANCH  12  19
ATOM     19  S   UNL     1      -1.530  -0.878   0.037  0.00  0.00    -0.077 S 
BRANCH  19  20
ATOM     20  C   UNL     1      -2.684   0.516   0.050  0.00  0.00    +0.173 C 
BRANCH  20  21
ATOM     21  C   UNL     1      -4.099  -0.003   0.049  0.00  0.00    +0.228 C 
ATOM     22  O   UNL     1      -4.306  -1.198   0.041  0.00  0.00    -0.275 OA
ATOM     23  N   UNL     1      -5.134   0.860   0.057  0.00  0.00    -0.284 N 
ATOM     24  H   UNL     1      -4.947   1.941   0.139  0.00  0.00    +0.155 HD
BRANCH  23  25
ATOM     25  C   UNL     1      -6.446   0.381  -0.038  0.00  0.00    +0.052 A 
ATOM     26  C   UNL     1      -6.789  -0.829   0.550  0.00  0.00    +0.025 A 
ATOM     27  C   UNL     1      -8.084  -1.298   0.455  0.00  0.00    +0.005 A 
ATOM     28  C   UNL     1      -9.039  -0.565  -0.225  0.00  0.00    -0.049 A 
ATOM     29  C   UNL     1      -8.702   0.640  -0.812  0.00  0.00    +0.025 A 
ATOM     30  C   UNL     1      -7.408   1.119  -0.716  0.00  0.00    +0.062 A 
ATOM     31 CL   UNL     1      -6.986   2.635  -1.448  0.00  0.00    -0.082 Cl
ATOM     32  C   UNL     1     -10.452  -1.081  -0.326  0.00  0.00    +0.044 C 
ENDBRANCH  23  25
ENDBRANCH  20  21
ENDBRANCH  19  20
ENDBRANCH  12  19
TORSDOF 4
