REMARK  Name = ZINC25455820
REMARK  7 active torsions:
REMARK  status: ('A' for Active; 'I' for Inactive)
REMARK    1  A    between atoms: C_1  and  C_2
REMARK    2  A    between atoms: C_5  and  N_9
REMARK    3  A    between atoms: C_6  and  C_8
REMARK    4  A    between atoms: C_13  and  C_15
REMARK    5  A    between atoms: C_15  and  C_17
REMARK    6  A    between atoms: C_15  and  S_18
REMARK    7  A    between atoms: S_18  and  C_19
REMARK                            x       y       z     vdW  Elec       q    Type
REMARK                         _______ _______ _______ _____ _____    ______ ____
ROOT
ATOM      1  N   UNL     1      -1.237   2.069   0.019  0.00  0.00    -0.269 N 
ATOM      2  C   UNL     1      -2.394   1.385  -0.081  0.00  0.00    +0.310 C 
ATOM      3  O   UNL     1      -2.383   0.170  -0.088  0.00  0.00    -0.252 OA
ATOM      4  N   UNL     1      -3.563   2.049  -0.173  0.00  0.00    -0.239 N 
ATOM      5  C   UNL     1      -4.721   1.365  -0.273  0.00  0.00    +0.234 C 
ATOM      6  O   UNL     1      -4.710   0.153  -0.280  0.00  0.00    -0.274 OA
ATOM      7  H   UNL     1      -1.252   3.166   0.100  0.00  0.00    +0.156 HD
ATOM      8  H   UNL     1      -3.574   3.149  -0.167  0.00  0.00    +0.159 HD
ENDROOT
BRANCH   1  13
ATOM      9  C   UNL     1       3.704  -0.718   0.008  0.00  0.00    +0.044 C 
ATOM     10  C   UNL     1       2.392   0.023   0.013  0.00  0.00    -0.050 A 
ATOM     11  C   UNL     1       1.282  -0.542   0.613  0.00  0.00    +0.005 A 
ATOM     12  C   UNL     1       0.078   0.134   0.619  0.00  0.00    +0.024 A 
ATOM     13  C   UNL     1      -0.017   1.384   0.020  0.00  0.00    +0.038 A 
ATOM     14  C   UNL     1       1.099   1.949  -0.581  0.00  0.00    -0.029 A 
ATOM     15  C   UNL     1       2.300   1.267  -0.584  0.00  0.00    +0.008 A 
ATOM     16  C   UNL     1       1.000   3.305  -1.232  0.00  0.00    +0.045 C 
ENDBRANCH   1  13
BRANCH   5  17
ATOM     17  C   UNL     1      -6.028   2.108  -0.377  0.00  0.00    +0.137 C 
ATOM     18  C   UNL     1      -6.290   2.478  -1.838  0.00  0.00    +0.029 C 
BRANCH  17  19
ATOM     19  S   UNL     1      -7.369   1.054   0.230  0.00  0.00    -0.073 S 
BRANCH  19  20
ATOM     20  C   UNL     1      -8.714   2.190   0.141  0.00  0.00    +0.192 A 
ATOM     21  N   UNL     1      -9.926   1.794   0.512  0.00  0.00    -0.207 NA
ATOM     22  C   UNL     1     -10.972   2.602   0.468  0.00  0.00    +0.129 A 
ATOM     23  C   UNL     1     -10.803   3.938   0.010  0.00  0.00    +0.047 A 
ATOM     24  C   UNL     1     -11.783   5.002  -0.129  0.00  0.00    +0.021 A 
ATOM     25  C   UNL     1     -11.389   6.199  -0.587  0.00  0.00    +0.048 A 
ATOM     26  S   UNL     1      -9.643   5.982  -0.873  0.00  0.00    -0.077 S 
ATOM     27  C   UNL     1      -9.489   4.289  -0.367  0.00  0.00    +0.114 A 
ATOM     28  N   UNL     1      -8.495   3.425  -0.289  0.00  0.00    -0.215 NA
ATOM     29  N   UNL     1     -12.219   2.152   0.864  0.00  0.00    -0.343 N 
ATOM     30  H   UNL     1     -13.085   2.828   0.825  0.00  0.00    +0.144 HD
ATOM     31  H   UNL     1     -12.344   1.118   1.218  0.00  0.00    +0.144 HD
ENDBRANCH  19  20
ENDBRANCH  17  19
ENDBRANCH   5  17
TORSDOF 4
