REMARK  Name = ZINC65134804
REMARK  9 active torsions:
REMARK  status: ('A' for Active; 'I' for Inactive)
REMARK    1  A    between atoms: C_1  and  C_2
REMARK    2  A    between atoms: C_2  and  C_3
REMARK    3  A    between atoms: C_2  and  C_4
REMARK    4  A    between atoms: C_4  and  C_5
REMARK    5  A    between atoms: C_5  and  N_6
REMARK    6  A    between atoms: N_9  and  N_10
REMARK    7  A    between atoms: C_11  and  C_13
REMARK    8  A    between atoms: C_14  and  C_23
REMARK    9  A    between atoms: C_16  and  C_18
REMARK                            x       y       z     vdW  Elec       q    Type
REMARK                         _______ _______ _______ _____ _____    ______ ____
ROOT
ATOM      1  C   UNL     1      -7.745  -2.999   0.039  0.00  0.00    +0.103 A 
ATOM      2  C   UNL     1      -9.123  -3.248  -0.007  0.00  0.00    +0.091 A 
ATOM      3  N   UNL     1      -9.950  -2.241   0.144  0.00  0.00    -0.235 NA
ATOM      4  C   UNL     1      -9.511  -1.002   0.337  0.00  0.00    +0.145 A 
ATOM      5  S   UNL     1      -7.738  -1.233   0.319  0.00  0.00    -0.059 S 
ENDROOT
BRANCH   2   6
ATOM      6  C   UNL     1      -9.636  -4.621  -0.222  0.00  0.00    +0.002 A 
ATOM      7  C   UNL     1      -9.093  -5.691   0.490  0.00  0.00    +0.010 A 
ATOM      8  C   UNL     1      -9.575  -6.967   0.285  0.00  0.00    +0.001 A 
ATOM      9  C   UNL     1     -10.595  -7.188  -0.624  0.00  0.00    +0.000 A 
ATOM     10  C   UNL     1     -11.137  -6.131  -1.333  0.00  0.00    +0.001 A 
ATOM     11  C   UNL     1     -10.668  -4.849  -1.132  0.00  0.00    +0.010 A 
ENDBRANCH   2   6
BRANCH   4  12
ATOM     12  C   UNL     1     -10.281   0.235   0.523  0.00  0.00    +0.160 A 
ATOM     13  C   UNL     1      -9.761   1.482   0.713  0.00  0.00    +0.052 A 
ATOM     14  C   UNL     1     -10.852   2.360   0.844  0.00  0.00    +0.042 A 
ATOM     15  C   UNL     1     -11.974   1.618   0.730  0.00  0.00    +0.196 A 
ATOM     16  O   UNL     1     -11.625   0.338   0.530  0.00  0.00    -0.461 OA
ENDBRANCH   4  12
BRANCH   1  18
ATOM     17  N   UNL     1      -5.364  -3.497   0.109  0.00  0.00    -0.229 N 
ATOM     18  C   UNL     1      -6.624  -3.927  -0.098  0.00  0.00    +0.269 C 
ATOM     19  O   UNL     1      -6.829  -5.089  -0.399  0.00  0.00    -0.268 OA
ATOM     20  H   UNL     1      -5.201  -2.571   0.349  0.00  0.00    +0.173 HD
BRANCH  17  24
ATOM     21  N   UNL     1      -2.802  -2.669   0.518  0.00  0.00    -0.298 N 
ATOM     22  C   UNL     1      -3.029  -3.955   0.185  0.00  0.00    +0.316 C 
ATOM     23  O   UNL     1      -2.096  -4.727   0.071  0.00  0.00    -0.251 OA
ATOM     24  N   UNL     1      -4.289  -4.386  -0.022  0.00  0.00    -0.218 N 
ATOM     25  H   UNL     1      -3.546  -2.054   0.609  0.00  0.00    +0.150 HD
ATOM     26  H   UNL     1      -4.452  -5.312  -0.262  0.00  0.00    +0.174 HD
BRANCH  21  27
ATOM     27  C   UNL     1      -1.433  -2.201   0.743  0.00  0.00    +0.106 C 
BRANCH  27  28
ATOM     28  C   UNL     1      -1.454  -0.715   1.105  0.00  0.00    +0.022 C 
BRANCH  28  30
ATOM     29  C   UNL     1      -0.034   1.285   1.579  0.00  0.00    +0.007 C 
ATOM     30  C   UNL     1      -0.024  -0.226   1.340  0.00  0.00    -0.016 C 
ATOM     31  C   UNL     1       0.562  -0.932   2.564  0.00  0.00    +0.007 C 
ENDBRANCH  28  30
ENDBRANCH  27  28
ENDBRANCH  21  27
ENDBRANCH  17  24
ENDBRANCH   1  18
TORSDOF 7
