REMARK  Name = ZINC39455814
REMARK  7 active torsions:
REMARK  status: ('A' for Active; 'I' for Inactive)
REMARK    1  A    between atoms: C_1  and  C_2
REMARK    2  A    between atoms: C_6  and  S_9
REMARK    3  A    between atoms: S_9  and  C_10
REMARK    4  A    between atoms: C_10  and  C_11
REMARK    5  A    between atoms: N_13  and  C_14
REMARK    6  A    between atoms: C_14  and  C_15
REMARK    7  A    between atoms: C_15  and  C_16
REMARK                            x       y       z     vdW  Elec       q    Type
REMARK                         _______ _______ _______ _____ _____    ______ ____
ROOT
ATOM      1  C   UNL     1      -0.663  -5.016   1.947  0.00  0.00    +0.223 C 
ATOM      2  O   UNL     1       0.183  -5.828   2.259  0.00  0.00    -0.275 OA
ATOM      3  N   UNL     1      -1.967  -5.290   2.149  0.00  0.00    -0.314 N 
ATOM      4  H   UNL     1      -2.643  -4.641   1.899  0.00  0.00    +0.149 HD
ENDROOT
BRANCH   1   5
ATOM      5  C   UNL     1      -0.255  -3.702   1.333  0.00  0.00    +0.167 C 
BRANCH   5   6
ATOM      6  S   UNL     1       1.552  -3.635   1.192  0.00  0.00    -0.121 S 
BRANCH   6  11
ATOM      7  C   UNL     1      -0.019   1.526   0.010  0.00  0.00    +0.037 C 
ATOM      8  C   UNL     1       0.002  -0.004   0.002  0.00  0.00    +0.126 C 
ATOM      9  N   UNL     1       0.783  -0.534  -1.160  0.00  0.00    -0.242 NA
ATOM     10  N   UNL     1       1.220  -1.898  -0.887  0.00  0.00    -0.233 NA
ATOM     11  C   UNL     1       1.875  -2.013   0.446  0.00  0.00    +0.186 C 
ATOM     12  S   UNL     1       1.026  -0.672   1.385  0.00  0.00    -0.110 S 
ATOM     13  H   UNL     1       1.569   0.063  -1.369  0.00  0.00    +0.142 HD
ATOM     14  H   UNL     1       1.826  -2.237  -1.618  0.00  0.00    +0.143 HD
ENDBRANCH   6  11
ENDBRANCH   5   6
ENDBRANCH   1   5
BRANCH   3  15
ATOM     15  C   UNL     1      -2.363  -6.568   2.746  0.00  0.00    +0.109 C 
BRANCH  15  16
ATOM     16  C   UNL     1      -3.888  -6.624   2.865  0.00  0.00    +0.056 C 
BRANCH  16  17
ATOM     17  C   UNL     1      -4.295  -7.939   3.478  0.00  0.00    -0.021 A 
ATOM     18  C   UNL     1      -4.367  -8.247   4.909  0.00  0.00    +0.003 A 
ATOM     19  C   UNL     1      -4.114  -7.519   6.072  0.00  0.00    +0.010 A 
ATOM     20  C   UNL     1      -4.280  -8.111   7.293  0.00  0.00    +0.001 A 
ATOM     21  C   UNL     1      -4.699  -9.431   7.385  0.00  0.00    +0.002 A 
ATOM     22  C   UNL     1      -4.954 -10.168   6.249  0.00  0.00    +0.026 A 
ATOM     23  C   UNL     1      -4.792  -9.586   4.997  0.00  0.00    +0.047 A 
ATOM     24  N   UNL     1      -4.962 -10.043   3.709  0.00  0.00    -0.360 N 
ATOM     25  C   UNL     1      -4.667  -9.047   2.819  0.00  0.00    +0.087 A 
ATOM     26  H   UNL     1      -5.252 -10.937   3.469  0.00  0.00    +0.165 HD
ENDBRANCH  16  17
ENDBRANCH  15  16
ENDBRANCH   3  15
TORSDOF 6
