REMARK  Name = ZINC62909784
REMARK  8 active torsions:
REMARK  status: ('A' for Active; 'I' for Inactive)
REMARK    1  A    between atoms: C_1  and  C_2
REMARK    2  A    between atoms: C_2  and  O_3
REMARK    3  A    between atoms: O_3  and  C_4
REMARK    4  A    between atoms: C_8  and  C_10
REMARK    5  A    between atoms: C_10  and  C_11
REMARK    6  A    between atoms: C_10  and  N_12
REMARK    7  A    between atoms: C_13  and  C_15
REMARK    8  A    between atoms: C_15  and  N_16
REMARK                            x       y       z     vdW  Elec       q    Type
REMARK                         _______ _______ _______ _____ _____    ______ ____
ROOT
ATOM      1  N   UNL     1       1.548  -5.476   4.233  0.00  0.00    -0.307 N 
ATOM      2  C   UNL     1       1.658  -5.858   5.521  0.00  0.00    +0.233 C 
ATOM      3  O   UNL     1       2.359  -5.226   6.283  0.00  0.00    -0.274 OA
ATOM      4  H   UNL     1       0.987  -5.981   3.624  0.00  0.00    +0.149 HD
ENDROOT
BRANCH   1   5
ATOM      5  C   UNL     1       2.275  -4.298   3.754  0.00  0.00    +0.100 C 
ATOM      6  C   UNL     1       3.697  -4.702   3.359  0.00  0.00    +0.033 C 
BRANCH   5  11
ATOM      7  C   UNL     1       0.802  -1.824   1.306  0.00  0.00    +0.121 A 
ATOM      8  C   UNL     1       0.260  -2.673   0.351  0.00  0.00    +0.045 A 
ATOM      9  C   UNL     1       0.372  -4.041   0.501  0.00  0.00    +0.004 A 
ATOM     10  C   UNL     1       1.024  -4.566   1.602  0.00  0.00    +0.005 A 
ATOM     11  C   UNL     1       1.565  -3.723   2.555  0.00  0.00    -0.024 A 
ATOM     12  C   UNL     1       1.460  -2.353   2.406  0.00  0.00    +0.051 A 
BRANCH   7  13
ATOM     13  O   UNL     1       0.693  -0.477   1.160  0.00  0.00    -0.492 OA
BRANCH  13  15
ATOM     14  C   UNL     1      -0.019   1.526   0.010  0.00  0.00    +0.048 C 
ATOM     15  C   UNL     1       0.002  -0.004   0.002  0.00  0.00    +0.225 C 
ENDBRANCH  13  15
ENDBRANCH   7  13
ENDBRANCH   5  11
ENDBRANCH   1   5
BRANCH   2  16
ATOM     16  C   UNL     1       0.910  -7.069   6.014  0.00  0.00    +0.222 C 
BRANCH  16  17
ATOM     17  N   UNL     1       1.194  -7.273   7.437  0.00  0.00    -0.290 N 
ATOM     18  C   UNL     1       2.249  -8.046   7.800  0.00  0.00    +0.203 A 
ATOM     19  N   UNL     1       2.535  -8.251   9.058  0.00  0.00    -0.230 NA
ATOM     20  C   UNL     1       1.800  -7.709  10.025  0.00  0.00    +0.115 A 
ATOM     21  C   UNL     1       0.689  -6.894   9.746  0.00  0.00    +0.072 A 
ATOM     22  C   UNL     1       0.406  -6.686   8.357  0.00  0.00    +0.263 A 
ATOM     23  O   UNL     1      -0.535  -5.991   8.014  0.00  0.00    -0.267 OA
ATOM     24  C   UNL     1      -0.005  -6.382  10.913  0.00  0.00    +0.023 A 
ATOM     25  C   UNL     1       0.444  -6.706  12.137  0.00  0.00    +0.048 A 
ATOM     26  S   UNL     1       1.854  -7.742  11.798  0.00  0.00    -0.077 S 
ENDBRANCH  16  17
ENDBRANCH   2  16
TORSDOF 6
