REMARK  Name = ZINC41805017
REMARK  7 active torsions:
REMARK  status: ('A' for Active; 'I' for Inactive)
REMARK    1  A    between atoms: C_1  and  C_2
REMARK    2  A    between atoms: C_2  and  C_4
REMARK    3  A    between atoms: C_2  and  N_7
REMARK    4  A    between atoms: N_7  and  C_8
REMARK    5  A    between atoms: C_8  and  C_9
REMARK    6  A    between atoms: C_8  and  C_10
REMARK    7  A    between atoms: C_8  and  C_17
REMARK                            x       y       z     vdW  Elec       q    Type
REMARK                         _______ _______ _______ _____ _____    ______ ____
ROOT
ATOM      1  C   UNL     1      -0.948   1.024   1.687  0.00  0.00    +0.059 C 
ATOM      2  C   UNL     1      -2.413   0.630   1.487  0.00  0.00    +0.007 C 
ENDROOT
BRANCH   1   3
ATOM      3  C   UNL     1      -0.716   1.374   3.134  0.00  0.00    -0.048 A 
ATOM      4  C   UNL     1       0.209   0.664   3.877  0.00  0.00    +0.004 A 
ATOM      5  C   UNL     1       0.424   0.986   5.204  0.00  0.00    +0.015 A 
ATOM      6  C   UNL     1      -0.288   2.018   5.789  0.00  0.00    +0.018 A 
ATOM      7  C   UNL     1      -1.213   2.728   5.045  0.00  0.00    +0.015 A 
ATOM      8  C   UNL     1      -1.423   2.409   3.717  0.00  0.00    +0.004 A 
ATOM      9 BR   UNL     1       0.004   2.458   7.605  0.00  0.00    -0.050 Br
ENDBRANCH   1   3
BRANCH   1  10
ATOM     10  N   UNL     1      -0.082  -0.101   1.310  0.00  0.00    +0.400 N 
ATOM     11  H   UNL     1      -0.258  -0.881   1.926  0.00  0.00    -0.083 HD
ATOM     12  H   UNL     1       0.884   0.178   1.388  0.00  0.00    -0.083 HD
BRANCH  10  14
ATOM     13  C   UNL     1       0.763  -1.384  -0.596  0.00  0.00    -0.004 C 
ATOM     14  C   UNL     1      -0.369  -0.497  -0.075  0.00  0.00    +0.015 C 
BRANCH  14  15
ATOM     15  C   UNL     1      -1.667  -1.260  -0.121  0.00  0.00    +0.196 C 
ATOM     16  O   UNL     1      -1.991  -1.963   0.813  0.00  0.00    -0.278 OA
ATOM     17  N   UNL     1      -2.469  -1.162  -1.200  0.00  0.00    -0.331 N 
ATOM     18  H   UNL     1      -2.209  -0.600  -1.947  0.00  0.00    +0.145 HD
ATOM     19  H   UNL     1      -3.304  -1.653  -1.230  0.00  0.00    +0.145 HD
ENDBRANCH  14  15
ENDBRANCH  10  14
ENDBRANCH   1  10
BRANCH   1  20
ATOM     20  C   UNL     1      -0.627   2.216   0.824  0.00  0.00    +0.349 C 
ATOM     21  O   UNL     1       0.328   2.181   0.066  0.00  0.00    -0.248 OA
ATOM     22  O   UNL     1      -1.322   3.216   0.882  0.00  0.00    -0.248 OA
ENDBRANCH   1  20
TORSDOF 5
