REMARK  Name = ZINC40360902
REMARK  12 active torsions:
REMARK  status: ('A' for Active; 'I' for Inactive)
REMARK    1  A    between atoms: C_1  and  C_2
REMARK    2  A    between atoms: C_2  and  C_4
REMARK    3  A    between atoms: C_2  and  C_19
REMARK    4  A    between atoms: C_4  and  C_5
REMARK    5  A    between atoms: N_7  and  C_8
REMARK    6  A    between atoms: C_8  and  C_10
REMARK    7  A    between atoms: C_8  and  C_16
REMARK    8  A    between atoms: C_16  and  N_18
REMARK    9  A    between atoms: C_19  and  C_20
REMARK   10  A    between atoms: C_20  and  C_21
REMARK   11  A    between atoms: C_20  and  C_22
REMARK   12  A    between atoms: C_20  and  C_23
REMARK                            x       y       z     vdW  Elec       q    Type
REMARK                         _______ _______ _______ _____ _____    ______ ____
ROOT
ATOM      1  C   UNL     1       0.948   0.029  -2.369  0.00  0.00    +0.214 C 
ATOM      2  O   UNL     1       0.040   0.833  -2.376  0.00  0.00    -0.276 OA
ATOM      3  N   UNL     1       1.471  -0.406  -3.531  0.00  0.00    -0.306 N 
ATOM      4  H   UNL     1       2.197  -1.049  -3.526  0.00  0.00    +0.149 HD
ENDROOT
BRANCH   1   5
ATOM      5  C   UNL     1       1.490  -0.483  -1.059  0.00  0.00    +0.099 C 
BRANCH   5   7
ATOM      6  C   UNL     1       0.999   1.671   0.108  0.00  0.00    +0.008 C 
ATOM      7  C   UNL     1       0.727   0.165   0.098  0.00  0.00    -0.005 C 
BRANCH   7   8
ATOM      8  C   UNL     1       1.192  -0.446   1.421  0.00  0.00    +0.010 C 
BRANCH   8   9
ATOM      9  C   UNL     1       0.116  -0.231   2.488  0.00  0.00    -0.037 C 
ATOM     10  C   UNL     1      -1.141  -1.018   2.110  0.00  0.00    +0.010 C 
ATOM     11  C   UNL     1       0.635  -0.719   3.841  0.00  0.00    +0.010 C 
ATOM     12  C   UNL     1      -0.223   1.258   2.578  0.00  0.00    +0.010 C 
ENDBRANCH   8   9
ENDBRANCH   7   8
ENDBRANCH   5   7
ENDBRANCH   1   5
BRANCH   3  13
ATOM     13  C   UNL     1       0.944   0.091  -4.804  0.00  0.00    +0.127 C 
BRANCH  13  14
ATOM     14  C   UNL     1       1.214  -0.936  -5.905  0.00  0.00    +0.016 C 
ATOM     15  C   UNL     1       2.722  -1.163  -6.032  0.00  0.00    +0.006 C 
ATOM     16  C   UNL     1       2.993  -2.190  -7.133  0.00  0.00    +0.000 C 
ATOM     17  C   UNL     1       2.442  -1.670  -8.462  0.00  0.00    +0.000 C 
ATOM     18  C   UNL     1       0.934  -1.444  -8.335  0.00  0.00    +0.000 C 
ATOM     19  C   UNL     1       0.663  -0.416  -7.235  0.00  0.00    +0.006 C 
ENDBRANCH  13  14
BRANCH  13  20
ATOM     20  C   UNL     1       1.619   1.392  -5.154  0.00  0.00    +0.067 C 
ATOM     21  S   UNL     1       2.886   1.886  -4.313  0.00  0.00    -0.039 S 
BRANCH  20  22
ATOM     22  N   UNL     1       1.156   2.139  -6.176  0.00  0.00    -0.354 N 
ATOM     23  H   UNL     1       0.387   1.839  -6.686  0.00  0.00    +0.143 HD
ATOM     24  H   UNL     1       1.591   2.976  -6.401  0.00  0.00    +0.143 HD
ENDBRANCH  20  22
ENDBRANCH  13  20
ENDBRANCH   3  13
TORSDOF 8
