REMARK  Name = ZINC26565248
REMARK  5 active torsions:
REMARK  status: ('A' for Active; 'I' for Inactive)
REMARK    1  A    between atoms: C_10  and  N_12
REMARK    2  A    between atoms: C_13  and  C_15
REMARK    3  A    between atoms: C_15  and  C_16
REMARK    4  A    between atoms: C_16  and  C_18
REMARK    5  A    between atoms: C_16  and  N_23
REMARK                            x       y       z     vdW  Elec       q    Type
REMARK                         _______ _______ _______ _____ _____    ______ ____
ROOT
ATOM      1  N   UNL     1       1.143   1.898   0.001  0.00  0.00    -0.308 N 
ATOM      2  C   UNL     1      -0.014   1.209   0.009  0.00  0.00    +0.216 C 
ATOM      3  O   UNL     1       0.002  -0.004   0.002  0.00  0.00    -0.276 OA
ATOM      4  H   UNL     1       1.129   2.998   0.007  0.00  0.00    +0.149 HD
ENDROOT
BRANCH   1  14
ATOM      5  C   UNL     1       3.282   0.099  -4.062  0.00  0.00    +0.000 A 
ATOM      6  C   UNL     1       2.002  -0.021  -3.553  0.00  0.00    +0.000 A 
ATOM      7  C   UNL     1       1.748   0.336  -2.245  0.00  0.00    +0.006 A 
ATOM      8  C   UNL     1       2.768   0.817  -1.434  0.00  0.00    -0.024 A 
ATOM      9  C   UNL     1       4.042   0.940  -1.942  0.00  0.00    -0.042 A 
ATOM     10  C   UNL     1       4.296   0.578  -3.258  0.00  0.00    +0.004 A 
ATOM     11  C   UNL     1       5.194   1.460  -1.123  0.00  0.00    +0.035 C 
ATOM     12  C   UNL     1       4.865   1.401   0.367  0.00  0.00    +0.007 C 
ATOM     13  C   UNL     1       3.505   2.075   0.589  0.00  0.00    +0.027 C 
ATOM     14  C   UNL     1       2.422   1.183  -0.015  0.00  0.00    +0.103 C 
ENDBRANCH   1  14
BRANCH   2  15
ATOM     15  C   UNL     1      -1.330   1.944   0.019  0.00  0.00    +0.123 C 
BRANCH  15  16
ATOM     16  C   UNL     1      -2.479   0.934   0.019  0.00  0.00    +0.120 C 
BRANCH  16  17
ATOM     17  N   UNL     1      -2.466   0.180  -1.237  0.00  0.00    -0.292 N 
ATOM     18  C   UNL     1      -2.600   0.826  -2.412  0.00  0.00    +0.298 C 
ATOM     19  O   UNL     1      -2.732   2.035  -2.430  0.00  0.00    -0.253 OA
ATOM     20  N   UNL     1      -2.589   0.133  -3.568  0.00  0.00    -0.313 N 
ATOM     21  H   UNL     1      -2.347  -0.913  -1.221  0.00  0.00    +0.151 HD
ATOM     22  H   UNL     1      -2.699   0.660  -4.527  0.00  0.00    +0.146 HD
ATOM     23  H   UNL     1      -2.470  -0.961  -3.552  0.00  0.00    +0.146 HD
ENDBRANCH  16  17
BRANCH  16  24
ATOM     24  C   UNL     1      -3.790   1.665   0.153  0.00  0.00    +0.010 A 
ATOM     25  C   UNL     1      -4.560   1.842   1.254  0.00  0.00    +0.013 A 
ATOM     26  C   UNL     1      -5.736   2.559   1.142  0.00  0.00    +0.008 A 
ATOM     27  C   UNL     1      -6.090   3.057  -0.069  0.00  0.00    +0.045 A 
ATOM     28  S   UNL     1      -4.736   2.517  -1.099  0.00  0.00    -0.100 S 
ENDBRANCH  16  24
ENDBRANCH  15  16
ENDBRANCH   2  15
TORSDOF 5
