REMARK  Name = ZINC17197313
REMARK  8 active torsions:
REMARK  status: ('A' for Active; 'I' for Inactive)
REMARK    1  A    between atoms: C_1  and  C_2
REMARK    2  A    between atoms: C_2  and  C_3
REMARK    3  A    between atoms: C_2  and  C_4
REMARK    4  A    between atoms: C_7  and  C_10
REMARK    5  A    between atoms: C_11  and  C_12
REMARK    6  A    between atoms: C_14  and  C_19
REMARK    7  A    between atoms: N_21  and  N_22
REMARK    8  A    between atoms: N_25  and  C_26
REMARK                            x       y       z     vdW  Elec       q    Type
REMARK                         _______ _______ _______ _____ _____    ______ ____
ROOT
ATOM      1  C   UNL     1       1.560  -0.459   0.152  0.00  0.00    +0.069 A 
ATOM      2  C   UNL     1       1.796  -1.833   0.173  0.00  0.00    +0.061 A 
ATOM      3  C   UNL     1       3.119  -2.285   0.148  0.00  0.00    +0.132 A 
ATOM      4  N   UNL     1       4.116  -1.410   0.104  0.00  0.00    -0.216 NA
ATOM      5  C   UNL     1       3.886  -0.100   0.084  0.00  0.00    +0.200 A 
ATOM      6  S   UNL     1       5.213   0.982   0.026  0.00  0.00    -0.009 SA
ATOM      7  N   UNL     1       2.635   0.394   0.101  0.00  0.00    -0.222 NA
ENDROOT
BRANCH   3   8
ATOM      8  C   UNL     1       3.408  -3.743   0.169  0.00  0.00    +0.279 C 
ATOM      9  O   UNL     1       2.494  -4.543   0.209  0.00  0.00    -0.267 OA
ATOM     10  N   UNL     1       4.683  -4.178   0.144  0.00  0.00    -0.228 N 
ATOM     11  H   UNL     1       5.511  -3.454   0.108  0.00  0.00    +0.173 HD
BRANCH  10  12
ATOM     12  N   UNL     1       4.956  -5.552   0.164  0.00  0.00    -0.218 N 
ATOM     13  C   UNL     1       6.231  -5.987   0.139  0.00  0.00    +0.316 C 
ATOM     14  O   UNL     1       6.468  -7.179   0.157  0.00  0.00    -0.251 OA
ATOM     15  N   UNL     1       7.245  -5.099   0.095  0.00  0.00    -0.295 N 
ATOM     16  H   UNL     1       4.128  -6.276   0.200  0.00  0.00    +0.174 HD
ATOM     17  H   UNL     1       7.031  -4.020   0.080  0.00  0.00    +0.151 HD
BRANCH  15  18
ATOM     18  C   UNL     1       8.631  -5.572   0.068  0.00  0.00    +0.074 C 
ATOM     19  C   UNL     1       9.111  -5.827   1.499  0.00  0.00    +0.022 C 
ATOM     20  C   UNL     1      10.559  -6.320   1.470  0.00  0.00    +0.002 C 
ATOM     21  C   UNL     1      11.447  -5.259   0.816  0.00  0.00    +0.000 C 
ATOM     22  C   UNL     1      10.967  -5.004  -0.614  0.00  0.00    +0.002 C 
ATOM     23  C   UNL     1       9.519  -4.511  -0.586  0.00  0.00    +0.022 C 
ENDBRANCH  15  18
ENDBRANCH  10  12
ENDBRANCH   3   8
BRANCH   1  25
ATOM     24  C   UNL     1      -0.072   1.171  -0.507  0.00  0.00    +0.010 C 
ATOM     25  C   UNL     1       0.235   0.047   0.177  0.00  0.00    +0.028 C 
BRANCH  24  29
ATOM     26  C   UNL     1       2.343   2.390  -3.774  0.00  0.00    -0.045 A 
ATOM     27  C   UNL     1       2.416   1.087  -3.313  0.00  0.00    +0.004 A 
ATOM     28  C   UNL     1       1.634   0.683  -2.252  0.00  0.00    +0.008 A 
ATOM     29  C   UNL     1       0.766   1.594  -1.640  0.00  0.00    -0.025 A 
ATOM     30  C   UNL     1       0.694   2.907  -2.116  0.00  0.00    +0.008 A 
ATOM     31  C   UNL     1       1.486   3.297  -3.175  0.00  0.00    +0.004 A 
BRANCH  26  33
ATOM     32  C   UNL     1       2.306   3.302  -6.080  0.00  0.00    +0.012 C 
ATOM     33  C   UNL     1       3.201   2.823  -4.935  0.00  0.00    +0.013 C 
ATOM     34  C   UNL     1       4.118   3.965  -4.493  0.00  0.00    +0.012 C 
ENDBRANCH  26  33
ENDBRANCH  24  29
ENDBRANCH   1  25
TORSDOF 6
