REMARK  Name = ZINC51296727
REMARK  2 active torsions:
REMARK  status: ('A' for Active; 'I' for Inactive)
REMARK    1  A    between atoms: C_6  and  N_7
REMARK    2  A    between atoms: N_8  and  C_12
REMARK                            x       y       z     vdW  Elec       q    Type
REMARK                         _______ _______ _______ _____ _____    ______ ____
ROOT
ATOM      1  C   UNL     1      -0.008   1.399   0.076  0.00  0.00    +0.023 A 
ATOM      2  C   UNL     1       1.179   2.103   0.046  0.00  0.00    +0.007 A 
ATOM      3  C   UNL     1       2.391   1.432   0.010  0.00  0.00    -0.026 A 
ATOM      4  C   UNL     1       2.409   0.045   0.005  0.00  0.00    +0.035 A 
ATOM      5  C   UNL     1       1.216  -0.667   0.033  0.00  0.00    +0.046 A 
ATOM      6  C   UNL     1       0.006   0.009   0.068  0.00  0.00    +0.026 A 
ATOM      7  N   UNL     1       3.619  -0.657  -0.022  0.00  0.00    -0.325 N 
ATOM      8  C   UNL     1       4.854   0.069  -0.348  0.00  0.00    +0.106 C 
ATOM      9  C   UNL     1       4.846   1.385   0.440  0.00  0.00    +0.024 C 
ATOM     10  C   UNL     1       3.665   2.235  -0.027  0.00  0.00    +0.038 C 
ENDROOT
BRANCH   7  11
ATOM     11  C   UNL     1       3.654  -2.092   0.271  0.00  0.00    +0.096 C 
ATOM     12  C   UNL     1       4.108  -2.858  -0.983  0.00  0.00    +0.046 C 
ATOM     13  C   UNL     1       4.438  -4.319  -0.565  0.00  0.00    +0.168 C 
ATOM     14  S   UNL     1       5.298  -4.025   1.037  0.00  0.00    -0.029 S 
ATOM     15  O   UNL     1       4.814  -4.953   1.999  0.00  0.00    -0.174 OA
ATOM     16  O   UNL     1       6.696  -3.928   0.800  0.00  0.00    -0.174 OA
ATOM     17  C   UNL     1       4.641  -2.355   1.434  0.00  0.00    +0.188 C 
ENDBRANCH   7  11
BRANCH   6  18
ATOM     18  N   UNL     1      -1.195  -0.703   0.097  0.00  0.00    -0.358 N 
ATOM     19  H   UNL     1      -2.041  -0.228   0.121  0.00  0.00    +0.142 HD
ATOM     20  H   UNL     1      -1.184  -1.673   0.091  0.00  0.00    +0.142 HD
ENDBRANCH   6  18
TORSDOF 2
