REMARK  Name = ZINC04899601
REMARK  8 active torsions:
REMARK  status: ('A' for Active; 'I' for Inactive)
REMARK    1  A    between atoms: C_4  and  C_7
REMARK    2  A    between atoms: C_7  and  C_8
REMARK    3  A    between atoms: C_7  and  C_14
REMARK    4  A    between atoms: C_7  and  N_20
REMARK    5  A    between atoms: C_21  and  C_23
REMARK    6  A    between atoms: C_23  and  C_24
REMARK    7  A    between atoms: C_24  and  C_26
REMARK    8  A    between atoms: C_24  and  N_29
REMARK                            x       y       z     vdW  Elec       q    Type
REMARK                         _______ _______ _______ _____ _____    ______ ____
ROOT
ATOM      1  C   UNK     1       3.711  -0.707  -0.038  0.00  0.00    +0.110 C 
ENDROOT
BRANCH   1   5
ATOM      2  C   UNK     1      -0.188   0.795  -0.926  0.00  0.00    +0.000 A 
ATOM      3  C   UNK     1      -0.009  -0.084   0.126  0.00  0.00    +0.000 A 
ATOM      4  C   UNK     1       1.253  -0.571   0.413  0.00  0.00    +0.006 A 
ATOM      5  C   UNK     1       2.336  -0.178  -0.351  0.00  0.00    -0.015 A 
ATOM      6  C   UNK     1       2.156   0.701  -1.404  0.00  0.00    +0.006 A 
ATOM      7  C   UNK     1       0.895   1.188  -1.690  0.00  0.00    +0.000 A 
ENDBRANCH   1   5
BRANCH   1   8
ATOM      8  C   UNK     1       3.590  -1.972   0.772  0.00  0.00    -0.015 A 
ATOM      9  C   UNK     1       2.743  -2.982   0.355  0.00  0.00    +0.006 A 
ATOM     10  C   UNK     1       2.631  -4.142   1.098  0.00  0.00    +0.000 A 
ATOM     11  C   UNK     1       3.368  -4.293   2.258  0.00  0.00    +0.000 A 
ATOM     12  C   UNK     1       4.216  -3.284   2.675  0.00  0.00    +0.000 A 
ATOM     13  C   UNK     1       4.330  -2.126   1.930  0.00  0.00    +0.006 A 
ENDBRANCH   1   8
BRANCH   1  14
ATOM     14  C   UNK     1       4.441  -1.001  -1.323  0.00  0.00    -0.015 A 
ATOM     15  C   UNK     1       3.734  -1.375  -2.450  0.00  0.00    +0.006 A 
ATOM     16  C   UNK     1       4.404  -1.645  -3.628  0.00  0.00    +0.000 A 
ATOM     17  C   UNK     1       5.781  -1.541  -3.680  0.00  0.00    +0.000 A 
ATOM     18  C   UNK     1       6.489  -1.167  -2.553  0.00  0.00    +0.000 A 
ATOM     19  C   UNK     1       5.819  -0.893  -1.375  0.00  0.00    +0.006 A 
ENDBRANCH   1  14
BRANCH   1  20
ATOM     20  N   UNK     1       4.456   0.294   0.729  0.00  0.00    -0.298 N 
ATOM     21  C   UNK     1       3.989   0.715   1.922  0.00  0.00    +0.213 C 
ATOM     22  O   UNK     1       2.952   0.264   2.360  0.00  0.00    -0.276 OA
ATOM     23  H   UNK     1       5.286   0.655   0.379  0.00  0.00    +0.150 HD
BRANCH  21  24
ATOM     24  C   UNK     1       4.756   1.745   2.711  0.00  0.00    +0.091 C 
BRANCH  24  25
ATOM     25  C   UNK     1       4.014   2.043   4.015  0.00  0.00    +0.049 C 
BRANCH  25  26
ATOM     26  N   UNK     1       2.721   2.670   3.711  0.00  0.00    +0.387 N 
ATOM     27  H   UNK     1       2.875   3.531   3.207  0.00  0.00    -0.089 HD
ATOM     28  H   UNK     1       2.168   2.043   3.146  0.00  0.00    -0.089 HD
ATOM     29  H   UNK     1       2.232   2.867   4.571  0.00  0.00    -0.089 HD
ENDBRANCH  25  26
BRANCH  25  30
ATOM     30  C   UNK     1       4.840   2.980   4.859  0.00  0.00    +0.342 C 
ATOM     31  O   UNK     1       4.703   4.186   4.744  0.00  0.00    -0.248 OA
ATOM     32  O   UNK     1       5.645   2.531   5.658  0.00  0.00    -0.248 OA
ENDBRANCH  25  30
ENDBRANCH  24  25
ENDBRANCH  21  24
ENDBRANCH   1  20
TORSDOF 8
