REMARK  Name = ZINC33060029
REMARK  10 active torsions:
REMARK  status: ('A' for Active; 'I' for Inactive)
REMARK    1  A    between atoms: C_1  and  C_2
REMARK    2  A    between atoms: C_3  and  C_9
REMARK    3  A    between atoms: C_4  and  C_8
REMARK    4  A    between atoms: N_5  and  C_7
REMARK    5  A    between atoms: C_9  and  C_10
REMARK    6  A    between atoms: C_10  and  N_11
REMARK    7  A    between atoms: N_11  and  S_12
REMARK    8  A    between atoms: S_12  and  C_15
REMARK    9  A    between atoms: C_18  and  O_22
REMARK   10  A    between atoms: O_22  and  C_23
REMARK                            x       y       z     vdW  Elec       q    Type
REMARK                         _______ _______ _______ _____ _____    ______ ____
ROOT
ATOM      1  N   UNL     1      -3.220   4.236  -1.528  0.00  0.00    -0.190 NA
ATOM      2  H   UNL     1      -3.121   5.242  -1.964  0.00  0.00    +0.148 HD
ENDROOT
BRANCH   1   3
ATOM      3  S   UNL     1      -2.777   3.990   0.048  0.00  0.00    +0.058 S 
ATOM      4  O   UNL     1      -3.733   3.097   0.604  0.00  0.00    -0.153 OA
ATOM      5  O   UNL     1      -2.521   5.273   0.603  0.00  0.00    -0.153 OA
BRANCH   3   6
ATOM      6  C   UNL     1      -1.238   3.133   0.030  0.00  0.00    +0.107 A 
ATOM      7  C   UNL     1      -1.218   1.751   0.017  0.00  0.00    +0.032 A 
ATOM      8  C   UNL     1      -0.013   1.076   0.008  0.00  0.00    +0.049 A 
ATOM      9  C   UNL     1       1.179   1.786   0.000  0.00  0.00    +0.138 A 
ATOM     10  C   UNL     1       1.157   3.174   0.008  0.00  0.00    +0.084 A 
ATOM     11  C   UNL     1      -0.052   3.844   0.022  0.00  0.00    +0.052 A 
ATOM     12 CL   UNL     1       2.645   4.067  -0.001  0.00  0.00    -0.080 Cl
BRANCH   9  13
ATOM     13  O   UNL     1       2.366   1.124  -0.015  0.00  0.00    -0.494 OA
ATOM     14  C   UNL     1       2.313  -0.304  -0.022  0.00  0.00    +0.277 C 
ENDBRANCH   9  13
ENDBRANCH   3   6
ENDBRANCH   1   3
BRANCH   1  15
ATOM     15  C   UNL     1      -3.529   3.092  -2.389  0.00  0.00    +0.110 C 
BRANCH  15  16
ATOM     16  C   UNL     1      -4.255   3.580  -3.645  0.00  0.00    +0.055 C 
BRANCH  16  19
ATOM     17  C   UNL     1      -2.402   2.422  -5.940  0.00  0.00    +0.068 C 
ATOM     18  C   UNL     1      -3.756   1.891  -5.544  0.00  0.00    +0.063 A 
ATOM     19  C   UNL     1      -4.573   2.403  -4.531  0.00  0.00    -0.003 A 
ATOM     20  C   UNL     1      -5.702   1.659  -4.490  0.00  0.00    +0.039 A 
ATOM     21  N   UNL     1      -5.600   0.706  -5.440  0.00  0.00    -0.271 N 
ATOM     22  N   UNL     1      -4.368   0.870  -6.086  0.00  0.00    -0.176 NA
ATOM     23  C   UNL     1      -6.602  -0.320  -5.744  0.00  0.00    +0.172 C 
ATOM     24  C   UNL     1      -6.865   1.858  -3.553  0.00  0.00    +0.065 C 
ENDBRANCH  16  19
ENDBRANCH  15  16
ENDBRANCH   1  15
TORSDOF 6
