REMARK  Name = ZINC51114803
REMARK  8 active torsions:
REMARK  status: ('A' for Active; 'I' for Inactive)
REMARK    1  A    between atoms: C_1  and  C_2
REMARK    2  A    between atoms: C_2  and  C_3
REMARK    3  A    between atoms: C_3  and  C_4
REMARK    4  A    between atoms: C_4  and  C_6
REMARK    5  A    between atoms: C_4  and  N_11
REMARK    6  A    between atoms: C_12  and  C_14
REMARK    7  A    between atoms: C_18  and  N_20
REMARK    8  A    between atoms: N_20  and  N_21
REMARK                            x       y       z     vdW  Elec       q    Type
REMARK                         _______ _______ _______ _____ _____    ______ ____
ROOT
ATOM      1  N   UNL     1      -0.834  -2.537  -1.256  0.00  0.00    -0.303 N 
ATOM      2  C   UNL     1       0.503  -2.647  -1.384  0.00  0.00    +0.264 C 
ATOM      3  O   UNL     1       1.229  -2.353  -0.455  0.00  0.00    -0.268 OA
ATOM      4  H   UNL     1      -1.414  -2.772  -1.997  0.00  0.00    +0.150 HD
ENDROOT
BRANCH   2   5
ATOM      5  C   UNL     1       1.087  -3.126  -2.657  0.00  0.00    +0.146 A 
ATOM      6  C   UNL     1       2.470  -3.242  -2.781  0.00  0.00    +0.072 A 
ATOM      7  C   UNL     1       3.007  -3.693  -3.981  0.00  0.00    +0.026 A 
ATOM      8  C   UNL     1       2.144  -4.011  -5.013  0.00  0.00    +0.046 A 
ATOM      9  C   UNL     1       0.770  -3.871  -4.823  0.00  0.00    +0.133 A 
ATOM     10  N   UNL     1       0.288  -3.445  -3.670  0.00  0.00    -0.225 NA
ATOM     11 CL   UNL     1       3.509  -2.829  -1.453  0.00  0.00    -0.081 Cl
BRANCH   9  12
ATOM     12  N   UNL     1      -0.103  -4.189  -5.857  0.00  0.00    -0.268 N 
ATOM     13  H   UNL     1       0.245  -4.506  -6.705  0.00  0.00    +0.167 HD
BRANCH  12  14
ATOM     14  N   UNL     1      -1.451  -4.055  -5.679  0.00  0.00    -0.255 NA
ATOM     15  H   UNL     1      -1.954  -4.321  -6.512  0.00  0.00    +0.140 HD
ATOM     16  H   UNL     1      -1.765  -4.587  -4.881  0.00  0.00    +0.140 HD
ENDBRANCH  12  14
ENDBRANCH   9  12
ENDBRANCH   2   5
BRANCH   1  17
ATOM     17  C   UNL     1      -1.413  -2.063   0.004  0.00  0.00    +0.110 C 
BRANCH  17  18
ATOM     18  C   UNL     1      -2.820  -2.586   0.139  0.00  0.00    +0.010 A 
ATOM     19  C   UNL     1      -3.455  -3.052   1.242  0.00  0.00    +0.013 A 
ATOM     20  C   UNL     1      -4.764  -3.484   1.129  0.00  0.00    +0.008 A 
ATOM     21  C   UNL     1      -5.372  -3.429  -0.081  0.00  0.00    +0.045 A 
ATOM     22  S   UNL     1      -4.085  -2.743  -1.111  0.00  0.00    -0.100 S 
ENDBRANCH  17  18
BRANCH  17  23
ATOM     23  C   UNL     1      -1.433  -0.534   0.013  0.00  0.00    +0.027 C 
BRANCH  23  25
ATOM     24  C   UNL     1      -0.019   1.526   0.010  0.00  0.00    +0.004 C 
ATOM     25  C   UNL     1       0.002  -0.004   0.002  0.00  0.00    -0.001 C 
ENDBRANCH  23  25
ENDBRANCH  17  23
ENDBRANCH   1  17
TORSDOF 7
