REMARK  Name = ZINC41001288
REMARK  15 active torsions:
REMARK  status: ('A' for Active; 'I' for Inactive)
REMARK    1  A    between atoms: C_1  and  C_2
REMARK    2  A    between atoms: C_2  and  C_3
REMARK    3  A    between atoms: C_3  and  C_4
REMARK    4  A    between atoms: C_4  and  S_5
REMARK    5  A    between atoms: S_5  and  C_6
REMARK    6  A    between atoms: C_11  and  C_23
REMARK    7  A    between atoms: C_13  and  C_17
REMARK    8  A    between atoms: C_14  and  C_16
REMARK    9  A    between atoms: C_17  and  O_19
REMARK   10  A    between atoms: O_19  and  C_20
REMARK   11  A    between atoms: C_20  and  C_21
REMARK   12  A    between atoms: C_20  and  C_22
REMARK   13  A    between atoms: C_28  and  O_29
REMARK   14  A    between atoms: O_29  and  C_30
REMARK   15  A    between atoms: C_30  and  C_31
REMARK                            x       y       z     vdW  Elec       q    Type
REMARK                         _______ _______ _______ _____ _____    ______ ____
ROOT
ATOM      1  C   UNL     1       1.841  -4.399   2.148  0.00  0.00    +0.210 A 
ATOM      2  N   UNL     1       1.226  -5.145   1.219  0.00  0.00    -0.187 NA
ATOM      3  C   UNL     1       1.252  -6.399   1.581  0.00  0.00    +0.219 A 
ATOM      4  N   UNL     1       1.901  -6.482   2.768  0.00  0.00    -0.220 N 
ATOM      5  N   UNL     1       2.272  -5.183   3.112  0.00  0.00    -0.141 NA
ATOM      6  C   UNL     1       2.131  -7.738   3.478  0.00  0.00    +0.183 C 
ATOM      7  C   UNL     1       1.298  -8.826   2.854  0.00  0.00    +0.082 C 
ATOM      8  C   UNL     1       0.674  -8.685   1.675  0.00  0.00    +0.020 C 
ATOM      9  N   UNL     1       0.739  -7.523   0.947  0.00  0.00    -0.287 N 
ATOM     10  C   UNL     1      -0.126  -9.840   1.131  0.00  0.00    +0.061 C 
ATOM     11  H   UNL     1       0.439  -7.488   0.025  0.00  0.00    +0.155 HD
ENDROOT
BRANCH   6  12
ATOM     12  C   UNL     1       3.589  -8.106   3.387  0.00  0.00    +0.024 A 
ATOM     13  C   UNL     1       4.177  -8.303   2.152  0.00  0.00    +0.025 A 
ATOM     14  C   UNL     1       5.515  -8.642   2.067  0.00  0.00    +0.018 A 
ATOM     15  C   UNL     1       6.269  -8.784   3.219  0.00  0.00    +0.019 A 
ATOM     16  C   UNL     1       5.686  -8.587   4.456  0.00  0.00    +0.047 A 
ATOM     17  C   UNL     1       4.344  -8.242   4.542  0.00  0.00    +0.126 A 
ATOM     18 BR   UNL     1       6.316  -8.911   0.376  0.00  0.00    -0.050 Br
BRANCH  17  19
ATOM     19  O   UNL     1       3.770  -8.044   5.758  0.00  0.00    -0.492 OA
BRANCH  19  20
ATOM     20  C   UNL     1       4.607  -8.201   6.905  0.00  0.00    +0.225 C 
ATOM     21  C   UNL     1       3.791  -7.941   8.172  0.00  0.00    +0.048 C 
ENDBRANCH  19  20
ENDBRANCH  17  19
ENDBRANCH   6  12
BRANCH   7  22
ATOM     22  C   UNL     1       1.168 -10.053   3.542  0.00  0.00    +0.339 C 
ATOM     23  O   UNL     1       0.365 -10.159   4.450  0.00  0.00    -0.245 OA
BRANCH  22  24
ATOM     24  O   UNL     1       1.935 -11.107   3.193  0.00  0.00    -0.459 OA
BRANCH  24  25
ATOM     25  C   UNL     1       1.751 -12.316   3.931  0.00  0.00    +0.171 C 
ATOM     26  C   UNL     1       0.677 -13.169   3.254  0.00  0.00    +0.052 C 
ATOM     27  C   UNL     1       3.068 -13.094   3.974  0.00  0.00    +0.052 C 
ENDBRANCH  24  25
ENDBRANCH  22  24
ENDBRANCH   7  22
BRANCH   1  28
ATOM     28  S   UNL     1       2.046  -2.650   2.083  0.00  0.00    -0.084 S 
BRANCH  28  29
ATOM     29  C   UNL     1       1.244  -2.171   0.528  0.00  0.00    +0.077 C 
BRANCH  29  30
ATOM     30  C   UNL     1       1.350  -0.656   0.344  0.00  0.00    +0.011 C 
BRANCH  30  32
ATOM     31  C   UNL     1       0.779   1.263  -1.151  0.00  0.00    +0.004 C 
ATOM     32  C   UNL     1       0.673  -0.252  -0.967  0.00  0.00    -0.003 C 
ENDBRANCH  30  32
ENDBRANCH  29  30
ENDBRANCH  28  29
ENDBRANCH   1  28
TORSDOF 10
