REMARK  Name = ZINC44527829
REMARK  7 active torsions:
REMARK  status: ('A' for Active; 'I' for Inactive)
REMARK    1  A    between atoms: C_1  and  C_2
REMARK    2  A    between atoms: C_6  and  C_20
REMARK    3  A    between atoms: C_8  and  N_11
REMARK    4  A    between atoms: C_15  and  C_18
REMARK    5  A    between atoms: C_18  and  N_19
REMARK    6  A    between atoms: C_20  and  C_21
REMARK    7  A    between atoms: C_20  and  C_22
REMARK                            x       y       z     vdW  Elec       q    Type
REMARK                         _______ _______ _______ _____ _____    ______ ____
ROOT
ATOM      1  N   UNL     1       1.340  -2.342   1.997  0.00  0.00    +0.382 N 
ATOM      2  C   UNL     1       2.595  -1.654   1.670  0.00  0.00    -0.078 C 
ATOM      3  C   UNL     1       3.559  -1.754   2.853  0.00  0.00    -0.018 C 
ATOM      4  C   UNL     1       3.846  -3.229   3.148  0.00  0.00    -0.002 C 
ATOM      5  C   UNL     1       2.522  -3.952   3.416  0.00  0.00    -0.045 C 
ATOM      6  C   UNL     1       1.596  -3.771   2.211  0.00  0.00    -0.077 C 
ATOM      7  H   UNL     1       0.949  -1.942   2.837  0.00  0.00    -0.081 HD
ENDROOT
BRANCH   1  13
ATOM      8  C   UNL     1      -1.320   0.955  -0.559  0.00  0.00    +0.007 C 
ATOM      9  C   UNL     1      -0.960  -0.525  -0.411  0.00  0.00    -0.016 C 
ATOM     10  C   UNL     1      -2.228  -1.331  -0.120  0.00  0.00    +0.003 C 
ATOM     11  C   UNL     1      -1.868  -2.811   0.027  0.00  0.00    +0.002 C 
ATOM     12  C   UNL     1      -0.878  -2.983   1.181  0.00  0.00    -0.022 C 
ATOM     13  C   UNL     1       0.389  -2.176   0.890  0.00  0.00    -0.065 C 
ATOM     14  C   UNL     1       0.030  -0.697   0.742  0.00  0.00    -0.012 C 
BRANCH  12  15
ATOM     15  C   UNL     1      -1.515  -2.481   2.478  0.00  0.00    -0.016 C 
ATOM     16  C   UNL     1      -3.002  -2.838   2.488  0.00  0.00    +0.007 C 
ATOM     17  C   UNL     1      -0.824  -3.140   3.674  0.00  0.00    +0.007 C 
ENDBRANCH  12  15
ENDBRANCH   1  13
BRANCH   5  18
ATOM     18  C   UNL     1       2.790  -5.443   3.636  0.00  0.00    -0.085 C 
BRANCH  18  19
ATOM     19  N   UNL     1       3.584  -5.622   4.858  0.00  0.00    +0.378 N 
ATOM     20  H   UNL     1       4.462  -5.133   4.764  0.00  0.00    -0.090 HD
ATOM     21  H   UNL     1       3.076  -5.252   5.647  0.00  0.00    -0.090 HD
ATOM     22  H   UNL     1       3.760  -6.605   5.004  0.00  0.00    -0.090 HD
ENDBRANCH  18  19
ENDBRANCH   5  18
TORSDOF 4
