REMARK  Name = ZINC04236586
REMARK  12 active torsions:
REMARK  status: ('A' for Active; 'I' for Inactive)
REMARK    1  A    between atoms: C_1  and  C_2
REMARK    2  A    between atoms: C_8  and  C_10
REMARK    3  A    between atoms: C_10  and  C_11
REMARK    4  A    between atoms: C_13  and  O_36
REMARK    5  A    between atoms: C_19  and  C_35
REMARK    6  A    between atoms: C_22  and  O_28
REMARK    7  A    between atoms: C_24  and  C_25
REMARK    8  A    between atoms: C_24  and  C_26
REMARK    9  A    between atoms: C_26  and  O_27
REMARK   10  A    between atoms: O_28  and  C_29
REMARK   11  A    between atoms: N_31  and  C_32
REMARK   12  A    between atoms: C_32  and  C_33
REMARK                            x       y       z     vdW  Elec       q    Type
REMARK                         _______ _______ _______ _____ _____    ______ ____
ROOT
ATOM      1  C   UNL     1       0.672  -2.260  -1.320  0.00  0.00    +0.032 C 
ATOM      2  C   UNL     1      -0.747  -2.833  -1.337  0.00  0.00    +0.119 C 
ATOM      3  C   UNL     1      -1.493  -2.385  -0.079  0.00  0.00    +0.032 C 
ATOM      4  C   UNL     1      -1.561  -0.857  -0.043  0.00  0.00    +0.007 C 
ATOM      5  C   UNL     1      -0.142  -0.283  -0.026  0.00  0.00    +0.007 C 
ATOM      6  C   UNL     1       0.604  -0.732  -1.284  0.00  0.00    -0.023 C 
ATOM      7  C   UNL     1       2.022  -0.158  -1.267  0.00  0.00    +0.011 C 
ATOM      8  C   UNL     1       1.955   1.370  -1.231  0.00  0.00    +0.046 C 
ATOM      9  C   UNL     1       1.208   1.818   0.027  0.00  0.00    +0.186 C 
ATOM     10  C   UNL     1      -0.210   1.245   0.010  0.00  0.00    +0.031 C 
ATOM     11  C   UNL     1      -0.956   1.693   1.268  0.00  0.00    +0.017 C 
ATOM     12  C   UNL     1      -0.136  -0.225  -2.524  0.00  0.00    +0.012 C 
ENDROOT
BRANCH   2  13
ATOM     13  O   UNL     1      -1.438  -2.359  -2.495  0.00  0.00    -0.391 OA
ATOM     14  H   UNL     1      -2.346  -2.684  -2.571  0.00  0.00    +0.210 HD
ENDBRANCH   2  13
BRANCH   1  15
ATOM     15  C   UNL     1       1.418  -2.708  -2.578  0.00  0.00    +0.102 C 
BRANCH  15  23
ATOM     16  C   UNL     1       5.867  -6.259  -5.241  0.00  0.00    +0.007 C 
ATOM     17  C   UNL     1       4.391  -5.917  -5.024  0.00  0.00    -0.011 C 
ATOM     18  C   UNL     1       3.890  -6.602  -3.751  0.00  0.00    +0.022 C 
ATOM     19  C   UNL     1       2.405  -6.285  -3.556  0.00  0.00    +0.108 C 
ATOM     20  N   UNL     1       2.227  -4.826  -3.566  0.00  0.00    -0.301 N 
ATOM     21  C   UNL     1       2.748  -4.059  -4.706  0.00  0.00    +0.108 C 
ATOM     22  C   UNL     1       4.235  -4.401  -4.886  0.00  0.00    +0.022 C 
ATOM     23  C   UNL     1       1.593  -4.204  -2.553  0.00  0.00    +0.216 C 
ATOM     24  O   UNL     1       1.162  -4.849  -1.620  0.00  0.00    -0.276 OA
ENDBRANCH  15  23
ENDBRANCH   1  15
BRANCH  10  25
ATOM     25  C   UNL     1      -0.950   1.751  -1.230  0.00  0.00    +0.166 C 
BRANCH  25  26
ATOM     26  O   UNL     1      -1.187   3.155  -1.103  0.00  0.00    -0.394 OA
ATOM     27  H   UNL     1      -1.653   3.545  -1.854  0.00  0.00    +0.209 HD
ENDBRANCH  25  26
ENDBRANCH  10  25
BRANCH   9  28
ATOM     28  O   UNL     1       1.144   3.268   0.061  0.00  0.00    -0.446 OA
BRANCH  28  29
ATOM     29  C   UNL     1       2.153   3.910   0.678  0.00  0.00    +0.401 C 
ATOM     30  O   UNL     1       3.063   3.276   1.175  0.00  0.00    -0.226 OA
ATOM     31  N   UNL     1       2.155   5.256   0.745  0.00  0.00    -0.278 N 
ATOM     32  H   UNL     1       1.428   5.763   0.349  0.00  0.00    +0.152 HD
BRANCH  31  33
ATOM     33  C   UNL     1       3.253   5.955   1.417  0.00  0.00    +0.134 C 
BRANCH  33  34
ATOM     34  C   UNL     1       3.016   7.442   1.353  0.00  0.00    -0.016 C 
ATOM     35  C   UNL     1       3.000   8.151   2.454  0.00  0.00    +0.005 C 
ENDBRANCH  33  34
ENDBRANCH  31  33
ENDBRANCH  28  29
ENDBRANCH   9  28
TORSDOF 9
