REMARK  Name = ZINC14478226
REMARK  5 active torsions:
REMARK  status: ('A' for Active; 'I' for Inactive)
REMARK    1  A    between atoms: C_4  and  C_7
REMARK    2  A    between atoms: C_7  and  O_8
REMARK    3  A    between atoms: O_8  and  C_9
REMARK    4  A    between atoms: C_22  and  C_25
REMARK    5  A    between atoms: C_30  and  N_31
REMARK                            x       y       z     vdW  Elec       q    Type
REMARK                         _______ _______ _______ _____ _____    ______ ____
ROOT
ATOM      1  C   UNL     1      -0.981   1.504  -0.116  0.00  0.00    +0.121 A 
ATOM      2  C   UNL     1       0.276   0.919  -0.076  0.00  0.00    +0.047 A 
ATOM      3  C   UNL     1       1.406   1.709  -0.037  0.00  0.00    +0.027 A 
ATOM      4  C   UNL     1       1.296   3.094  -0.033  0.00  0.00    +0.032 A 
ATOM      5  C   UNL     1       0.026   3.679  -0.081  0.00  0.00    -0.016 A 
ATOM      6  C   UNL     1      -1.100   2.885  -0.114  0.00  0.00    +0.051 A 
ATOM      7  C   UNL     1      -0.044   5.157  -0.103  0.00  0.00    +0.049 C 
ATOM      8  C   UNL     1      -1.232   5.894   0.398  0.00  0.00    -0.023 C 
ATOM      9  C   UNL     1      -0.832   7.061   0.888  0.00  0.00    -0.030 C 
ATOM     10  C   UNL     1       0.690   7.179   0.780  0.00  0.00    +0.033 C 
ATOM     11  C   UNL     1       1.115   5.704   0.782  0.00  0.00    +0.029 C 
ATOM     12  C   UNL     1       2.392   5.352   0.041  0.00  0.00    +0.107 C 
ATOM     13  N   UNL     1       2.459   3.874   0.043  0.00  0.00    -0.336 N 
ATOM     14  H   UNL     1       3.323   3.437   0.097  0.00  0.00    +0.147 HD
ENDROOT
BRANCH  12  15
ATOM     15  C   UNL     1       2.332   5.868  -1.373  0.00  0.00    +0.003 A 
ATOM     16  C   UNL     1       1.906   5.039  -2.395  0.00  0.00    +0.008 A 
ATOM     17  C   UNL     1       1.851   5.513  -3.692  0.00  0.00    +0.000 A 
ATOM     18  C   UNL     1       2.222   6.816  -3.968  0.00  0.00    +0.002 A 
ATOM     19  C   UNL     1       2.648   7.645  -2.947  0.00  0.00    +0.033 A 
ATOM     20  C   UNL     1       2.698   7.172  -1.649  0.00  0.00    +0.131 A 
BRANCH  20  21
ATOM     21  N   UNL     1       3.148   8.062  -0.555  0.00  0.00    +0.057 N 
ATOM     22  O   UNL     1       3.372   9.238  -0.779  0.00  0.00    -0.126 OA
ATOM     23  O   UNL     1       3.294   7.617   0.570  0.00  0.00    -0.126 OA
ENDBRANCH  20  21
ENDBRANCH  12  15
BRANCH   1  24
ATOM     24  O   UNL     1      -2.095   0.724  -0.153  0.00  0.00    -0.487 OA
BRANCH  24  25
ATOM     25  C   UNL     1      -1.897  -0.691  -0.148  0.00  0.00    +0.264 C 
BRANCH  25  29
ATOM     26  C   UNL     1      -5.685  -2.661  -0.274  0.00  0.00    +0.000 A 
ATOM     27  C   UNL     1      -5.033  -2.341  -1.450  0.00  0.00    +0.000 A 
ATOM     28  C   UNL     1      -3.807  -1.703  -1.409  0.00  0.00    +0.007 A 
ATOM     29  C   UNL     1      -3.233  -1.386  -0.193  0.00  0.00    -0.010 A 
ATOM     30  C   UNL     1      -3.883  -1.711   0.984  0.00  0.00    +0.007 A 
ATOM     31  C   UNL     1      -5.111  -2.344   0.943  0.00  0.00    +0.000 A 
ENDBRANCH  25  29
ENDBRANCH  24  25
ENDBRANCH   1  24
TORSDOF 5
