REMARK  Name = ZINC18144265
REMARK  7 active torsions:
REMARK  status: ('A' for Active; 'I' for Inactive)
REMARK    1  A    between atoms: C_1  and  C_2
REMARK    2  A    between atoms: C_3  and  N_9
REMARK    3  A    between atoms: C_14  and  C_28
REMARK    4  A    between atoms: N_16  and  C_22
REMARK    5  A    between atoms: C_32  and  O_35
REMARK    6  A    between atoms: C_33  and  O_34
REMARK    7  A    between atoms: O_35  and  C_36
REMARK                            x       y       z     vdW  Elec       q    Type
REMARK                         _______ _______ _______ _____ _____    ______ ____
ROOT
ATOM      1  N   UNL     1       0.061  -0.146  -2.475  0.00  0.00    -0.208 N 
ATOM      2  C   UNL     1       1.060   0.268  -3.263  0.00  0.00    +0.235 C 
ATOM      3  O   UNL     1       2.240   0.077  -3.058  0.00  0.00    -0.274 OA
ATOM      4  C   UNL     1       0.489   1.011  -4.449  0.00  0.00    +0.146 C 
ATOM      5  C   UNL     1       0.866   2.506  -4.346  0.00  0.00    +0.161 C 
ATOM      6  N   UNL     1      -0.428   3.187  -4.595  0.00  0.00    -0.244 N 
ATOM      7  O   UNL     1      -1.395   2.375  -3.925  0.00  0.00    -0.257 OA
ATOM      8  C   UNL     1      -1.041   0.986  -4.187  0.00  0.00    +0.249 C 
ATOM      9  C   UNL     1      -1.161   0.190  -2.905  0.00  0.00    +0.259 C 
ATOM     10  O   UNL     1      -2.201  -0.097  -2.353  0.00  0.00    -0.272 OA
ENDROOT
BRANCH   1  13
ATOM     11  C   UNL     1      -0.230   1.200   0.016  0.00  0.00    +0.047 C 
ATOM     12  C   UNL     1       0.144  -0.258  -0.062  0.00  0.00    -0.010 A 
ATOM     13  C   UNL     1       0.276  -0.876  -1.298  0.00  0.00    +0.048 A 
ATOM     14  C   UNL     1       0.621  -2.219  -1.367  0.00  0.00    +0.024 A 
ATOM     15  C   UNL     1       0.832  -2.937  -0.205  0.00  0.00    +0.003 A 
ATOM     16  C   UNL     1       0.700  -2.320   1.024  0.00  0.00    +0.020 A 
ATOM     17  C   UNL     1       0.362  -0.980   1.096  0.00  0.00    +0.046 A 
ATOM     18 CL   UNL     1       0.204  -0.206   2.643  0.00  0.00    -0.083 Cl
ENDBRANCH   1  13
BRANCH   6  19
ATOM     19  C   UNL     1      -0.652   4.359  -5.321  0.00  0.00    +0.065 A 
ATOM     20  C   UNL     1       0.413   5.023  -5.916  0.00  0.00    +0.028 A 
ATOM     21  C   UNL     1       0.188   6.182  -6.633  0.00  0.00    +0.002 A 
ATOM     22  C   UNL     1      -1.096   6.681  -6.759  0.00  0.00    +0.000 A 
ATOM     23  C   UNL     1      -2.158   6.022  -6.168  0.00  0.00    +0.002 A 
ATOM     24  C   UNL     1      -1.941   4.860  -5.454  0.00  0.00    +0.028 A 
ENDBRANCH   6  19
BRANCH   5  25
ATOM     25  C   UNL     1       1.390   2.832  -2.971  0.00  0.00    +0.023 A 
ATOM     26  C   UNL     1       0.539   3.352  -2.013  0.00  0.00    +0.009 A 
ATOM     27  C   UNL     1       1.016   3.652  -0.750  0.00  0.00    +0.004 A 
ATOM     28  C   UNL     1       2.347   3.434  -0.441  0.00  0.00    +0.049 A 
ATOM     29  C   UNL     1       3.204   2.914  -1.397  0.00  0.00    +0.162 A 
ATOM     30  C   UNL     1       2.722   2.606  -2.666  0.00  0.00    +0.164 A 
BRANCH  30  31
ATOM     31  O   UNL     1       3.558   2.090  -3.606  0.00  0.00    -0.503 OA
ATOM     32  H   UNL     1       4.001   2.758  -4.148  0.00  0.00    +0.292 HD
ENDBRANCH  30  31
BRANCH  29  33
ATOM     33  O   UNL     1       4.512   2.700  -1.094  0.00  0.00    -0.491 OA
ATOM     34  C   UNL     1       4.935   3.033   0.229  0.00  0.00    +0.277 C 
ENDBRANCH  29  33
ENDBRANCH   5  25
TORSDOF 5
