REMARK  Name = ZINC43548604
REMARK  14 active torsions:
REMARK  status: ('A' for Active; 'I' for Inactive)
REMARK    1  A    between atoms: C_1  and  C_2
REMARK    2  A    between atoms: C_2  and  C_3
REMARK    3  A    between atoms: C_3  and  C_4
REMARK    4  A    between atoms: C_4  and  N_5
REMARK    5  A    between atoms: C_12  and  C_35
REMARK    6  A    between atoms: C_15  and  C_25
REMARK    7  A    between atoms: C_17  and  O_24
REMARK    8  A    between atoms: C_21  and  C_23
REMARK    9  A    between atoms: C_25  and  C_27
REMARK   10  A    between atoms: C_25  and  C_28
REMARK   11  A    between atoms: N_30  and  C_31
REMARK   12  A    between atoms: C_31  and  C_32
REMARK   13  A    between atoms: C_32  and  O_33
REMARK   14  A    between atoms: O_33  and  C_34
REMARK                            x       y       z     vdW  Elec       q    Type
REMARK                         _______ _______ _______ _____ _____    ______ ____
ROOT
ATOM      1  N   UNL     1       2.160  -2.425  -2.768  0.00  0.00    -0.325 N 
ATOM      2  C   UNL     1       2.166  -3.799  -2.945  0.00  0.00    +0.136 A 
ATOM      3  N   UNL     1       2.384  -4.480  -4.049  0.00  0.00    -0.340 N 
ATOM      4  C   UNL     1       2.358  -5.811  -4.072  0.00  0.00    +0.031 A 
ATOM      5  C   UNL     1       2.091  -6.396  -2.877  0.00  0.00    +0.013 A 
ATOM      6  S   UNL     1       1.901  -5.005  -1.798  0.00  0.00    -0.059 S 
ATOM      7  C   UNL     1       1.996  -7.853  -2.582  0.00  0.00    +0.051 C 
ATOM      8  C   UNL     1       1.902  -8.618  -3.904  0.00  0.00    -0.022 C 
ATOM      9  C   UNL     1       0.512  -8.461  -4.518  0.00  0.00    +0.008 C 
ATOM     10  C   UNL     1       0.434  -9.299  -5.798  0.00  0.00    +0.007 C 
ATOM     11  C   UNL     1       1.509  -8.840  -6.783  0.00  0.00    +0.029 C 
ATOM     12  C   UNL     1       2.895  -8.975  -6.148  0.00  0.00    +0.123 C 
ATOM     13  C   UNL     1       2.948  -8.089  -4.892  0.00  0.00    +0.033 C 
ATOM     14  C   UNL     1       2.596  -6.657  -5.312  0.00  0.00    +0.039 C 
ATOM     15  C   UNL     1       3.753  -6.064  -6.120  0.00  0.00    +0.014 C 
ATOM     16  C   UNL     1       2.158 -10.105  -3.647  0.00  0.00    +0.012 C 
ATOM     17  H   UNL     1       2.330  -1.838  -3.521  0.00  0.00    +0.148 HD
ATOM     18  H   UNL     1       2.570  -3.999  -4.870  0.00  0.00    +0.167 HD
ENDROOT
BRANCH  12  19
ATOM     19  O   UNL     1       3.126 -10.339  -5.787  0.00  0.00    -0.391 OA
ATOM     20  H   UNL     1       3.094 -10.954  -6.532  0.00  0.00    +0.210 HD
ENDBRANCH  12  19
BRANCH  11  21
ATOM     21  C   UNL     1       1.445  -9.705  -8.044  0.00  0.00    +0.077 C 
ATOM     22  C   UNL     1       2.520  -9.248  -9.032  0.00  0.00    +0.017 C 
BRANCH  21  23
ATOM     23  C   UNL     1       0.086  -9.565  -8.680  0.00  0.00    +0.216 C 
ATOM     24  O   UNL     1      -0.749  -8.845  -8.175  0.00  0.00    -0.276 OA
ATOM     25  N   UNL     1      -0.202 -10.241  -9.810  0.00  0.00    -0.313 N 
ATOM     26  H   UNL     1       0.466 -10.817 -10.214  0.00  0.00    +0.149 HD
BRANCH  25  27
ATOM     27  C   UNL     1      -1.523 -10.105 -10.428  0.00  0.00    +0.132 C 
BRANCH  27  28
ATOM     28  C   UNL     1      -1.588 -10.970 -11.689  0.00  0.00    +0.178 C 
BRANCH  28  29
ATOM     29  O   UNL     1      -1.480 -12.348 -11.327  0.00  0.00    -0.381 OA
ATOM     30  C   UNL     1      -1.529 -13.246 -12.437  0.00  0.00    +0.194 C 
ENDBRANCH  28  29
ENDBRANCH  27  28
ENDBRANCH  25  27
ENDBRANCH  21  23
ENDBRANCH  11  21
BRANCH   1  31
ATOM     31  C   UNL     1       1.899  -1.858  -1.442  0.00  0.00    +0.103 C 
BRANCH  31  32
ATOM     32  C   UNL     1       1.950  -0.331  -1.521  0.00  0.00    +0.018 C 
BRANCH  32  34
ATOM     33  C   UNL     1       1.727   1.787  -0.215  0.00  0.00    +0.004 C 
ATOM     34  C   UNL     1       1.676   0.260  -0.136  0.00  0.00    -0.002 C 
ENDBRANCH  32  34
ENDBRANCH  31  32
ENDBRANCH   1  31
TORSDOF 9
