REMARK  Name = ZINC45551352
REMARK  8 active torsions:
REMARK  status: ('A' for Active; 'I' for Inactive)
REMARK    1  A    between atoms: C_1  and  C_2
REMARK    2  A    between atoms: C_7  and  N_12
REMARK    3  A    between atoms: C_9  and  C_11
REMARK    4  A    between atoms: N_15  and  C_16
REMARK    5  A    between atoms: C_16  and  C_17
REMARK    6  A    between atoms: C_17  and  C_18
REMARK    7  A    between atoms: C_21  and  S_24
REMARK    8  A    between atoms: S_24  and  N_27
REMARK                            x       y       z     vdW  Elec       q    Type
REMARK                         _______ _______ _______ _____ _____    ______ ____
ROOT
ATOM      1  N   UNL     1       0.735  -0.503   3.687  0.00  0.00    -0.296 N 
ATOM      2  C   UNL     1       0.634   0.166   4.853  0.00  0.00    +0.300 C 
ATOM      3  O   UNL     1      -0.045   1.173   4.919  0.00  0.00    -0.253 OA
ATOM      4  N   UNL     1       1.286  -0.280   5.945  0.00  0.00    -0.299 N 
ATOM      5  H   UNL     1       1.276  -1.306   3.634  0.00  0.00    +0.151 HD
ATOM      6  H   UNL     1       1.827  -1.083   5.892  0.00  0.00    +0.150 HD
ENDROOT
BRANCH   1  12
ATOM      7  C   UNL     1      -0.019   1.526   0.010  0.00  0.00    +0.008 C 
ATOM      8  C   UNL     1       0.002  -0.004   0.002  0.00  0.00    -0.009 C 
ATOM      9  C   UNL     1      -1.433  -0.534   0.013  0.00  0.00    +0.003 C 
ATOM     10  C   UNL     1      -2.149  -0.040   1.272  0.00  0.00    +0.002 C 
ATOM     11  C   UNL     1      -1.409  -0.547   2.511  0.00  0.00    +0.022 C 
ATOM     12  C   UNL     1       0.026  -0.018   2.500  0.00  0.00    +0.078 C 
ATOM     13  C   UNL     1       0.742  -0.511   1.242  0.00  0.00    +0.009 C 
ATOM     14  C   UNL     1       2.178   0.019   1.231  0.00  0.00    +0.009 C 
ENDBRANCH   1  12
BRANCH   4  15
ATOM     15  C   UNL     1       1.176   0.447   7.212  0.00  0.00    +0.110 C 
BRANCH  15  16
ATOM     16  C   UNL     1       2.006  -0.265   8.282  0.00  0.00    +0.054 C 
BRANCH  16  17
ATOM     17  C   UNL     1       1.893   0.483   9.585  0.00  0.00    -0.046 A 
ATOM     18  C   UNL     1       2.790   1.492   9.883  0.00  0.00    +0.005 A 
ATOM     19  C   UNL     1       2.686   2.179  11.078  0.00  0.00    +0.029 A 
ATOM     20  C   UNL     1       1.686   1.856  11.976  0.00  0.00    +0.105 A 
ATOM     21  C   UNL     1       0.788   0.848  11.678  0.00  0.00    +0.029 A 
ATOM     22  C   UNL     1       0.889   0.164  10.481  0.00  0.00    +0.005 A 
BRANCH  20  23
ATOM     23  S   UNL     1       1.555   2.730  13.500  0.00  0.00    +0.056 S 
ATOM     24  O   UNL     1       0.870   1.872  14.403  0.00  0.00    -0.153 OA
ATOM     25  O   UNL     1       2.845   3.256  13.779  0.00  0.00    -0.153 OA
BRANCH  23  26
ATOM     26  N   UNL     1       0.561   4.029  13.236  0.00  0.00    -0.204 NA
ATOM     27  H   UNL     1       0.016   4.377  13.959  0.00  0.00    +0.144 HD
ATOM     28  H   UNL     1       0.525   4.441  12.359  0.00  0.00    +0.144 HD
ENDBRANCH  23  26
ENDBRANCH  20  23
ENDBRANCH  16  17
ENDBRANCH  15  16
ENDBRANCH   4  15
TORSDOF 6
