REMARK  Name = ZINC06415837
REMARK  7 active torsions:
REMARK  status: ('A' for Active; 'I' for Inactive)
REMARK    1  A    between atoms: C_1  and  C_2
REMARK    2  A    between atoms: C_10  and  O_29
REMARK    3  A    between atoms: N_14  and  O_15
REMARK    4  A    between atoms: O_15  and  C_16
REMARK    5  A    between atoms: C_16  and  C_17
REMARK    6  A    between atoms: C_26  and  O_27
REMARK    7  A    between atoms: C_26  and  O_28
REMARK                            x       y       z     vdW  Elec       q    Type
REMARK                         _______ _______ _______ _____ _____    ______ ____
ROOT
ATOM      1  C   UNL     1       1.212  -4.353   3.085  0.00  0.00    +0.017 C 
ATOM      2  C   UNL     1       1.062  -2.849   2.847  0.00  0.00    +0.025 C 
ATOM      3  C   UNL     1       2.320  -2.244   2.218  0.00  0.00    +0.013 C 
ATOM      4  C   UNL     1       2.466  -2.695   0.767  0.00  0.00    +0.009 C 
ATOM      5  C   UNL     1       1.265  -2.191  -0.033  0.00  0.00    +0.023 C 
ATOM      6  C   UNL     1       1.217  -0.690  -0.014  0.00  0.00    -0.035 A 
ATOM      7  C   UNL     1       2.401   0.026  -0.018  0.00  0.00    +0.008 A 
ATOM      8  C   UNL     1       2.382   1.407  -0.010  0.00  0.00    +0.046 A 
ATOM      9  C   UNL     1       1.176   2.094   0.002  0.00  0.00    +0.117 A 
ATOM     10  C   UNL     1      -0.017   1.390   0.010  0.00  0.00    +0.055 A 
ATOM     11  C   UNL     1       0.002  -0.004   0.002  0.00  0.00    +0.006 A 
ATOM     12  C   UNL     1      -1.274  -0.756   0.016  0.00  0.00    +0.088 C 
ATOM     13  N   UNL     1      -2.398  -0.160   0.245  0.00  0.00    -0.088 NA
ATOM     14  C   UNL     1      -1.217  -2.247  -0.247  0.00  0.00    +0.063 C 
ATOM     15  C   UNL     1      -0.012  -2.800   0.530  0.00  0.00    +0.006 C 
ATOM     16  C   UNL     1      -0.169  -2.494   2.000  0.00  0.00    +0.004 C 
ATOM     17  C   UNL     1      -0.410  -1.015   2.290  0.00  0.00    +0.010 C 
ATOM     18  C   UNL     1      -0.106  -0.888   3.800  0.00  0.00    +0.065 C 
ATOM     19  C   UNL     1       0.809  -2.072   4.166  0.00  0.00    +0.170 C 
ENDROOT
BRANCH  19  20
ATOM     20  O   UNL     1       0.160  -2.918   5.117  0.00  0.00    -0.364 OA
ATOM     21  H   UNL     1      -0.026  -2.488   5.964  0.00  0.00    +0.213 HD
ENDBRANCH  19  20
BRANCH  19  22
ATOM     22  O   UNL     1       2.045  -1.591   4.698  0.00  0.00    -0.364 OA
ATOM     23  H   UNL     1       1.952  -1.096   5.524  0.00  0.00    +0.213 HD
ENDBRANCH  19  22
BRANCH   9  24
ATOM     24  O   UNL     1       1.165   3.453   0.006  0.00  0.00    -0.507 OA
ATOM     25  H   UNL     1       1.169   3.844   0.891  0.00  0.00    +0.292 HD
ENDBRANCH   9  24
BRANCH  13  26
ATOM     26  O   UNL     1      -3.604  -0.903   0.252  0.00  0.00    -0.382 OA
BRANCH  26  27
ATOM     27  C   UNL     1      -4.769  -0.118   0.518  0.00  0.00    +0.387 C 
BRANCH  27  28
ATOM     28  C   UNL     1      -5.987  -1.005   0.502  0.00  0.00    +0.395 C 
ATOM     29  O   UNL     1      -5.870  -2.188   0.285  0.00  0.00    -0.242 OA
ATOM     30  O   UNL     1      -7.202  -0.480   0.729  0.00  0.00    -0.242 OA
ENDBRANCH  27  28
ENDBRANCH  26  27
ENDBRANCH  13  26
TORSDOF 6
