REMARK  Name = ZINC40352480
REMARK  7 active torsions:
REMARK  status: ('A' for Active; 'I' for Inactive)
REMARK    1  A    between atoms: C_1  and  C_2
REMARK    2  A    between atoms: C_5  and  O_9
REMARK    3  A    between atoms: C_6  and  N_8
REMARK    4  A    between atoms: O_9  and  C_10
REMARK    5  A    between atoms: C_10  and  C_11
REMARK    6  A    between atoms: C_11  and  C_13
REMARK    7  A    between atoms: C_11  and  O_21
REMARK                            x       y       z     vdW  Elec       q    Type
REMARK                         _______ _______ _______ _____ _____    ______ ____
ROOT
ATOM      1  C   UNL     1       0.061  -4.772  -1.313  0.00  0.00    +0.265 C 
ENDROOT
BRANCH   1   2
ATOM      2  O   UNL     1       0.059  -4.134  -0.034  0.00  0.00    -0.487 OA
BRANCH   2   7
ATOM      3  C   UNL     1      -0.018   1.503   0.010  0.00  0.00    +0.044 C 
ATOM      4  C   UNL     1       0.002  -0.004   0.002  0.00  0.00    -0.048 A 
ATOM      5  C   UNL     1       0.006  -0.687  -1.200  0.00  0.00    +0.007 A 
ATOM      6  C   UNL     1       0.025  -2.070  -1.214  0.00  0.00    +0.048 A 
ATOM      7  C   UNL     1       0.041  -2.775  -0.022  0.00  0.00    +0.141 A 
ATOM      8  C   UNL     1       0.037  -2.087   1.190  0.00  0.00    +0.067 A 
ATOM      9  C   UNL     1       0.023  -0.700   1.196  0.00  0.00    +0.029 A 
BRANCH   8  10
ATOM     10  N   UNL     1       0.052  -2.794   2.398  0.00  0.00    -0.355 N 
ATOM     11  H   UNL     1       0.065  -3.764   2.392  0.00  0.00    +0.142 HD
ATOM     12  H   UNL     1       0.050  -2.314   3.241  0.00  0.00    +0.142 HD
ENDBRANCH   8  10
ENDBRANCH   2   7
ENDBRANCH   1   2
BRANCH   1  13
ATOM     13  C   UNL     1       0.083  -6.290  -1.126  0.00  0.00    +0.183 C 
BRANCH  13  14
ATOM     14  C   UNL     1      -0.039  -6.963  -2.469  0.00  0.00    -0.001 A 
ATOM     15  C   UNL     1       1.097  -7.367  -3.145  0.00  0.00    +0.022 A 
ATOM     16  C   UNL     1       0.986  -7.985  -4.377  0.00  0.00    +0.018 A 
ATOM     17  C   UNL     1      -0.263  -8.199  -4.934  0.00  0.00    +0.016 A 
ATOM     18  C   UNL     1      -1.399  -7.795  -4.258  0.00  0.00    +0.017 A 
ATOM     19  C   UNL     1      -1.287  -7.182  -3.022  0.00  0.00    +0.024 A 
ATOM     20 BR   UNL     1      -2.842  -6.637  -2.094  0.00  0.00    -0.050 Br
ATOM     21 BR   UNL     1       2.540  -8.536  -5.303  0.00  0.00    -0.050 Br
ENDBRANCH  13  14
BRANCH  13  22
ATOM     22  O   UNL     1       1.312  -6.677  -0.509  0.00  0.00    -0.384 OA
ATOM     23  H   UNL     1       2.099  -6.441  -1.019  0.00  0.00    +0.210 HD
ENDBRANCH  13  22
ENDBRANCH   1  13
TORSDOF 6
