REMARK  Name = ZINC12507757
REMARK  6 active torsions:
REMARK  status: ('A' for Active; 'I' for Inactive)
REMARK    1  A    between atoms: C_1  and  C_2
REMARK    2  A    between atoms: C_2  and  O_3
REMARK    3  A    between atoms: O_3  and  C_4
REMARK    4  A    between atoms: C_6  and  C_13
REMARK    5  A    between atoms: C_9  and  O_10
REMARK    6  A    between atoms: O_10  and  C_11
REMARK                            x       y       z     vdW  Elec       q    Type
REMARK                         _______ _______ _______ _____ _____    ______ ____
ROOT
ATOM      1  C   UNL     1      -0.219  -4.963  -0.535  0.00  0.00    +0.209 C 
ATOM      2  N   UNL     1       0.684  -6.107  -0.760  0.00  0.00    -0.294 N 
ATOM      3  C   UNL     1       0.638  -7.156   0.147  0.00  0.00    +0.159 C 
ATOM      4  N   UNL     1      -0.621  -7.695   0.413  0.00  0.00    -0.259 N 
ATOM      5  C   UNL     1      -1.672  -6.779   0.392  0.00  0.00    +0.205 A 
ATOM      6  N   UNL     1      -1.501  -5.492  -0.059  0.00  0.00    -0.288 N 
ATOM      7  C   UNL     1      -2.720  -4.854   0.035  0.00  0.00    +0.076 A 
ATOM      8  C   UNL     1      -3.168  -3.575  -0.269  0.00  0.00    +0.077 A 
ATOM      9  C   UNL     1      -4.492  -3.244  -0.054  0.00  0.00    +0.164 A 
ATOM     10  C   UNL     1      -5.380  -4.182   0.465  0.00  0.00    +0.164 A 
ATOM     11  C   UNL     1      -4.949  -5.455   0.774  0.00  0.00    +0.079 A 
ATOM     12  C   UNL     1      -3.612  -5.804   0.561  0.00  0.00    +0.095 A 
ATOM     13  N   UNL     1      -2.906  -6.957   0.761  0.00  0.00    -0.214 NA
ATOM     14  O   UNL     1      -6.685  -3.835   0.666  0.00  0.00    -0.488 OA
ATOM     15  C   UNL     1      -6.926  -2.881   1.701  0.00  0.00    +0.232 C 
ATOM     16  C   UNL     1      -6.747  -1.463   1.181  0.00  0.00    +0.082 C 
ATOM     17  C   UNL     1      -5.314  -1.177   0.763  0.00  0.00    +0.232 C 
ATOM     18  O   UNL     1      -4.939  -1.988  -0.352  0.00  0.00    -0.488 OA
ATOM     19  N   UNL     1       1.715  -7.614   0.720  0.00  0.00    -0.375 N 
ATOM     20  H   UNL     1       1.289  -6.126  -1.518  0.00  0.00    +0.151 HD
ATOM     21  H   UNL     1       2.578  -7.220   0.517  0.00  0.00    +0.158 HD
ATOM     22  H   UNL     1      -0.755  -8.638   0.598  0.00  0.00    +0.158 HD
ATOM     23  H   UNL     1       1.653  -8.348   1.351  0.00  0.00    +0.158 HD
ENDROOT
BRANCH   1  26
ATOM     24  C   UNL     1       0.802  -1.825   1.306  0.00  0.00    +0.163 A 
ATOM     25  C   UNL     1       0.260  -2.673   0.352  0.00  0.00    +0.056 A 
ATOM     26  C   UNL     1       0.371  -4.043   0.502  0.00  0.00    -0.002 A 
ATOM     27  C   UNL     1       1.022  -4.571   1.602  0.00  0.00    +0.026 A 
ATOM     28  C   UNL     1       1.565  -3.730   2.557  0.00  0.00    +0.063 A 
ATOM     29  C   UNL     1       1.462  -2.356   2.409  0.00  0.00    +0.175 A 
ATOM     30 BR   UNL     1       2.453  -4.456   4.061  0.00  0.00    -0.046 Br
BRANCH  29  31
ATOM     31  O   UNL     1       2.000  -1.528   3.345  0.00  0.00    -0.490 OA
ATOM     32  C   UNL     1       1.161  -1.151   4.438  0.00  0.00    +0.277 C 
ENDBRANCH  29  31
BRANCH  24  33
ATOM     33  O   UNL     1       0.693  -0.477   1.160  0.00  0.00    -0.489 OA
BRANCH  33  35
ATOM     34  C   UNL     1      -0.019   1.526   0.010  0.00  0.00    +0.048 C 
ATOM     35  C   UNL     1       0.002  -0.004   0.002  0.00  0.00    +0.226 C 
ENDBRANCH  33  35
ENDBRANCH  24  33
ENDBRANCH   1  26
TORSDOF 4
