REMARK  Name = ZINC14679741
REMARK  13 active torsions:
REMARK  status: ('A' for Active; 'I' for Inactive)
REMARK    1  A    between atoms: C_1  and  C_2
REMARK    2  A    between atoms: C_2  and  C_3
REMARK    3  A    between atoms: C_3  and  C_5
REMARK    4  A    between atoms: C_3  and  O_14
REMARK    5  A    between atoms: C_10  and  C_13
REMARK    6  A    between atoms: O_14  and  C_15
REMARK    7  A    between atoms: C_15  and  C_17
REMARK    8  A    between atoms: C_18  and  C_19
REMARK    9  A    between atoms: C_20  and  C_33
REMARK   10  A    between atoms: N_22  and  C_25
REMARK   11  A    between atoms: C_23  and  C_24
REMARK   12  A    between atoms: C_25  and  C_26
REMARK   13  A    between atoms: C_29  and  C_32
REMARK                            x       y       z     vdW  Elec       q    Type
REMARK                         _______ _______ _______ _____ _____    ______ ____
ROOT
ATOM      1  C   UNL     1      -1.621   5.119   0.772  0.00  0.00    +0.092 C 
ATOM      2  C   UNL     1      -2.614   5.819   0.181  0.00  0.00    +0.018 C 
ENDROOT
BRANCH   2   3
ATOM      3  C   UNL     1      -2.596   7.288   0.210  0.00  0.00    +0.018 A 
ATOM      4  C   UNL     1      -2.415   8.104   1.352  0.00  0.00    +0.067 A 
ATOM      5  N   UNL     1      -2.458   9.350   0.969  0.00  0.00    -0.175 NA
ATOM      6  N   UNL     1      -2.674   9.394  -0.413  0.00  0.00    -0.263 N 
ATOM      7  C   UNL     1      -2.757   8.134  -0.873  0.00  0.00    +0.044 A 
ATOM      8  C   UNL     1      -2.985   7.718  -2.303  0.00  0.00    +0.066 C 
ATOM      9  C   UNL     1      -2.207   7.618   2.763  0.00  0.00    +0.068 C 
BRANCH   6  10
ATOM     10  C   UNL     1      -2.788  10.609  -1.223  0.00  0.00    +0.178 C 
BRANCH  10  11
ATOM     11  C   UNL     1      -4.232  11.039  -1.282  0.00  0.00    -0.026 A 
ATOM     12  C   UNL     1      -5.051  10.572  -2.292  0.00  0.00    +0.006 A 
ATOM     13  C   UNL     1      -6.376  10.964  -2.344  0.00  0.00    +0.004 A 
ATOM     14  C   UNL     1      -6.879  11.828  -1.390  0.00  0.00    -0.050 A 
ATOM     15  C   UNL     1      -6.058  12.299  -0.382  0.00  0.00    +0.004 A 
ATOM     16  C   UNL     1      -4.734  11.905  -0.328  0.00  0.00    +0.006 A 
ATOM     17  C   UNL     1      -8.322  12.258  -1.448  0.00  0.00    +0.044 C 
ENDBRANCH  10  11
ENDBRANCH   6  10
ENDBRANCH   2   3
BRANCH   1  18
ATOM     18  C   UNL     1      -1.639   3.704   0.744  0.00  0.00    +0.333 C 
ATOM     19  O   UNL     1      -2.548   3.118   0.187  0.00  0.00    -0.246 OA
BRANCH  18  20
ATOM     20  O   UNL     1      -0.647   3.004   1.334  0.00  0.00    -0.449 OA
BRANCH  20  21
ATOM     21  C   UNL     1      -0.729   1.579   1.267  0.00  0.00    +0.262 C 
BRANCH  21  22
ATOM     22  C   UNL     1      -0.074   0.981   2.485  0.00  0.00    +0.259 C 
ATOM     23  O   UNL     1       0.494   1.697   3.282  0.00  0.00    -0.271 OA
ATOM     24  N   UNL     1      -0.119  -0.351   2.688  0.00  0.00    -0.265 N 
ATOM     25  C   UNL     1       0.487  -0.905   3.816  0.00  0.00    +0.168 A 
ATOM     26  C   UNL     1       1.187  -0.209   4.837  0.00  0.00    +0.091 A 
ATOM     27  C   UNL     1       1.575  -1.184   5.690  0.00  0.00    +0.136 A 
ATOM     28  O   UNL     1       1.124  -2.340   5.181  0.00  0.00    -0.358 OA
ATOM     29  N   UNL     1       0.520  -2.169   4.148  0.00  0.00    -0.063 NA
ATOM     30  C   UNL     1       2.361  -1.006   6.963  0.00  0.00    +0.089 C 
ATOM     31  H   UNL     1      -0.574  -0.924   2.051  0.00  0.00    +0.156 HD
ENDBRANCH  21  22
BRANCH  21  33
ATOM     32  C   UNL     1      -0.753   1.593  -1.232  0.00  0.00    +0.008 C 
ATOM     33  C   UNL     1      -0.013   1.086   0.008  0.00  0.00    +0.051 C 
ENDBRANCH  21  33
ENDBRANCH  20  21
ENDBRANCH  18  20
ENDBRANCH   1  18
TORSDOF 8
