REMARK  Name = ZINC09587004
REMARK  8 active torsions:
REMARK  status: ('A' for Active; 'I' for Inactive)
REMARK    1  A    between atoms: N_11  and  C_12
REMARK    2  A    between atoms: C_17  and  C_18
REMARK    3  A    between atoms: C_17  and  N_59
REMARK    4  A    between atoms: N_20  and  C_21
REMARK    5  A    between atoms: C_21  and  C_22
REMARK    6  A    between atoms: C_22  and  C_23
REMARK    7  A    between atoms: C_26  and  S_29
REMARK    8  A    between atoms: S_29  and  N_32
REMARK                            x       y       z     vdW  Elec       q    Type
REMARK                         _______ _______ _______ _____ _____    ______ ____
ROOT
ATOM      1  C   UNL     1       0.002  -0.004   0.002  0.00  0.00    +0.019 C 
ENDROOT
BRANCH   1   7
ATOM      2  C   UNL     1       1.068   3.891   1.406  0.00  0.00    +0.089 C 
ATOM      3  C   UNL     1       1.860   3.261   0.257  0.00  0.00    +0.006 C 
ATOM      4  C   UNL     1       1.654   1.745   0.273  0.00  0.00    -0.076 C 
ATOM      5  C   UNL     1      -0.551   1.997   1.246  0.00  0.00    -0.076 C 
ATOM      6  C   UNL     1      -0.410   3.521   1.259  0.00  0.00    +0.006 C 
ATOM      7  N   UNL     1       0.214   1.455   0.104  0.00  0.00    +0.386 N 
ATOM      8  H   UNL     1      -0.116   1.901  -0.760  0.00  0.00    -0.081 HD
BRANCH   2  19
ATOM      9  C   UNL     1       2.700   8.204   3.961  0.00  0.00    +0.002 A 
ATOM     10  C   UNL     1       2.750   6.896   4.414  0.00  0.00    +0.002 A 
ATOM     11  C   UNL     1       2.280   5.867   3.622  0.00  0.00    +0.028 A 
ATOM     12  C   UNL     1       1.755   6.144   2.369  0.00  0.00    +0.070 A 
ATOM     13  C   UNL     1       1.705   7.463   1.912  0.00  0.00    +0.067 A 
ATOM     14  C   UNL     1       2.180   8.489   2.714  0.00  0.00    +0.028 A 
ATOM     15  N   UNL     1       1.137   7.427   0.641  0.00  0.00    -0.306 N 
ATOM     16  H   UNL     1       0.973   8.194   0.071  0.00  0.00    +0.170 HD
ATOM     17  C   UNL     1       0.859   6.145   0.337  0.00  0.00    +0.328 A 
ATOM     18  O   UNL     1       0.359   5.765  -0.706  0.00  0.00    -0.247 OA
ATOM     19  N   UNL     1       1.216   5.348   1.361  0.00  0.00    -0.289 N 
ENDBRANCH   2  19
ENDBRANCH   1   7
BRANCH   1  20
ATOM     20  C   UNL     1       0.597  -0.491  -1.294  0.00  0.00    +0.196 C 
ATOM     21  O   UNL     1       1.051   0.304  -2.090  0.00  0.00    -0.278 OA
ATOM     22  N   UNL     1       0.625  -1.810  -1.569  0.00  0.00    -0.317 N 
ATOM     23  H   UNL     1       0.262  -2.446  -0.933  0.00  0.00    +0.149 HD
BRANCH  22  24
ATOM     24  C   UNL     1       1.203  -2.284  -2.829  0.00  0.00    +0.109 C 
BRANCH  24  25
ATOM     25  C   UNL     1       1.110  -3.810  -2.891  0.00  0.00    +0.054 C 
BRANCH  25  26
ATOM     26  C   UNL     1       1.705  -4.297  -4.187  0.00  0.00    -0.046 A 
ATOM     27  C   UNL     1       0.904  -4.439  -5.305  0.00  0.00    +0.005 A 
ATOM     28  C   UNL     1       1.451  -4.882  -6.495  0.00  0.00    +0.029 A 
ATOM     29  C   UNL     1       2.796  -5.191  -6.565  0.00  0.00    +0.105 A 
ATOM     30  C   UNL     1       3.596  -5.054  -5.446  0.00  0.00    +0.029 A 
ATOM     31  C   UNL     1       3.050  -4.607  -4.257  0.00  0.00    +0.005 A 
BRANCH  29  32
ATOM     32  S   UNL     1       3.492  -5.760  -8.080  0.00  0.00    +0.056 S 
ATOM     33  O   UNL     1       2.649  -5.282  -9.119  0.00  0.00    -0.153 OA
ATOM     34  O   UNL     1       4.880  -5.460  -8.028  0.00  0.00    -0.153 OA
BRANCH  32  35
ATOM     35  N   UNL     1       3.364  -7.411  -8.089  0.00  0.00    -0.204 NA
ATOM     36  H   UNL     1       2.959  -7.870  -7.337  0.00  0.00    +0.144 HD
ATOM     37  H   UNL     1       3.694  -7.919  -8.847  0.00  0.00    +0.144 HD
ENDBRANCH  32  35
ENDBRANCH  29  32
ENDBRANCH  25  26
ENDBRANCH  24  25
ENDBRANCH  22  24
ENDBRANCH   1  20
TORSDOF 8
