REMARK  Name = ZINC12885854
REMARK  5 active torsions:
REMARK  status: ('A' for Active; 'I' for Inactive)
REMARK    1  A    between atoms: C_4  and  C_7
REMARK    2  A    between atoms: C_7  and  C_8
REMARK    3  A    between atoms: C_8  and  N_9
REMARK    4  A    between atoms: C_14  and  C_30
REMARK    5  A    between atoms: C_30  and  C_31
REMARK                            x       y       z     vdW  Elec       q    Type
REMARK                         _______ _______ _______ _____ _____    ______ ____
ROOT
ATOM      1  N   UNL     1      -0.912   3.293   2.304  0.00  0.00    -0.241 N 
ATOM      2  C   UNL     1      -1.479   4.227   1.505  0.00  0.00    +0.224 C 
ATOM      3  O   UNL     1      -2.664   4.465   1.413  0.00  0.00    -0.275 OA
ATOM      4  C   UNL     1      -0.384   4.930   0.735  0.00  0.00    +0.073 C 
ATOM      5  C   UNL     1      -0.480   4.537  -0.755  0.00  0.00    -0.053 C 
ATOM      6  C   UNL     1       1.497   3.550   0.006  0.00  0.00    +0.050 C 
ATOM      7  C   UNL     1       0.922   4.256   1.240  0.00  0.00    +0.088 C 
ATOM      8  C   UNL     1       0.423   3.230   2.232  0.00  0.00    +0.225 C 
ATOM      9  O   UNL     1       1.123   2.468   2.864  0.00  0.00    -0.275 OA
ATOM     10  C   UNL     1       1.166   2.085   0.002  0.00  0.00    -0.028 A 
ATOM     11  C   UNL     1      -0.017   1.379   0.010  0.00  0.00    +0.004 A 
ATOM     12  C   UNL     1       0.002  -0.004   0.002  0.00  0.00    +0.000 A 
ATOM     13  C   UNL     1       1.211  -0.676  -0.013  0.00  0.00    +0.002 A 
ATOM     14  C   UNL     1       2.398   0.026  -0.020  0.00  0.00    +0.023 A 
ATOM     15  C   UNL     1       2.388   1.419  -0.013  0.00  0.00    +0.036 A 
ATOM     16  N   UNL     1       3.439   2.339  -0.018  0.00  0.00    -0.286 N 
ATOM     17  C   UNL     1       3.000   3.612  -0.010  0.00  0.00    +0.211 C 
ATOM     18  O   UNL     1       3.683   4.614  -0.012  0.00  0.00    -0.277 OA
ATOM     19  H   UNL     1       4.377   2.090  -0.028  0.00  0.00    +0.155 HD
ATOM     20  N   UNL     1       0.902   4.232  -1.131  0.00  0.00    +0.394 N 
ATOM     21  H   UNL     1       1.415   5.099  -1.332  0.00  0.00    -0.083 HD
ATOM     22  H   UNL     1       0.919   3.624  -1.958  0.00  0.00    -0.083 HD
ENDROOT
BRANCH   1  23
ATOM     23  C   UNL     1      -1.700   2.426   3.184  0.00  0.00    +0.121 C 
BRANCH  23  24
ATOM     24  C   UNL     1      -1.870   3.102   4.546  0.00  0.00    +0.054 C 
BRANCH  24  28
ATOM     25  C   UNL     1      -4.168   0.574   7.111  0.00  0.00    +0.000 A 
ATOM     26  C   UNL     1      -2.791   0.460   7.081  0.00  0.00    +0.000 A 
ATOM     27  C   UNL     1      -2.047   1.278   6.251  0.00  0.00    +0.004 A 
ATOM     28  C   UNL     1      -2.681   2.210   5.451  0.00  0.00    -0.046 A 
ATOM     29  C   UNL     1      -4.058   2.328   5.485  0.00  0.00    +0.004 A 
ATOM     30  C   UNL     1      -4.802   1.507   6.311  0.00  0.00    +0.000 A 
ENDBRANCH  24  28
ENDBRANCH  23  24
ENDBRANCH   1  23
BRANCH   5  31
ATOM     31  C   UNL     1      -1.038   5.701  -1.578  0.00  0.00    +0.022 C 
BRANCH  31  32
ATOM     32  C   UNL     1      -1.167   5.280  -3.019  0.00  0.00    -0.024 A 
ATOM     33  C   UNL     1      -0.268   5.488  -3.995  0.00  0.00    +0.087 A 
ATOM     34  N   UNL     1      -0.729   4.966  -5.173  0.00  0.00    -0.360 N 
ATOM     35  H   UNL     1      -0.255   4.994  -6.018  0.00  0.00    +0.165 HD
ATOM     36  C   UNL     1      -1.968   4.396  -4.979  0.00  0.00    +0.047 A 
ATOM     37  C   UNL     1      -2.293   4.563  -3.620  0.00  0.00    +0.003 A 
ATOM     38  C   UNL     1      -3.510   4.082  -3.132  0.00  0.00    +0.010 A 
ATOM     39  C   UNL     1      -4.374   3.442  -3.975  0.00  0.00    +0.001 A 
ATOM     40  C   UNL     1      -4.055   3.270  -5.314  0.00  0.00    +0.002 A 
ATOM     41  C   UNL     1      -2.862   3.741  -5.819  0.00  0.00    +0.026 A 
ENDBRANCH  31  32
ENDBRANCH   5  31
TORSDOF 5
