REMARK  Name = ZINC33780645
REMARK  7 active torsions:
REMARK  status: ('A' for Active; 'I' for Inactive)
REMARK    1  A    between atoms: C_1  and  N_2
REMARK    2  A    between atoms: C_7  and  C_25
REMARK    3  A    between atoms: C_9  and  N_24
REMARK    4  A    between atoms: C_10  and  C_14
REMARK    5  A    between atoms: C_14  and  C_16
REMARK    6  A    between atoms: C_19  and  O_22
REMARK    7  A    between atoms: O_22  and  C_23
REMARK                            x       y       z     vdW  Elec       q    Type
REMARK                         _______ _______ _______ _____ _____    ______ ____
ROOT
ATOM      1  C   UNL     1       1.914  -4.394   1.867  0.00  0.00    +0.105 C 
ATOM      2  N   UNL     1       1.582  -2.963   1.848  0.00  0.00    -0.301 NA
ATOM      3  C   UNL     1       0.204  -2.747   1.380  0.00  0.00    +0.090 C 
ATOM      4  C   UNL     1      -0.207  -1.316   1.725  0.00  0.00    +0.071 C 
ATOM      5  C   UNL     1       0.845  -0.348   1.245  0.00  0.00    +0.049 A 
ATOM      6  C   UNL     1       2.119  -0.768   0.921  0.00  0.00    -0.004 A 
ATOM      7  C   UNL     1       3.069   0.157   0.492  0.00  0.00    -0.000 A 
ATOM      8  C   UNL     1       2.704   1.532   0.391  0.00  0.00    +0.037 A 
ATOM      9  C   UNL     1       3.516   2.659  -0.028  0.00  0.00    +0.053 A 
ATOM     10  C   UNL     1       2.934   3.913  -0.047  0.00  0.00    +0.083 A 
ATOM     11  S   UNL     1       1.268   3.602   0.503  0.00  0.00    -0.064 S 
ATOM     12  C   UNL     1       1.373   1.845   0.745  0.00  0.00    +0.112 A 
ATOM     13  N   UNL     1       0.518   0.932   1.145  0.00  0.00    -0.244 NA
ATOM     14  C   UNL     1       2.525  -2.216   1.010  0.00  0.00    +0.121 C 
ENDROOT
BRANCH   7  15
ATOM     15  C   UNL     1       4.441  -0.282   0.147  0.00  0.00    -0.017 A 
ATOM     16  C   UNL     1       5.332  -0.651   1.153  0.00  0.00    +0.008 A 
ATOM     17  C   UNL     1       6.607  -1.064   0.825  0.00  0.00    +0.001 A 
ATOM     18  C   UNL     1       7.005  -1.102  -0.500  0.00  0.00    +0.000 A 
ATOM     19  C   UNL     1       6.127  -0.732  -1.503  0.00  0.00    +0.001 A 
ATOM     20  C   UNL     1       4.847  -0.323  -1.187  0.00  0.00    +0.008 A 
ENDBRANCH   7  15
BRANCH   9  21
ATOM     21  N   UNL     1       4.840   2.483  -0.399  0.00  0.00    -0.356 N 
ATOM     22  H   UNL     1       5.443   3.348  -0.714  0.00  0.00    +0.142 HD
ATOM     23  H   UNL     1       5.289   1.479  -0.378  0.00  0.00    +0.142 HD
ENDBRANCH   9  21
BRANCH  10  24
ATOM     24  C   UNL     1       3.521   5.147  -0.415  0.00  0.00    +0.202 C 
ATOM     25  O   UNL     1       4.712   5.204  -0.669  0.00  0.00    -0.286 OA
BRANCH  24  26
ATOM     26  C   UNL     1       2.690   6.366  -0.492  0.00  0.00    +0.023 A 
ATOM     27  C   UNL     1       1.333   6.270  -0.808  0.00  0.00    +0.015 A 
ATOM     28  C   UNL     1       0.560   7.408  -0.873  0.00  0.00    +0.046 A 
ATOM     29  C   UNL     1       1.132   8.653  -0.636  0.00  0.00    +0.120 A 
ATOM     30  C   UNL     1       2.483   8.753  -0.327  0.00  0.00    +0.046 A 
ATOM     31  C   UNL     1       3.261   7.619  -0.254  0.00  0.00    +0.015 A 
BRANCH  29  32
ATOM     32  O   UNL     1       0.369   9.773  -0.706  0.00  0.00    -0.495 OA
ATOM     33  C   UNL     1      -1.012   9.598  -1.029  0.00  0.00    +0.277 C 
ENDBRANCH  29  32
ENDBRANCH  24  26
ENDBRANCH  10  24
TORSDOF 5
