REMARK  Name = ZINC32104144
REMARK  4 active torsions:
REMARK  status: ('A' for Active; 'I' for Inactive)
REMARK    1  A    between atoms: C_4  and  C_7
REMARK    2  A    between atoms: C_11  and  C_12
REMARK    3  A    between atoms: N_26  and  C_29
REMARK    4  A    between atoms: C_29  and  C_30
REMARK                            x       y       z     vdW  Elec       q    Type
REMARK                         _______ _______ _______ _____ _____    ______ ____
ROOT
ATOM      1  C   UNL     1       3.697  -0.686  -0.038  0.00  0.00    +0.025 A 
ATOM      2  C   UNL     1       4.091  -1.471  -1.120  0.00  0.00    +0.054 A 
ATOM      3  C   UNL     1       5.312  -2.088  -1.024  0.00  0.00    +0.032 A 
ATOM      4  S   UNL     1       5.933  -1.653   0.458  0.00  0.00    -0.083 S 
ATOM      5  C   UNL     1       4.601  -0.614   1.029  0.00  0.00    +0.110 A 
ATOM      6  C   UNL     1       5.904  -2.960  -2.084  0.00  0.00    +0.115 C 
ATOM      7  C   UNL     1       5.371  -2.524  -3.449  0.00  0.00    +0.122 C 
ATOM      8  C   UNL     1       3.902  -2.223  -3.376  0.00  0.00    +0.219 C 
ATOM      9  O   UNL     1       3.209  -2.488  -4.336  0.00  0.00    -0.275 OA
ATOM     10  N   UNL     1       3.316  -1.674  -2.297  0.00  0.00    -0.284 N 
ATOM     11  C   UNL     1       5.616  -4.407  -1.834  0.00  0.00    -0.006 A 
ATOM     12  C   UNL     1       4.428  -5.099  -1.739  0.00  0.00    +0.007 A 
ATOM     13  C   UNL     1       4.512  -6.465  -1.495  0.00  0.00    +0.000 A 
ATOM     14  C   UNL     1       5.731  -7.097  -1.355  0.00  0.00    +0.002 A 
ATOM     15  C   UNL     1       6.930  -6.408  -1.450  0.00  0.00    +0.024 A 
ATOM     16  C   UNL     1       6.860  -5.035  -1.694  0.00  0.00    +0.041 A 
ATOM     17  N   UNL     1       7.883  -4.114  -1.834  0.00  0.00    -0.261 N 
ATOM     18  C   UNL     1       7.415  -2.869  -2.066  0.00  0.00    +0.236 C 
ATOM     19  O   UNL     1       8.080  -1.868  -2.228  0.00  0.00    -0.274 OA
ATOM     20  H   UNL     1       2.381  -1.420  -2.321  0.00  0.00    +0.155 HD
ENDROOT
BRANCH   1  24
ATOM     21  C   UNL     1      -0.017   1.379   0.010  0.00  0.00    +0.000 A 
ATOM     22  C   UNL     1       1.169   2.093   0.002  0.00  0.00    +0.001 A 
ATOM     23  C   UNL     1       2.377   1.428  -0.013  0.00  0.00    +0.008 A 
ATOM     24  C   UNL     1       2.403   0.034  -0.021  0.00  0.00    -0.015 A 
ATOM     25  C   UNL     1       1.204  -0.680  -0.013  0.00  0.00    +0.008 A 
ATOM     26  C   UNL     1       0.002  -0.004   0.002  0.00  0.00    +0.001 A 
ENDBRANCH   1  24
BRANCH   5  27
ATOM     27  C   UNL     1       4.486   0.098   2.245  0.00  0.00    +0.394 C 
ATOM     28  O   UNL     1       3.485   0.768   2.471  0.00  0.00    -0.240 OA
ATOM     29  O   UNL     1       5.388   0.044   3.074  0.00  0.00    -0.240 OA
ENDBRANCH   5  27
BRANCH  17  30
ATOM     30  C   UNL     1       9.306  -4.450  -1.741  0.00  0.00    +0.209 C 
BRANCH  30  31
ATOM     31  C   UNL     1       9.826  -4.814  -3.108  0.00  0.00    +0.228 C 
ATOM     32  O   UNL     1       9.081  -4.794  -4.065  0.00  0.00    -0.274 OA
ATOM     33  N   UNL     1      11.118  -5.161  -3.267  0.00  0.00    -0.328 N 
ATOM     34  H   UNL     1      11.714  -5.177  -2.501  0.00  0.00    +0.145 HD
ATOM     35  H   UNL     1      11.453  -5.395  -4.147  0.00  0.00    +0.145 HD
ENDBRANCH  30  31
ENDBRANCH  17  30
TORSDOF 4
