REMARK  Name = ZINC65395419
REMARK  11 active torsions:
REMARK  status: ('A' for Active; 'I' for Inactive)
REMARK    1  A    between atoms: C_1  and  C_2
REMARK    2  A    between atoms: C_5  and  O_9
REMARK    3  A    between atoms: C_6  and  C_8
REMARK    4  A    between atoms: O_9  and  C_10
REMARK    5  A    between atoms: C_10  and  C_11
REMARK    6  A    between atoms: C_11  and  C_13
REMARK    7  A    between atoms: C_11  and  O_28
REMARK    8  A    between atoms: C_13  and  N_14
REMARK    9  A    between atoms: C_23  and  C_25
REMARK   10  A    between atoms: C_25  and  C_26
REMARK   11  A    between atoms: C_26  and  N_27
REMARK                            x       y       z     vdW  Elec       q    Type
REMARK                         _______ _______ _______ _____ _____    ______ ____
ROOT
ATOM      1  N   UNL     1      -0.145  -8.425  -2.274  0.00  0.00    -0.326 N 
ATOM      2  C   UNL     1      -0.266  -9.259  -3.365  0.00  0.00    +0.130 A 
ATOM      3  C   UNL     1      -0.370 -10.662  -3.201  0.00  0.00    +0.040 A 
ATOM      4  C   UNL     1      -0.357 -11.267  -1.939  0.00  0.00    +0.013 A 
ATOM      5  C   UNL     1      -0.461 -12.623  -1.843  0.00  0.00    +0.001 A 
ATOM      6  C   UNL     1      -0.580 -13.413  -2.983  0.00  0.00    +0.002 A 
ATOM      7  C   UNL     1      -0.596 -12.855  -4.226  0.00  0.00    +0.028 A 
ATOM      8  C   UNL     1      -0.492 -11.464  -4.361  0.00  0.00    +0.076 A 
ATOM      9  N   UNL     1      -0.503 -10.864  -5.561  0.00  0.00    -0.232 NA
ATOM     10  C   UNL     1      -0.403  -9.559  -5.653  0.00  0.00    +0.130 A 
ATOM     11  N   UNL     1      -0.293  -8.769  -4.597  0.00  0.00    -0.217 NA
ATOM     12  H   UNL     1      -0.127  -8.798  -1.378  0.00  0.00    +0.148 HD
ENDROOT
BRANCH   1  13
ATOM     13  C   UNL     1      -0.045  -6.977  -2.466  0.00  0.00    +0.137 C 
BRANCH  13  14
ATOM     14  C   UNL     1       0.079  -6.289  -1.105  0.00  0.00    +0.169 C 
BRANCH  14  15
ATOM     15  O   UNL     1       1.308  -6.674  -0.487  0.00  0.00    -0.387 OA
ATOM     16  H   UNL     1       2.096  -6.440  -0.997  0.00  0.00    +0.210 HD
ENDBRANCH  14  15
BRANCH  14  17
ATOM     17  C   UNL     1       0.058  -4.771  -1.298  0.00  0.00    +0.261 C 
BRANCH  17  18
ATOM     18  O   UNL     1       0.057  -4.129  -0.021  0.00  0.00    -0.489 OA
BRANCH  18  23
ATOM     19  C   UNL     1      -0.018   1.503   0.010  0.00  0.00    +0.044 C 
ATOM     20  C   UNL     1       0.002  -0.004   0.002  0.00  0.00    -0.050 A 
ATOM     21  C   UNL     1       0.006  -0.688  -1.200  0.00  0.00    +0.007 A 
ATOM     22  C   UNL     1       0.024  -2.069  -1.210  0.00  0.00    +0.046 A 
ATOM     23  C   UNL     1       0.039  -2.770  -0.013  0.00  0.00    +0.124 A 
ATOM     24  C   UNL     1       0.036  -2.082   1.191  0.00  0.00    -0.009 A 
ATOM     25  C   UNL     1       0.023  -0.701   1.196  0.00  0.00    +0.010 A 
ATOM     26  C   UNL     1       0.052  -2.841   2.493  0.00  0.00    +0.047 C 
ENDBRANCH  18  23
ENDBRANCH  17  18
ENDBRANCH  14  17
ENDBRANCH  13  14
ENDBRANCH   1  13
BRANCH  10  27
ATOM     27  C   UNL     1      -0.420  -8.931  -7.023  0.00  0.00    +0.057 C 
BRANCH  27  28
ATOM     28  C   UNL     1      -1.862  -8.604  -7.415  0.00  0.00    -0.079 C 
BRANCH  28  29
ATOM     29  N   UNL     1      -1.879  -7.992  -8.751  0.00  0.00    +0.378 N 
ATOM     30  H   UNL     1      -1.333  -7.143  -8.739  0.00  0.00    -0.090 HD
ATOM     31  H   UNL     1      -1.486  -8.635  -9.421  0.00  0.00    -0.090 HD
ATOM     32  H   UNL     1      -2.830  -7.776  -9.009  0.00  0.00    -0.090 HD
ENDBRANCH  28  29
ENDBRANCH  27  28
ENDBRANCH  10  27
TORSDOF 9
