REMARK  Name = ZINC04925193
REMARK  4 active torsions:
REMARK  status: ('A' for Active; 'I' for Inactive)
REMARK    1  A    between atoms: C_3  and  N_11
REMARK    2  A    between atoms: C_6  and  C_7
REMARK    3  A    between atoms: N_13  and  C_14
REMARK    4  A    between atoms: C_14  and  C_15
REMARK                            x       y       z     vdW  Elec       q    Type
REMARK                         _______ _______ _______ _____ _____    ______ ____
ROOT
ATOM      1  N   UNL     1       3.584   2.123  -0.021  0.00  0.00    -0.295 N 
ATOM      2  C   UNL     1       4.776   1.457   0.067  0.00  0.00    +0.143 C 
ATOM      3  N   UNL     1       5.945   2.158   0.162  0.00  0.00    -0.363 N 
ATOM      4  S   UNL     1       4.801  -0.203   0.059  0.00  0.00    -0.016 SA
ATOM      5  H   UNL     1       3.558   3.026  -0.374  0.00  0.00    +0.154 HD
ATOM      6  H   UNL     1       5.929   3.128   0.167  0.00  0.00    +0.162 HD
ENDROOT
BRANCH   1   9
ATOM      7  C   UNL     1       1.252   0.018   1.889  0.00  0.00    +0.014 A 
ATOM      8  C   UNL     1       2.420   0.630   1.478  0.00  0.00    +0.024 A 
ATOM      9  C   UNL     1       2.402   1.502   0.397  0.00  0.00    +0.033 A 
ATOM     10  C   UNL     1       1.210   1.755  -0.268  0.00  0.00    +0.024 A 
ATOM     11  C   UNL     1       0.045   1.140   0.148  0.00  0.00    +0.014 A 
ATOM     12  C   UNL     1       0.066   0.273   1.225  0.00  0.00    +0.055 A 
BRANCH  12  13
ATOM     13  C   UNL     1      -1.207  -0.397   1.676  0.00  0.00    +0.417 C 
ATOM     14  F   UNL     1      -1.842   0.404   2.631  0.00  0.00    -0.166 F 
ATOM     15  F   UNL     1      -2.055  -0.573   0.577  0.00  0.00    -0.166 F 
ATOM     16  F   UNL     1      -0.905  -1.642   2.237  0.00  0.00    -0.166 F 
ENDBRANCH  12  13
ENDBRANCH   1   9
BRANCH   3  17
ATOM     17  C   UNL     1       7.221   1.445   0.257  0.00  0.00    +0.150 C 
BRANCH  17  18
ATOM     18  C   UNL     1       8.347   2.442   0.351  0.00  0.00    -0.028 A 
ATOM     19  C   UNL     1       8.952   2.909  -0.809  0.00  0.00    +0.007 A 
ATOM     20  C   UNL     1       9.983   3.820  -0.745  0.00  0.00    +0.026 A 
ATOM     21  C   UNL     1      10.425   4.278   0.491  0.00  0.00    +0.047 A 
ATOM     22  C   UNL     1       9.809   3.802   1.665  0.00  0.00    +0.003 A 
ATOM     23  C   UNL     1       8.762   2.882   1.575  0.00  0.00    +0.015 A 
ATOM     24  C   UNL     1      10.493   4.465   2.771  0.00  0.00    -0.019 A 
ATOM     25  C   UNL     1      11.436   5.265   2.239  0.00  0.00    +0.020 A 
ATOM     26  N   UNL     1      11.408   5.164   0.876  0.00  0.00    -0.358 N 
ATOM     27  H   UNL     1      11.993   5.645   0.270  0.00  0.00    +0.166 HD
ATOM     28  C   UNL     1      12.364   6.129   3.062  0.00  0.00    +0.053 C 
ATOM     29  C   UNL     1      11.783   6.259   4.474  0.00  0.00    +0.006 C 
ATOM     30  C   UNL     1      11.435   4.869   5.015  0.00  0.00    +0.005 C 
ATOM     31  C   UNL     1      10.230   4.313   4.247  0.00  0.00    +0.037 C 
ENDBRANCH  17  18
ENDBRANCH   3  17
TORSDOF 4
