REMARK  Name = ZINC66358501
REMARK  9 active torsions:
REMARK  status: ('A' for Active; 'I' for Inactive)
REMARK    1  A    between atoms: C_1  and  C_2
REMARK    2  A    between atoms: C_2  and  C_27
REMARK    3  A    between atoms: C_4  and  N_10
REMARK    4  A    between atoms: C_6  and  C_8
REMARK    5  A    between atoms: C_6  and  C_9
REMARK    6  A    between atoms: N_13  and  C_14
REMARK    7  A    between atoms: C_14  and  C_15
REMARK    8  A    between atoms: C_18  and  C_21
REMARK    9  A    between atoms: N_23  and  C_24
REMARK                            x       y       z     vdW  Elec       q    Type
REMARK                         _______ _______ _______ _____ _____    ______ ____
ROOT
ATOM      1  N   UNL     1       2.615  -0.819  -2.626  0.00  0.00    -0.297 N 
ATOM      2  C   UNL     1       3.770  -0.334  -3.123  0.00  0.00    +0.300 C 
ATOM      3  O   UNL     1       4.376   0.532  -2.522  0.00  0.00    -0.253 OA
ATOM      4  N   UNL     1       4.255  -0.809  -4.288  0.00  0.00    -0.295 N 
ATOM      5  H   UNL     1       2.133  -1.510  -3.106  0.00  0.00    +0.151 HD
ATOM      6  H   UNL     1       3.772  -1.500  -4.768  0.00  0.00    +0.151 HD
ENDROOT
BRANCH   1  10
ATOM      7  C   UNL     1      -0.019   1.528   0.010  0.00  0.00    -0.010 C 
ATOM      8  C   UNL     1       0.002  -0.004   0.002  0.00  0.00    -0.072 C 
ATOM      9  C   UNL     1       0.573  -0.505  -1.321  0.00  0.00    +0.009 C 
ATOM     10  C   UNL     1       2.088  -0.301  -1.357  0.00  0.00    +0.072 C 
ATOM     11  C   UNL     1       2.703  -1.086  -0.198  0.00  0.00    +0.009 C 
ATOM     12  C   UNL     1       2.147  -0.590   1.133  0.00  0.00    -0.072 C 
ATOM     13  N   UNL     1       0.697  -0.529   1.164  0.00  0.00    +0.386 N 
ATOM     14  C   UNL     1       2.769   0.766   1.481  0.00  0.00    -0.010 C 
ATOM     15  C   UNL     1       2.600  -1.589   2.223  0.00  0.00    -0.010 C 
ATOM     16  C   UNL     1      -1.468  -0.478   0.079  0.00  0.00    -0.010 C 
ATOM     17  H   UNL     1       0.416   0.021   1.982  0.00  0.00    -0.084 HD
ATOM     18  H   UNL     1       0.341  -1.472   1.351  0.00  0.00    -0.084 HD
ENDBRANCH   1  10
BRANCH   4  19
ATOM     19  C   UNL     1       5.510  -0.282  -4.829  0.00  0.00    +0.141 C 
BRANCH  19  20
ATOM     20  C   UNL     1       5.827  -0.976  -6.129  0.00  0.00    -0.030 A 
ATOM     21  C   UNL     1       6.578  -2.138  -6.125  0.00  0.00    +0.006 A 
ATOM     22  C   UNL     1       6.871  -2.777  -7.312  0.00  0.00    +0.013 A 
ATOM     23  C   UNL     1       6.409  -2.249  -8.518  0.00  0.00    +0.037 A 
ATOM     24  C   UNL     1       5.652  -1.076  -8.515  0.00  0.00    +0.013 A 
ATOM     25  C   UNL     1       5.360  -0.450  -7.321  0.00  0.00    +0.006 A 
BRANCH  23  26
ATOM     26  C   UNL     1       6.720  -2.928  -9.794  0.00  0.00    +0.244 C 
ATOM     27  O   UNL     1       7.380  -3.949  -9.794  0.00  0.00    -0.270 OA
ATOM     28  N   UNL     1       6.272  -2.416 -10.957  0.00  0.00    -0.308 N 
ATOM     29  H   UNL     1       5.745  -1.601 -10.958  0.00  0.00    +0.149 HD
BRANCH  28  30
ATOM     30  C   UNL     1       6.580  -3.090 -12.221  0.00  0.00    +0.073 C 
ATOM     31  C   UNL     1       7.016  -2.216 -13.399  0.00  0.00    +0.024 C 
ATOM     32  C   UNL     1       5.628  -2.858 -13.396  0.00  0.00    +0.024 C 
ENDBRANCH  28  30
ENDBRANCH  23  26
ENDBRANCH  19  20
ENDBRANCH   4  19
TORSDOF 5
