REMARK  Name = ZINC35708145
REMARK  7 active torsions:
REMARK  status: ('A' for Active; 'I' for Inactive)
REMARK    1  A    between atoms: C_1  and  C_2
REMARK    2  A    between atoms: C_5  and  N_9
REMARK    3  A    between atoms: C_6  and  C_8
REMARK    4  A    between atoms: N_12  and  C_13
REMARK    5  A    between atoms: N_12  and  C_37
REMARK    6  A    between atoms: C_13  and  C_14
REMARK    7  A    between atoms: C_28  and  C_30
REMARK                            x       y       z     vdW  Elec       q    Type
REMARK                         _______ _______ _______ _____ _____    ______ ____
ROOT
ATOM      1  C   UNL     1       1.329  -7.182  -3.440  0.00  0.00    +0.238 C 
ATOM      2  O   UNL     1       2.350  -6.907  -2.846  0.00  0.00    -0.273 OA
ATOM      3  N   UNL     1       1.389  -7.681  -4.690  0.00  0.00    -0.255 N 
ATOM      4  C   UNL     1       2.632  -7.971  -5.269  0.00  0.00    +0.061 A 
ATOM      5  C   UNL     1       3.762  -7.254  -4.907  0.00  0.00    +0.025 A 
ATOM      6  C   UNL     1       4.983  -7.557  -5.478  0.00  0.00    +0.002 A 
ATOM      7  C   UNL     1       5.088  -8.575  -6.409  0.00  0.00    +0.002 A 
ATOM      8  C   UNL     1       3.966  -9.294  -6.780  0.00  0.00    +0.028 A 
ATOM      9  C   UNL     1       2.741  -8.993  -6.218  0.00  0.00    +0.068 A 
ATOM     10  N   UNL     1       1.572  -9.676  -6.581  0.00  0.00    -0.316 N 
ATOM     11  C   UNL     1       1.413 -10.826  -7.279  0.00  0.00    +0.092 A 
ATOM     12  C   UNL     1       0.089 -11.086  -7.368  0.00  0.00    +0.020 A 
ATOM     13  C   UNL     1      -0.595 -10.048  -6.697  0.00  0.00    +0.025 A 
ATOM     14  C   UNL     1       0.327  -9.200  -6.228  0.00  0.00    +0.049 A 
ATOM     15  C   UNL     1       0.148  -7.927  -5.444  0.00  0.00    +0.159 C 
ENDROOT
BRANCH  15  16
ATOM     16  C   UNL     1      -0.110  -6.782  -6.389  0.00  0.00    -0.020 A 
ATOM     17  C   UNL     1       0.940  -6.208  -7.082  0.00  0.00    +0.006 A 
ATOM     18  C   UNL     1       0.704  -5.158  -7.950  0.00  0.00    +0.002 A 
ATOM     19  C   UNL     1      -0.582  -4.681  -8.125  0.00  0.00    +0.020 A 
ATOM     20  C   UNL     1      -1.632  -5.255  -7.432  0.00  0.00    +0.041 A 
ATOM     21  C   UNL     1      -1.396  -6.310  -6.568  0.00  0.00    +0.025 A 
ATOM     22 CL   UNL     1      -3.247  -4.657  -7.651  0.00  0.00    -0.084 Cl
ENDBRANCH  15  16
BRANCH   1  23
ATOM     23  C   UNL     1      -0.008  -6.965  -2.778  0.00  0.00    +0.205 C 
BRANCH  23  27
ATOM     24  N   UNL     1       0.130  -4.234  -2.429  0.00  0.00    -0.269 N 
ATOM     25  C   UNL     1       0.218  -5.015  -1.335  0.00  0.00    +0.307 C 
ATOM     26  O   UNL     1       0.322  -4.510  -0.234  0.00  0.00    -0.252 OA
ATOM     27  N   UNL     1       0.192  -6.357  -1.461  0.00  0.00    -0.274 N 
ATOM     28  H   UNL     1      -0.017  -4.634  -3.300  0.00  0.00    +0.156 HD
BRANCH  24  33
ATOM     29  C   UNL     1       0.613   1.398  -1.940  0.00  0.00    +0.044 C 
ATOM     30  C   UNL     1       0.484  -0.098  -2.070  0.00  0.00    -0.050 A 
ATOM     31  C   UNL     1      -0.023  -0.841  -1.019  0.00  0.00    +0.005 A 
ATOM     32  C   UNL     1      -0.142  -2.212  -1.135  0.00  0.00    +0.024 A 
ATOM     33  C   UNL     1       0.248  -2.845  -2.308  0.00  0.00    +0.038 A 
ATOM     34  C   UNL     1       0.757  -2.096  -3.361  0.00  0.00    -0.029 A 
ATOM     35  C   UNL     1       0.868  -0.724  -3.241  0.00  0.00    +0.008 A 
ATOM     36  C   UNL     1       1.182  -2.778  -4.636  0.00  0.00    +0.045 C 
ENDBRANCH  24  33
BRANCH  27  37
ATOM     37  C   UNL     1       0.363  -7.207  -0.280  0.00  0.00    +0.078 C 
ATOM     38  C   UNL     1       0.145  -6.564   1.091  0.00  0.00    +0.024 C 
ATOM     39  C   UNL     1       1.560  -6.921   0.630  0.00  0.00    +0.024 C 
ENDBRANCH  27  37
ENDBRANCH  23  27
ENDBRANCH   1  23
TORSDOF 5
