REMARK  Name = ZINC27586887
REMARK  10 active torsions:
REMARK  status: ('A' for Active; 'I' for Inactive)
REMARK    1  A    between atoms: C_1  and  C_2
REMARK    2  A    between atoms: C_3  and  C_32
REMARK    3  A    between atoms: N_7  and  N_8
REMARK    4  A    between atoms: N_9  and  C_10
REMARK    5  A    between atoms: C_13  and  C_16
REMARK    6  A    between atoms: C_19  and  N_22
REMARK    7  A    between atoms: N_22  and  N_23
REMARK    8  A    between atoms: N_24  and  C_25
REMARK    9  A    between atoms: C_27  and  C_31
REMARK   10  A    between atoms: C_28  and  C_30
REMARK                            x       y       z     vdW  Elec       q    Type
REMARK                         _______ _______ _______ _____ _____    ______ ____
ROOT
ATOM      1  C   UNL     1       5.923  -2.363  -0.068  0.00  0.00    +0.088 A 
ATOM      2  C   UNL     1       6.574  -1.127  -0.073  0.00  0.00    +0.030 A 
ATOM      3  C   UNL     1       7.950  -1.075  -0.081  0.00  0.00    +0.010 A 
ATOM      4  C   UNL     1       8.693  -2.256  -0.095  0.00  0.00    -0.018 A 
ATOM      5  C   UNL     1       8.044  -3.490  -0.096  0.00  0.00    +0.010 A 
ATOM      6  C   UNL     1       6.668  -3.545  -0.082  0.00  0.00    +0.030 A 
ENDROOT
BRANCH   4   7
ATOM      7  C   UNL     1      10.175  -2.198  -0.109  0.00  0.00    -0.018 A 
ATOM      8  C   UNL     1      10.919  -3.377  -0.117  0.00  0.00    +0.010 A 
ATOM      9  C   UNL     1      12.296  -3.321  -0.136  0.00  0.00    +0.025 A 
ATOM     10  C   UNL     1      12.943  -2.090  -0.135  0.00  0.00    +0.050 A 
ATOM     11  C   UNL     1      12.203  -0.913  -0.121  0.00  0.00    +0.025 A 
ATOM     12  C   UNL     1      10.825  -0.964  -0.108  0.00  0.00    +0.010 A 
BRANCH  10  13
ATOM     13  N   UNL     1      14.338  -2.036  -0.149  0.00  0.00    -0.219 N 
ATOM     14  H   UNL     1      14.850  -1.062  -0.148  0.00  0.00    +0.176 HD
BRANCH  13  15
ATOM     15  N   UNL     1      15.085  -3.221  -0.163  0.00  0.00    -0.074 NA
ATOM     16  N   UNL     1      16.373  -3.171  -0.176  0.00  0.00    -0.106 NA
BRANCH  16  17
ATOM     17  C   UNL     1      17.100  -4.323  -0.190  0.00  0.00    +0.215 A 
ATOM     18  N   UNL     1      18.418  -4.489  -0.204  0.00  0.00    -0.225 NA
ATOM     19  C   UNL     1      18.952  -5.688  -0.215  0.00  0.00    +0.051 A 
ATOM     20  C   UNL     1      18.152  -6.787  -0.213  0.00  0.00    +0.011 A 
ATOM     21  S   UNL     1      16.537  -6.020  -0.185  0.00  0.00    -0.051 S 
ATOM     22  C   UNL     1      18.524  -8.247  -0.224  0.00  0.00    +0.053 C 
ATOM     23  C   UNL     1      20.451  -5.846  -0.232  0.00  0.00    +0.066 C 
ENDBRANCH  16  17
ENDBRANCH  13  15
ENDBRANCH  10  13
ENDBRANCH   4   7
BRANCH   1  25
ATOM     24  N   UNL     1       3.866  -1.325  -0.043  0.00  0.00    -0.075 NA
ATOM     25  N   UNL     1       4.554  -2.417  -0.056  0.00  0.00    -0.134 NA
BRANCH  24  32
ATOM     26  C   UNL     1       1.804   3.475   0.003  0.00  0.00    +0.066 C 
ATOM     27  C   UNL     1       1.306   2.053   0.001  0.00  0.00    +0.050 A 
ATOM     28  C   UNL     1      -0.022   1.783   0.012  0.00  0.00    +0.011 A 
ATOM     29  S   UNL     1       0.002  -0.004   0.002  0.00  0.00    -0.056 S 
ATOM     30  C   UNL     1       1.727  -0.206  -0.015  0.00  0.00    +0.179 A 
ATOM     31  N   UNL     1       2.153   1.042  -0.013  0.00  0.00    -0.229 NA
ATOM     32  N   UNL     1       2.466  -1.380  -0.030  0.00  0.00    -0.197 N 
ATOM     33  C   UNL     1      -1.196   2.728   0.023  0.00  0.00    +0.053 C 
ATOM     34  H   UNL     1       1.954  -2.353  -0.031  0.00  0.00    +0.178 HD
ENDBRANCH  24  32
ENDBRANCH   1  25
TORSDOF 6
