REMARK  Name = ZINC35929246
REMARK  12 active torsions:
REMARK  status: ('A' for Active; 'I' for Inactive)
REMARK    1  A    between atoms: C_1  and  N_2
REMARK    2  A    between atoms: N_2  and  C_3
REMARK    3  A    between atoms: N_2  and  C_4
REMARK    4  A    between atoms: C_4  and  C_5
REMARK    5  A    between atoms: C_5  and  N_6
REMARK    6  A    between atoms: C_9  and  C_25
REMARK    7  A    between atoms: C_11  and  N_24
REMARK    8  A    between atoms: N_12  and  C_16
REMARK    9  A    between atoms: C_19  and  O_22
REMARK   10  A    between atoms: O_22  and  C_23
REMARK   11  A    between atoms: C_28  and  O_31
REMARK   12  A    between atoms: O_31  and  C_32
REMARK                            x       y       z     vdW  Elec       q    Type
REMARK                         _______ _______ _______ _____ _____    ______ ____
ROOT
ATOM      1  N   UNL     1      -2.649  -2.701   0.695  0.00  0.00    -0.315 N 
ATOM      2  C   UNL     1      -2.923  -3.988   0.269  0.00  0.00    +0.218 A 
ATOM      3  N   UNL     1      -4.182  -4.412   0.319  0.00  0.00    -0.214 NA
ATOM      4  C   UNL     1      -4.533  -5.632  -0.071  0.00  0.00    +0.089 A 
ATOM      5  C   UNL     1      -3.524  -6.497  -0.551  0.00  0.00    +0.086 A 
ATOM      6  C   UNL     1      -3.476  -7.798  -1.035  0.00  0.00    +0.131 A 
ATOM      7  N   UNL     1      -2.192  -8.069  -1.342  0.00  0.00    -0.216 N 
ATOM      8  N   UNL     1      -1.391  -6.956  -1.066  0.00  0.00    -0.144 NA
ATOM      9  C   UNL     1      -2.141  -5.987  -0.589  0.00  0.00    +0.189 A 
ATOM     10  N   UNL     1      -1.923  -4.726  -0.169  0.00  0.00    -0.193 NA
ATOM     11  H   UNL     1      -3.366  -2.136   1.023  0.00  0.00    +0.149 HD
ENDROOT
BRANCH   7  12
ATOM     12  C   UNL     1      -1.729  -9.286  -1.862  0.00  0.00    +0.068 A 
ATOM     13  C   UNL     1      -2.317 -10.480  -1.465  0.00  0.00    +0.031 A 
ATOM     14  C   UNL     1      -1.860 -11.678  -1.977  0.00  0.00    +0.048 A 
ATOM     15  C   UNL     1      -0.814 -11.689  -2.888  0.00  0.00    +0.120 A 
ATOM     16  C   UNL     1      -0.226 -10.496  -3.285  0.00  0.00    +0.048 A 
ATOM     17  C   UNL     1      -0.685  -9.297  -2.778  0.00  0.00    +0.031 A 
BRANCH  15  18
ATOM     18  O   UNL     1      -0.364 -12.869  -3.392  0.00  0.00    -0.495 OA
ATOM     19  C   UNL     1       0.716 -12.806  -4.326  0.00  0.00    +0.277 C 
ENDBRANCH  15  18
ENDBRANCH   7  12
BRANCH   4  20
ATOM     20  C   UNL     1      -5.942  -6.074  -0.003  0.00  0.00    +0.001 A 
ATOM     21  C   UNL     1      -6.259  -7.323   0.535  0.00  0.00    +0.013 A 
ATOM     22  C   UNL     1      -7.573  -7.731   0.597  0.00  0.00    +0.046 A 
ATOM     23  C   UNL     1      -8.583  -6.902   0.124  0.00  0.00    +0.120 A 
ATOM     24  C   UNL     1      -8.272  -5.659  -0.412  0.00  0.00    +0.046 A 
ATOM     25  C   UNL     1      -6.960  -5.242  -0.472  0.00  0.00    +0.013 A 
BRANCH  23  26
ATOM     26  O   UNL     1      -9.877  -7.309   0.186  0.00  0.00    -0.495 OA
ATOM     27  C   UNL     1     -10.865  -6.407  -0.317  0.00  0.00    +0.277 C 
ENDBRANCH  23  26
ENDBRANCH   4  20
BRANCH   6  28
ATOM     28  N   UNL     1      -4.549  -8.658  -1.175  0.00  0.00    -0.342 N 
ATOM     29  H   UNL     1      -5.454  -8.325  -1.071  0.00  0.00    +0.144 HD
ATOM     30  H   UNL     1      -4.397  -9.595  -1.376  0.00  0.00    +0.144 HD
ENDBRANCH   6  28
BRANCH   1  31
ATOM     31  C   UNL     1      -1.276  -2.192   0.652  0.00  0.00    +0.086 C 
BRANCH  31  32
ATOM     32  C   UNL     1      -1.248  -0.754   1.175  0.00  0.00    -0.061 C 
BRANCH  32  34
ATOM     33  C   UNL     1       0.138   1.173   1.520  0.00  0.00    -0.097 C 
ATOM     34  N   UNL     1       0.128  -0.244   1.132  0.00  0.00    +0.377 N 
ATOM     35  C   UNL     1       0.965  -1.012   2.063  0.00  0.00    -0.097 C 
ATOM     36  H   UNL     1       0.493  -0.339   0.196  0.00  0.00    -0.083 HD
ENDBRANCH  32  34
ENDBRANCH  31  32
ENDBRANCH   1  31
TORSDOF 8
