REMARK  Name = ZINC35066425
REMARK  14 active torsions:
REMARK  status: ('A' for Active; 'I' for Inactive)
REMARK    1  A    between atoms: C_1  and  C_2
REMARK    2  A    between atoms: C_2  and  C_3
REMARK    3  A    between atoms: C_3  and  C_5
REMARK    4  A    between atoms: C_3  and  N_24
REMARK    5  A    between atoms: N_15  and  C_16
REMARK    6  A    between atoms: C_19  and  O_22
REMARK    7  A    between atoms: O_22  and  C_23
REMARK    8  A    between atoms: N_24  and  C_25
REMARK    9  A    between atoms: C_25  and  C_26
REMARK   10  A    between atoms: C_26  and  N_27
REMARK   11  A    between atoms: N_27  and  C_28
REMARK   12  A    between atoms: N_27  and  C_29
REMARK   13  A    between atoms: N_32  and  C_33
REMARK   14  A    between atoms: C_37  and  C_39
REMARK                            x       y       z     vdW  Elec       q    Type
REMARK                         _______ _______ _______ _____ _____    ______ ____
ROOT
ATOM      1  C   UNL     1      -1.694  -0.677   0.262  0.00  0.00    +0.144 C 
ENDROOT
BRANCH   1   2
ATOM      2  C   UNL     1      -1.537  -2.106  -0.189  0.00  0.00    +0.138 A 
ATOM      3  N   UNL     1      -0.873  -2.923   0.572  0.00  0.00    -0.231 NA
ATOM      4  C   UNL     1      -0.692  -4.223   0.231  0.00  0.00    +0.078 A 
ATOM      5  C   UNL     1       0.021  -5.102   1.048  0.00  0.00    +0.028 A 
ATOM      6  C   UNL     1       0.181  -6.414   0.663  0.00  0.00    +0.002 A 
ATOM      7  C   UNL     1      -0.359  -6.877  -0.530  0.00  0.00    +0.001 A 
ATOM      8  C   UNL     1      -1.067  -6.029  -1.353  0.00  0.00    +0.015 A 
ATOM      9  C   UNL     1      -1.240  -4.697  -0.982  0.00  0.00    +0.065 A 
ATOM     10  C   UNL     1      -1.985  -3.747  -1.821  0.00  0.00    +0.266 A 
ATOM     11  O   UNL     1      -2.482  -4.091  -2.877  0.00  0.00    -0.267 OA
ATOM     12  N   UNL     1      -2.102  -2.476  -1.370  0.00  0.00    -0.263 N 
BRANCH  12  13
ATOM     13  C   UNL     1      -2.808  -1.532  -2.128  0.00  0.00    +0.051 A 
ATOM     14  C   UNL     1      -2.120  -0.555  -2.835  0.00  0.00    +0.030 A 
ATOM     15  C   UNL     1      -2.816   0.375  -3.582  0.00  0.00    +0.047 A 
ATOM     16  C   UNL     1      -4.202   0.333  -3.626  0.00  0.00    +0.120 A 
ATOM     17  C   UNL     1      -4.890  -0.643  -2.919  0.00  0.00    +0.047 A 
ATOM     18  C   UNL     1      -4.195  -1.577  -2.177  0.00  0.00    +0.030 A 
BRANCH  16  19
ATOM     19  O   UNL     1      -4.886   1.249  -4.361  0.00  0.00    -0.495 OA
ATOM     20  C   UNL     1      -6.311   1.147  -4.361  0.00  0.00    +0.277 C 
ENDBRANCH  16  19
ENDBRANCH  12  13
ENDBRANCH   1   2
BRANCH   1  21
ATOM     21  N   UNL     1      -2.514  -0.635   1.475  0.00  0.00    -0.277 N 
ATOM     22  C   UNL     1      -3.673   0.053   1.481  0.00  0.00    +0.307 C 
ATOM     23  O   UNL     1      -4.038   0.638   0.480  0.00  0.00    -0.252 OA
ATOM     24  N   UNL     1      -4.428   0.091   2.597  0.00  0.00    -0.269 N 
ATOM     25  H   UNL     1      -4.166  -0.421   3.378  0.00  0.00    +0.156 HD
BRANCH  24  26
ATOM     26  C   UNL     1      -5.590   0.871   2.630  0.00  0.00    +0.035 A 
ATOM     27  C   UNL     1      -6.378   0.993   1.493  0.00  0.00    +0.023 A 
ATOM     28  C   UNL     1      -7.524   1.762   1.528  0.00  0.00    +0.002 A 
ATOM     29  C   UNL     1      -7.887   2.412   2.694  0.00  0.00    +0.003 A 
ATOM     30  C   UNL     1      -7.104   2.293   3.827  0.00  0.00    -0.049 A 
ATOM     31  C   UNL     1      -5.960   1.520   3.800  0.00  0.00    +0.026 A 
ATOM     32  C   UNL     1      -7.502   3.003   5.095  0.00  0.00    +0.044 C 
ENDBRANCH  24  26
BRANCH  21  33
ATOM     33  C   UNL     1      -2.075  -1.341   2.681  0.00  0.00    +0.091 C 
BRANCH  33  34
ATOM     34  C   UNL     1      -1.218  -0.405   3.536  0.00  0.00    -0.060 C 
BRANCH  34  35
ATOM     35  N   UNL     1      -0.777  -1.112   4.746  0.00  0.00    +0.377 N 
ATOM     36  C   UNL     1       0.141  -0.255   5.507  0.00  0.00    -0.097 C 
ATOM     37  C   UNL     1      -1.945  -1.437   5.576  0.00  0.00    -0.097 C 
ATOM     38  H   UNL     1      -0.304  -1.964   4.484  0.00  0.00    -0.083 HD
ENDBRANCH  34  35
ENDBRANCH  33  34
ENDBRANCH  21  33
ENDBRANCH   1  21
BRANCH   1  40
ATOM     39  C   UNL     1      -0.466   1.399   0.916  0.00  0.00    +0.006 C 
ATOM     40  C   UNL     1      -0.316  -0.081   0.557  0.00  0.00    +0.027 C 
ENDBRANCH   1  40
TORSDOF 9
