REMARK  Name = ZINC40352291
REMARK  10 active torsions:
REMARK  status: ('A' for Active; 'I' for Inactive)
REMARK    1  A    between atoms: C_1  and  O_2
REMARK    2  A    between atoms: O_2  and  C_3
REMARK    3  A    between atoms: C_5  and  C_23
REMARK    4  A    between atoms: C_7  and  N_22
REMARK    5  A    between atoms: C_8  and  O_9
REMARK    6  A    between atoms: O_9  and  C_10
REMARK    7  A    between atoms: C_10  and  C_11
REMARK    8  A    between atoms: C_11  and  C_13
REMARK    9  A    between atoms: C_11  and  O_21
REMARK   10  A    between atoms: C_23  and  O_24
REMARK                            x       y       z     vdW  Elec       q    Type
REMARK                         _______ _______ _______ _____ _____    ______ ____
ROOT
ATOM      1  C   UNL     1      -1.201  -0.638   0.010  0.00  0.00    +0.164 A 
ATOM      2  C   UNL     1      -2.375   0.101   0.019  0.00  0.00    +0.055 A 
ATOM      3  C   UNL     1      -3.599  -0.541   0.028  0.00  0.00    -0.017 A 
ATOM      4  C   UNL     1      -3.659  -1.922   0.026  0.00  0.00    +0.032 A 
ATOM      5  C   UNL     1      -2.490  -2.670   0.017  0.00  0.00    +0.071 A 
ATOM      6  C   UNL     1      -1.256  -2.026   0.003  0.00  0.00    +0.183 A 
ENDROOT
BRANCH   5   7
ATOM      7  N   UNL     1      -2.551  -4.068   0.016  0.00  0.00    -0.355 N 
ATOM      8  H   UNL     1      -3.411  -4.516   0.021  0.00  0.00    +0.142 HD
ATOM      9  H   UNL     1      -1.733  -4.589   0.009  0.00  0.00    +0.142 HD
ENDBRANCH   5   7
BRANCH   1  11
ATOM     10  C   UNL     1      -0.017   1.425   0.010  0.00  0.00    +0.277 C 
ATOM     11  O   UNL     1       0.002  -0.004   0.002  0.00  0.00    -0.491 OA
ENDBRANCH   1  11
BRANCH   6  12
ATOM     12  O   UNL     1      -0.106  -2.754  -0.011  0.00  0.00    -0.484 OA
BRANCH  12  13
ATOM     13  C   UNL     1       0.454  -3.108   1.255  0.00  0.00    +0.265 C 
BRANCH  13  14
ATOM     14  C   UNL     1       1.733  -3.919   1.039  0.00  0.00    +0.183 C 
BRANCH  14  15
ATOM     15  C   UNL     1       2.256  -4.396   2.369  0.00  0.00    -0.001 A 
ATOM     16  C   UNL     1       3.220  -3.663   3.036  0.00  0.00    +0.022 A 
ATOM     17  C   UNL     1       3.700  -4.102   4.256  0.00  0.00    +0.018 A 
ATOM     18  C   UNL     1       3.216  -5.274   4.810  0.00  0.00    +0.016 A 
ATOM     19  C   UNL     1       2.252  -6.006   4.143  0.00  0.00    +0.017 A 
ATOM     20  C   UNL     1       1.768  -5.565   2.925  0.00  0.00    +0.024 A 
ATOM     21 BR   UNL     1       0.444  -6.563   2.016  0.00  0.00    -0.050 Br
ATOM     22 BR   UNL     1       5.019  -3.099   5.168  0.00  0.00    -0.050 Br
ENDBRANCH  14  15
BRANCH  14  23
ATOM     23  O   UNL     1       2.717  -3.097   0.407  0.00  0.00    -0.384 OA
ATOM     24  H   UNL     1       2.959  -2.311   0.917  0.00  0.00    +0.210 HD
ENDBRANCH  14  23
ENDBRANCH  13  14
ENDBRANCH  12  13
ENDBRANCH   6  12
BRANCH   3  25
ATOM     25  C   UNL     1      -4.871   0.266   0.039  0.00  0.00    +0.191 C 
BRANCH  25  26
ATOM     26  O   UNL     1      -5.284   0.524  -1.305  0.00  0.00    -0.390 OA
ATOM     27  H   UNL     1      -6.098   1.041  -1.374  0.00  0.00    +0.210 HD
ENDBRANCH  25  26
ENDBRANCH   3  25
TORSDOF 9
