REMARK  Name = ZINC09910064
REMARK  7 active torsions:
REMARK  status: ('A' for Active; 'I' for Inactive)
REMARK    1  A    between atoms: C_1  and  O_2
REMARK    2  A    between atoms: O_2  and  C_3
REMARK    3  A    between atoms: C_6  and  C_9
REMARK    4  A    between atoms: C_12  and  C_15
REMARK    5  A    between atoms: C_15  and  S_16
REMARK    6  A    between atoms: S_16  and  C_17
REMARK    7  A    between atoms: N_23  and  C_24
REMARK                            x       y       z     vdW  Elec       q    Type
REMARK                         _______ _______ _______ _____ _____    ______ ____
ROOT
ATOM      1  C   UNL     1      -0.567  -1.529  -2.214  0.00  0.00    +0.099 C 
ATOM      2  N   UNL     1      -1.555  -1.359  -1.392  0.00  0.00    -0.275 NA
ATOM      3  C   UNL     1      -1.419  -0.583  -0.181  0.00  0.00    +0.158 C 
ATOM      4  C   UNL     1       0.002  -0.004   0.002  0.00  0.00    +0.084 C 
ATOM      5  S   UNL     1       0.814  -0.650  -1.511  0.00  0.00    -0.100 S 
ENDROOT
BRANCH   1   9
ATOM      6  C   UNL     1      -0.614  -3.737  -5.845  0.00  0.00    +0.120 A 
ATOM      7  C   UNL     1      -1.765  -3.650  -5.072  0.00  0.00    +0.046 A 
ATOM      8  C   UNL     1      -1.753  -2.935  -3.894  0.00  0.00    +0.014 A 
ATOM      9  C   UNL     1      -0.583  -2.298  -3.478  0.00  0.00    +0.007 A 
ATOM     10  C   UNL     1       0.570  -2.383  -4.260  0.00  0.00    +0.014 A 
ATOM     11  C   UNL     1       0.553  -3.104  -5.434  0.00  0.00    +0.046 A 
BRANCH   6  13
ATOM     12  C   UNL     1       0.590  -4.491  -7.750  0.00  0.00    +0.277 C 
ATOM     13  O   UNL     1      -0.628  -4.442  -7.005  0.00  0.00    -0.495 OA
ENDBRANCH   6  13
ENDBRANCH   1   9
BRANCH   4  14
ATOM     14  C   UNL     1      -0.019   1.526   0.010  0.00  0.00    +0.093 C 
BRANCH  14  15
ATOM     15  S   UNL     1       1.679   2.152  -0.002  0.00  0.00    -0.085 S 
BRANCH  15  16
ATOM     16  C   UNL     1       1.366   3.886   0.010  0.00  0.00    +0.192 A 
ATOM     17  N   UNL     1       0.190   4.445   0.025  0.00  0.00    -0.145 NA
ATOM     18  N   UNL     1       0.371   5.835   0.030  0.00  0.00    -0.226 N 
ATOM     19  H   UNL     1      -0.331   6.505   0.040  0.00  0.00    +0.194 HD
ATOM     20  C   UNL     1       1.699   6.070   0.018  0.00  0.00    +0.345 A 
ATOM     21  O   UNL     1       2.237   7.163   0.018  0.00  0.00    -0.245 OA
ATOM     22  N   UNL     1       2.323   4.875   0.012  0.00  0.00    -0.268 N 
BRANCH  22  23
ATOM     23  C   UNL     1       3.773   4.665   0.004  0.00  0.00    +0.094 C 
ATOM     24  C   UNL     1       4.666   5.891   0.211  0.00  0.00    +0.027 C 
ATOM     25  C   UNL     1       4.564   5.242  -1.171  0.00  0.00    +0.027 C 
ENDBRANCH  22  23
ENDBRANCH  15  16
ENDBRANCH  14  15
ENDBRANCH   4  14
TORSDOF 6
