REMARK  Name = ZINC39844947
REMARK  8 active torsions:
REMARK  status: ('A' for Active; 'I' for Inactive)
REMARK    1  A    between atoms: C_4  and  S_7
REMARK    2  A    between atoms: S_7  and  C_10
REMARK    3  A    between atoms: C_11  and  N_22
REMARK    4  A    between atoms: C_13  and  C_15
REMARK    5  A    between atoms: N_22  and  C_23
REMARK    6  A    between atoms: C_23  and  C_24
REMARK    7  A    between atoms: C_24  and  C_25
REMARK    8  A    between atoms: C_25  and  N_26
REMARK                            x       y       z     vdW  Elec       q    Type
REMARK                         _______ _______ _______ _____ _____    ______ ____
ROOT
ATOM      1  C   UNL     1       4.406  -1.094   1.637  0.00  0.00    +0.243 A 
ATOM      2  C   UNL     1       5.150  -0.256   2.398  0.00  0.00    +0.233 A 
ATOM      3  O   UNL     1       5.278  -0.830   3.611  0.00  0.00    -0.420 OA
ATOM      4  C   UNL     1       4.618  -2.003   3.581  0.00  0.00    +0.231 A 
ATOM      5  N   UNL     1       4.089  -2.158   2.390  0.00  0.00    -0.188 NA
ENDROOT
BRANCH   4   6
ATOM      6  C   UNL     1       4.503  -2.956   4.703  0.00  0.00    +0.037 A 
ATOM      7  C   UNL     1       3.793  -4.147   4.543  0.00  0.00    +0.014 A 
ATOM      8  C   UNL     1       3.689  -5.033   5.595  0.00  0.00    +0.016 A 
ATOM      9  C   UNL     1       4.288  -4.742   6.809  0.00  0.00    +0.018 A 
ATOM     10  C   UNL     1       4.994  -3.563   6.975  0.00  0.00    +0.016 A 
ATOM     11  C   UNL     1       5.110  -2.672   5.928  0.00  0.00    +0.014 A 
ATOM     12 BR   UNL     1       4.141  -5.962   8.247  0.00  0.00    -0.050 Br
ENDBRANCH   4   6
BRANCH   1  13
ATOM     13  S   UNL     1       3.934  -0.832  -0.041  0.00  0.00    +0.047 S 
ATOM     14  O   UNL     1       3.674  -2.114  -0.595  0.00  0.00    -0.163 OA
ATOM     15  O   UNL     1       4.890   0.060  -0.597  0.00  0.00    -0.163 OA
BRANCH  13  19
ATOM     16  C   UNL     1      -0.017   1.378   0.010  0.00  0.00    +0.000 A 
ATOM     17  C   UNL     1       1.171   2.086   0.002  0.00  0.00    +0.002 A 
ATOM     18  C   UNL     1       2.377   1.411  -0.013  0.00  0.00    +0.027 A 
ATOM     19  C   UNL     1       2.396   0.029  -0.020  0.00  0.00    +0.095 A 
ATOM     20  C   UNL     1       1.208  -0.679  -0.012  0.00  0.00    +0.027 A 
ATOM     21  C   UNL     1       0.002  -0.004   0.002  0.00  0.00    +0.002 A 
ENDBRANCH  13  19
ENDBRANCH   1  13
BRANCH   2  22
ATOM     22  N   UNL     1       5.682   0.967   2.002  0.00  0.00    -0.312 N 
ATOM     23  H   UNL     1       5.531   1.292   1.101  0.00  0.00    +0.149 HD
BRANCH  22  24
ATOM     24  C   UNL     1       6.469   1.763   2.946  0.00  0.00    +0.106 C 
BRANCH  24  25
ATOM     25  C   UNL     1       6.933   3.052   2.264  0.00  0.00    +0.040 C 
BRANCH  25  26
ATOM     26  C   UNL     1       7.755   3.884   3.250  0.00  0.00    +0.124 C 
BRANCH  26  27
ATOM     27  N   UNL     1       8.199   5.118   2.597  0.00  0.00    -0.338 N 
ATOM     28  C   UNL     1       9.360   5.292   1.893  0.00  0.00    +0.104 A 
ATOM     29  C   UNL     1       9.369   6.569   1.466  0.00  0.00    +0.101 A 
ATOM     30  N   UNL     1       8.244   7.159   1.898  0.00  0.00    -0.352 N 
ATOM     31  C   UNL     1       7.536   6.294   2.572  0.00  0.00    +0.173 A 
ATOM     32  H   UNL     1       7.995   8.082   1.733  0.00  0.00    +0.166 HD
ENDBRANCH  26  27
ENDBRANCH  25  26
ENDBRANCH  24  25
ENDBRANCH  22  24
ENDBRANCH   2  22
TORSDOF 8
