REMARK  Name = ZINC58006541
REMARK  10 active torsions:
REMARK  status: ('A' for Active; 'I' for Inactive)
REMARK    1  A    between atoms: C_1  and  C_2
REMARK    2  A    between atoms: C_2  and  C_3
REMARK    3  A    between atoms: C_3  and  C_22
REMARK    4  A    between atoms: N_6  and  C_15
REMARK    5  A    between atoms: C_10  and  N_14
REMARK    6  A    between atoms: C_15  and  C_16
REMARK    7  A    between atoms: C_16  and  C_18
REMARK    8  A    between atoms: C_16  and  C_19
REMARK    9  A    between atoms: C_19  and  N_21
REMARK   10  A    between atoms: C_22  and  C_23
REMARK                            x       y       z     vdW  Elec       q    Type
REMARK                         _______ _______ _______ _____ _____    ______ ____
ROOT
ATOM      1  C   UNL     1       0.929  -0.651   1.044  0.00  0.00    +0.186 C 
ATOM      2  C   UNL     1       2.259   0.050   1.153  0.00  0.00    +0.264 C 
ATOM      3  O   UNL     1       3.247  -0.435   0.643  0.00  0.00    -0.271 OA
ATOM      4  N   UNL     1       2.346   1.221   1.819  0.00  0.00    -0.264 N 
ATOM      5  C   UNL     1       1.222   1.701   2.509  0.00  0.00    +0.078 A 
ATOM      6  C   UNL     1       1.202   2.994   3.007  0.00  0.00    +0.029 A 
ATOM      7  C   UNL     1       0.084   3.460   3.672  0.00  0.00    +0.025 A 
ATOM      8  C   UNL     1      -1.021   2.635   3.841  0.00  0.00    +0.028 A 
ATOM      9  C   UNL     1      -1.003   1.338   3.346  0.00  0.00    +0.070 A 
ATOM     10  C   UNL     1       0.119   0.868   2.686  0.00  0.00    +0.145 A 
ATOM     11  O   UNL     1       0.161  -0.411   2.225  0.00  0.00    -0.475 OA
ENDROOT
BRANCH   8  12
ATOM     12  N   UNL     1      -2.154   3.112   4.509  0.00  0.00    -0.358 N 
ATOM     13  H   UNL     1      -2.167   4.019   4.854  0.00  0.00    +0.142 HD
ATOM     14  H   UNL     1      -2.925   2.537   4.627  0.00  0.00    +0.142 HD
ENDBRANCH   8  12
BRANCH   1  16
ATOM     15  C   UNL     1       0.047   1.403  -0.072  0.00  0.00    +0.008 C 
ATOM     16  C   UNL     1       0.170  -0.119  -0.173  0.00  0.00    +0.054 C 
ENDBRANCH   1  16
BRANCH   1  17
ATOM     17  C   UNL     1       1.159  -2.155   0.883  0.00  0.00    +0.054 C 
ATOM     18  C   UNL     1       1.918  -2.688   2.100  0.00  0.00    +0.008 C 
ENDBRANCH   1  17
BRANCH   4  19
ATOM     19  C   UNL     1       3.599   1.980   1.824  0.00  0.00    +0.123 C 
BRANCH  19  20
ATOM     20  C   UNL     1       4.391   1.651   3.091  0.00  0.00    +0.055 C 
ATOM     21  C   UNL     1       4.816   0.181   3.059  0.00  0.00    +0.016 C 
BRANCH  20  22
ATOM     22  C   UNL     1       5.614   2.527   3.161  0.00  0.00    +0.051 C 
ATOM     23  S   UNL     1       5.902   3.593   2.004  0.00  0.00    -0.040 S 
BRANCH  22  24
ATOM     24  N   UNL     1       6.467   2.413   4.199  0.00  0.00    -0.355 N 
ATOM     25  H   UNL     1       6.293   1.766   4.901  0.00  0.00    +0.143 HD
ATOM     26  H   UNL     1       7.255   2.977   4.244  0.00  0.00    +0.143 HD
ENDBRANCH  22  24
ENDBRANCH  20  22
ENDBRANCH  19  20
ENDBRANCH   4  19
TORSDOF 7
