REMARK  Name = ZINC04391991
REMARK  7 active torsions:
REMARK  status: ('A' for Active; 'I' for Inactive)
REMARK    1  A    between atoms: C_1  and  C_2
REMARK    2  A    between atoms: C_2  and  C_4
REMARK    3  A    between atoms: C_7  and  N_10
REMARK    4  A    between atoms: C_11  and  C_13
REMARK    5  A    between atoms: C_13  and  S_14
REMARK    6  A    between atoms: S_14  and  C_15
REMARK    7  A    between atoms: C_18  and  C_21
REMARK                            x       y       z     vdW  Elec       q    Type
REMARK                         _______ _______ _______ _____ _____    ______ ____
ROOT
ATOM      1  C   UNL     1      -0.120   0.964   0.010  0.00  0.00    +0.172 C 
ENDROOT
BRANCH   1   3
ATOM      2  N   UNL     1      -0.246   1.243   2.465  0.00  0.00    -0.285 N 
ATOM      3  C   UNL     1      -0.815   1.441   1.259  0.00  0.00    +0.227 C 
ATOM      4  O   UNL     1      -1.886   2.004   1.180  0.00  0.00    -0.275 OA
ATOM      5  H   UNL     1       0.573   0.728   2.536  0.00  0.00    +0.155 HD
BRANCH   2   9
ATOM      6  C   UNL     1      -2.002   2.839   5.882  0.00  0.00    +0.017 A 
ATOM      7  C   UNL     1      -1.320   1.617   5.948  0.00  0.00    +0.013 A 
ATOM      8  C   UNL     1      -0.743   1.095   4.819  0.00  0.00    +0.024 A 
ATOM      9  C   UNL     1      -0.834   1.777   3.609  0.00  0.00    +0.033 A 
ATOM     10  C   UNL     1      -1.506   2.994   3.540  0.00  0.00    +0.024 A 
ATOM     11  C   UNL     1      -2.091   3.521   4.663  0.00  0.00    +0.013 A 
BRANCH   6  13
ATOM     12  C   UNL     1      -3.460   4.651   6.992  0.00  0.00    +0.091 C 
ATOM     13  C   UNL     1      -2.622   3.402   7.088  0.00  0.00    +0.160 C 
ATOM     14  O   UNL     1      -2.460   2.862   8.162  0.00  0.00    -0.292 OA
ENDBRANCH   6  13
ENDBRANCH   2   9
ENDBRANCH   1   3
BRANCH   1  15
ATOM     15  S   UNL     1      -1.131   1.376  -1.439  0.00  0.00    -0.095 S 
BRANCH  15  16
ATOM     16  C   UNL     1      -0.195   0.760  -2.799  0.00  0.00    +0.120 A 
ATOM     17  C   UNL     1      -0.678   0.904  -4.102  0.00  0.00    +0.039 A 
ATOM     18  C   UNL     1       0.091   0.406  -5.138  0.00  0.00    +0.033 A 
ATOM     19  C   UNL     1       1.305  -0.211  -4.817  0.00  0.00    +0.093 A 
ATOM     20  N   UNL     1       1.683  -0.303  -3.549  0.00  0.00    -0.148 NA
ATOM     21  N   UNL     1       0.971   0.165  -2.589  0.00  0.00    -0.142 NA
BRANCH  19  22
ATOM     22  C   UNL     1       2.166  -0.761  -5.891  0.00  0.00    +0.005 A 
ATOM     23  C   UNL     1       1.782  -0.679  -7.233  0.00  0.00    +0.030 A 
ATOM     24  C   UNL     1       2.616  -1.199  -8.201  0.00  0.00    +0.111 A 
ATOM     25  N   UNL     1       3.756  -1.777  -7.873  0.00  0.00    -0.263 NA
ATOM     26  C   UNL     1       4.153  -1.880  -6.620  0.00  0.00    +0.111 A 
ATOM     27  C   UNL     1       3.382  -1.382  -5.589  0.00  0.00    +0.030 A 
ENDBRANCH  19  22
ENDBRANCH  15  16
ENDBRANCH   1  15
TORSDOF 6
