REMARK  Name = ZINC33012122
REMARK  6 active torsions:
REMARK  status: ('A' for Active; 'I' for Inactive)
REMARK    1  A    between atoms: C_4  and  C_7
REMARK    2  A    between atoms: C_7  and  N_8
REMARK    3  A    between atoms: C_11  and  N_14
REMARK    4  A    between atoms: C_15  and  C_17
REMARK    5  A    between atoms: C_21  and  C_23
REMARK    6  A    between atoms: C_23  and  N_24
REMARK                            x       y       z     vdW  Elec       q    Type
REMARK                         _______ _______ _______ _____ _____    ______ ____
ROOT
ATOM      1  C   UNL     1      -1.268  -0.761   0.010  0.00  0.00    +0.037 A 
ATOM      2  C   UNL     1      -2.488  -0.082   0.025  0.00  0.00    +0.013 A 
ATOM      3  C   UNL     1      -3.670  -0.794   0.032  0.00  0.00    +0.001 A 
ATOM      4  C   UNL     1      -3.647  -2.178   0.025  0.00  0.00    +0.005 A 
ATOM      5  C   UNL     1      -2.442  -2.856   0.010  0.00  0.00    -0.027 A 
ATOM      6  C   UNL     1      -1.253  -2.156  -0.003  0.00  0.00    +0.018 A 
ENDROOT
BRANCH   1   8
ATOM      7  N   UNL     1      -0.016   1.344   0.009  0.00  0.00    -0.309 N 
ATOM      8  C   UNL     1       0.002  -0.004   0.002  0.00  0.00    +0.244 C 
ATOM      9  O   UNL     1       1.063  -0.597  -0.011  0.00  0.00    -0.270 OA
ATOM     10  H   UNL     1      -0.976   1.881   0.021  0.00  0.00    +0.149 HD
BRANCH   7  14
ATOM     11  N   UNL     1       2.760   4.401   0.844  0.00  0.00    +0.382 N 
ATOM     12  C   UNL     1       2.311   4.282  -0.549  0.00  0.00    -0.077 C 
ATOM     13  C   UNL     1       1.007   3.482  -0.599  0.00  0.00    +0.004 C 
ATOM     14  C   UNL     1       1.242   2.093   0.001  0.00  0.00    +0.070 C 
ATOM     15  C   UNL     1       1.756   2.246   1.436  0.00  0.00    +0.004 C 
ATOM     16  C   UNL     1       3.038   3.082   1.427  0.00  0.00    -0.077 C 
ATOM     17  H   UNL     1       1.943   4.857   1.422  0.00  0.00    -0.081 HD
BRANCH  11  18
ATOM     18  C   UNL     1       3.934   5.279   0.946  0.00  0.00    -0.043 C 
BRANCH  18  22
ATOM     19  C   UNL     1       4.735   6.116   5.057  0.00  0.00    +0.000 A 
ATOM     20  C   UNL     1       5.319   5.021   4.448  0.00  0.00    +0.000 A 
ATOM     21  C   UNL     1       5.059   4.750   3.118  0.00  0.00    +0.002 A 
ATOM     22  C   UNL     1       4.216   5.574   2.396  0.00  0.00    -0.064 A 
ATOM     23  C   UNL     1       3.637   6.672   3.004  0.00  0.00    +0.002 A 
ATOM     24  C   UNL     1       3.892   6.940   4.336  0.00  0.00    +0.000 A 
ENDBRANCH  18  22
ENDBRANCH  11  18
ENDBRANCH   7  14
ENDBRANCH   1   8
BRANCH   5  25
ATOM     25  C   UNL     1      -2.427  -4.363   0.002  0.00  0.00    +0.162 C 
BRANCH  25  26
ATOM     26  N   UNL     1      -2.435  -4.844  -1.381  0.00  0.00    -0.286 N 
ATOM     27  C   UNL     1      -3.647  -5.088  -2.019  0.00  0.00    +0.161 A 
ATOM     28  C   UNL     1      -3.672  -5.543  -3.338  0.00  0.00    +0.090 A 
ATOM     29  C   UNL     1      -4.895  -5.774  -3.956  0.00  0.00    +0.031 A 
ATOM     30  C   UNL     1      -6.054  -5.537  -3.231  0.00  0.00    +0.022 A 
ATOM     31  C   UNL     1      -5.956  -5.083  -1.930  0.00  0.00    +0.113 A 
ATOM     32  N   UNL     1      -4.782  -4.872  -1.368  0.00  0.00    -0.236 NA
ATOM     33  N   UNL     1      -2.482  -5.769  -4.035  0.00  0.00    -0.309 N 
ATOM     34  C   UNL     1      -2.228  -6.204  -5.294  0.00  0.00    +0.092 A 
ATOM     35  C   UNL     1      -0.887  -6.251  -5.482  0.00  0.00    +0.020 A 
ATOM     36  C   UNL     1      -0.272  -5.831  -4.299  0.00  0.00    +0.033 A 
ATOM     37  C   UNL     1      -1.276  -5.534  -3.405  0.00  0.00    +0.112 A 
ATOM     38  C   UNL     1      -1.268  -5.052  -2.023  0.00  0.00    +0.277 A 
ATOM     39  O   UNL     1      -0.212  -4.840  -1.455  0.00  0.00    -0.265 OA
ENDBRANCH  25  26
ENDBRANCH   5  25
TORSDOF 6
