REMARK  Name = ZINC00809634
REMARK  7 active torsions:
REMARK  status: ('A' for Active; 'I' for Inactive)
REMARK    1  A    between atoms: C_1  and  C_2
REMARK    2  A    between atoms: C_2  and  O_3
REMARK    3  A    between atoms: O_3  and  C_4
REMARK    4  A    between atoms: C_7  and  S_10
REMARK    5  A    between atoms: S_10  and  N_13
REMARK    6  A    between atoms: C_17  and  C_20
REMARK    7  A    between atoms: N_22  and  C_23
REMARK                            x       y       z     vdW  Elec       q    Type
REMARK                         _______ _______ _______ _____ _____    ______ ____
ROOT
ATOM      1  N   UNL     1      -2.826   1.380   0.037  0.00  0.00    -0.176 NA
ATOM      2  C   UNL     1      -2.154   1.019   1.293  0.00  0.00    +0.109 C 
ATOM      3  C   UNL     1      -0.729   1.579   1.268  0.00  0.00    +0.018 C 
ATOM      4  C   UNL     1      -0.013   1.086   0.008  0.00  0.00    +0.015 C 
ATOM      5  C   UNL     1      -0.752   1.593  -1.232  0.00  0.00    +0.091 C 
ATOM      6  C   UNL     1      -2.178   1.033  -1.236  0.00  0.00    +0.122 C 
ENDROOT
BRANCH   5   7
ATOM      7  C   UNL     1      -0.029   1.133  -2.472  0.00  0.00    +0.218 C 
ATOM      8  O   UNL     1      -0.597   0.431  -3.281  0.00  0.00    -0.275 OA
ATOM      9  N   UNL     1       1.250   1.504  -2.682  0.00  0.00    -0.312 N 
ATOM     10  H   UNL     1       1.705   2.066  -2.035  0.00  0.00    +0.149 HD
BRANCH   9  11
ATOM     11  C   UNL     1       1.953   1.057  -3.887  0.00  0.00    +0.073 C 
ATOM     12  C   UNL     1       3.392   0.564  -3.723  0.00  0.00    +0.024 C 
ATOM     13  C   UNL     1       3.118   1.916  -4.384  0.00  0.00    +0.024 C 
ENDBRANCH   9  11
ENDBRANCH   5   7
BRANCH   1  14
ATOM     14  S   UNL     1      -4.285   2.163   0.055  0.00  0.00    +0.061 S 
ATOM     15  O   UNL     1      -4.370   2.834   1.305  0.00  0.00    -0.153 OA
ATOM     16  O   UNL     1      -4.395   2.847  -1.186  0.00  0.00    -0.153 OA
BRANCH  14  20
ATOM     17  C   UNL     1      -7.510  -1.017   0.070  0.00  0.00    +0.121 A 
ATOM     18  C   UNL     1      -7.003  -0.535   1.268  0.00  0.00    +0.047 A 
ATOM     19  C   UNL     1      -6.019   0.435   1.261  0.00  0.00    +0.032 A 
ATOM     20  C   UNL     1      -5.540   0.926   0.061  0.00  0.00    +0.106 A 
ATOM     21  C   UNL     1      -6.047   0.451  -1.135  0.00  0.00    +0.032 A 
ATOM     22  C   UNL     1      -7.026  -0.523  -1.133  0.00  0.00    +0.047 A 
BRANCH  17  23
ATOM     23  O   UNL     1      -8.477  -1.971   0.074  0.00  0.00    -0.492 OA
BRANCH  23  25
ATOM     24  C   UNL     1     -10.029  -3.486  -0.991  0.00  0.00    +0.048 C 
ATOM     25  C   UNL     1      -8.951  -2.420  -1.196  0.00  0.00    +0.225 C 
ENDBRANCH  23  25
ENDBRANCH  17  23
ENDBRANCH  14  20
ENDBRANCH   1  14
TORSDOF 6
