REMARK  Name = ZINC20411818
REMARK  8 active torsions:
REMARK  status: ('A' for Active; 'I' for Inactive)
REMARK    1  A    between atoms: C_1  and  C_2
REMARK    2  A    between atoms: C_2  and  C_3
REMARK    3  A    between atoms: C_2  and  O_4
REMARK    4  A    between atoms: O_4  and  C_5
REMARK    5  A    between atoms: C_5  and  C_7
REMARK    6  A    between atoms: C_17  and  C_19
REMARK    7  A    between atoms: C_20  and  C_21
REMARK    8  A    between atoms: C_24  and  C_26
REMARK                            x       y       z     vdW  Elec       q    Type
REMARK                         _______ _______ _______ _____ _____    ______ ____
ROOT
ATOM      1  C   UNL     1       0.179   6.291   0.031  0.00  0.00    +0.060 A 
ATOM      2  C   UNL     1       1.515   5.865   0.017  0.00  0.00    +0.017 A 
ATOM      3  C   UNL     1       1.838   4.549   0.008  0.00  0.00    +0.030 A 
ATOM      4  C   UNL     1       0.834   3.549   0.012  0.00  0.00    +0.080 A 
ATOM      5  C   UNL     1      -0.508   4.004   0.027  0.00  0.00    +0.042 A 
ATOM      6  C   UNL     1      -0.839   5.330   0.036  0.00  0.00    +0.032 A 
ATOM      7  S   UNL     1      -1.423   2.481   0.021  0.00  0.00    -0.052 S 
ATOM      8  C   UNL     1      -0.017   1.377   0.010  0.00  0.00    +0.166 A 
ATOM      9  N   UNL     1       0.996   2.217   0.004  0.00  0.00    -0.225 NA
ATOM     10  N   UNL     1       0.002  -0.004   0.002  0.00  0.00    -0.261 N 
ATOM     11  C   UNL     1       1.178  -0.662  -0.012  0.00  0.00    +0.243 C 
ATOM     12  O   UNL     1       2.225  -0.039  -0.018  0.00  0.00    -0.270 OA
ATOM     13  H   UNL     1      -0.943  -0.567   0.007  0.00  0.00    +0.157 HD
ENDROOT
BRANCH   1  14
ATOM     14  C   UNL     1      -0.148   7.728   0.040  0.00  0.00    +0.339 C 
ATOM     15  O   UNL     1      -1.309   8.086   0.052  0.00  0.00    -0.245 OA
BRANCH  14  16
ATOM     16  O   UNL     1       0.840   8.644   0.035  0.00  0.00    -0.458 OA
BRANCH  16  18
ATOM     17  C   UNL     1       0.318  10.525   1.491  0.00  0.00    +0.052 C 
ATOM     18  C   UNL     1       0.444  10.041   0.045  0.00  0.00    +0.171 C 
ATOM     19  C   UNL     1       1.500  10.875  -0.682  0.00  0.00    +0.052 C 
ENDBRANCH  16  18
ENDBRANCH  14  16
ENDBRANCH   1  14
BRANCH  11  20
ATOM     20  C   UNL     1       1.197  -2.075  -0.020  0.00  0.00    +0.071 C 
ATOM     21  C   UNL     1       2.383  -2.738  -0.034  0.00  0.00    +0.051 C 
BRANCH  21  22
ATOM     22  C   UNL     1       2.402  -4.151  -0.042  0.00  0.00    +0.129 A 
ATOM     23  C   UNL     1       3.533  -4.946  -0.062  0.00  0.00    +0.050 A 
ATOM     24  C   UNL     1       3.095  -6.273  -0.060  0.00  0.00    +0.050 A 
ATOM     25  C   UNL     1       1.718  -6.241  -0.048  0.00  0.00    +0.136 A 
ATOM     26  O   UNL     1       1.320  -4.957  -0.037  0.00  0.00    -0.455 OA
BRANCH  25  27
ATOM     27  C   UNL     1       0.830  -7.420  -0.047  0.00  0.00    +0.017 A 
ATOM     28  C   UNL     1       1.372  -8.707  -0.066  0.00  0.00    +0.013 A 
ATOM     29  C   UNL     1       0.536  -9.804  -0.060  0.00  0.00    +0.021 A 
ATOM     30  C   UNL     1      -0.839  -9.631  -0.046  0.00  0.00    +0.041 A 
ATOM     31  C   UNL     1      -1.382  -8.357  -0.033  0.00  0.00    +0.021 A 
ATOM     32  C   UNL     1      -0.557  -7.252  -0.034  0.00  0.00    +0.013 A 
ATOM     33 CL   UNL     1      -1.884 -11.017  -0.046  0.00  0.00    -0.084 Cl
ENDBRANCH  25  27
ENDBRANCH  21  22
ENDBRANCH  11  20
TORSDOF 6
