REMARK  Name = ZINC44217627
REMARK  5 active torsions:
REMARK  status: ('A' for Active; 'I' for Inactive)
REMARK    1  A    between atoms: C_6  and  C_11
REMARK    2  A    between atoms: C_12  and  C_21
REMARK    3  A    between atoms: C_21  and  C_23
REMARK    4  A    between atoms: C_21  and  N_27
REMARK    5  A    between atoms: C_23  and  C_24
REMARK                            x       y       z     vdW  Elec       q    Type
REMARK                         _______ _______ _______ _____ _____    ______ ____
ROOT
ATOM      1  C   UNL     1       4.978  -2.713  -0.058  0.00  0.00    +0.049 A 
ATOM      2  C   UNL     1       5.276  -3.770  -0.854  0.00  0.00    -0.028 A 
ATOM      3  C   UNL     1       6.650  -4.163  -0.542  0.00  0.00    +0.002 A 
ATOM      4  C   UNL     1       7.502  -5.162  -1.020  0.00  0.00    +0.010 A 
ATOM      5  C   UNL     1       8.766  -5.275  -0.512  0.00  0.00    +0.001 A 
ATOM      6  C   UNL     1       9.210  -4.405   0.474  0.00  0.00    +0.002 A 
ATOM      7  C   UNL     1       8.387  -3.413   0.960  0.00  0.00    +0.026 A 
ATOM      8  C   UNL     1       7.096  -3.278   0.458  0.00  0.00    +0.047 A 
ATOM      9  N   UNL     1       6.065  -2.406   0.728  0.00  0.00    -0.354 N 
ATOM     10  H   UNL     1       6.098  -1.686   1.377  0.00  0.00    +0.166 HD
ENDROOT
BRANCH   1  16
ATOM     11  C   UNL     1      -0.016   1.357   0.009  0.00  0.00    +0.001 A 
ATOM     12  C   UNL     1       1.168   2.091   0.002  0.00  0.00    +0.001 A 
ATOM     13  C   UNL     1       2.378   1.468  -0.013  0.00  0.00    +0.008 A 
ATOM     14  C   UNL     1       2.437   0.063  -0.021  0.00  0.00    -0.017 A 
ATOM     15  C   UNL     1       3.667  -0.611  -0.035  0.00  0.00    +0.018 A 
ATOM     16  C   UNL     1       3.685  -1.996  -0.043  0.00  0.00    -0.001 A 
ATOM     17  C   UNL     1       2.483  -2.725  -0.036  0.00  0.00    +0.010 A 
ATOM     18  C   UNL     1       1.283  -2.090  -0.021  0.00  0.00    +0.009 A 
ATOM     19  C   UNL     1       1.232  -0.684  -0.013  0.00  0.00    -0.018 A 
ATOM     20  C   UNL     1       0.002  -0.004   0.002  0.00  0.00    +0.008 A 
ENDBRANCH   1  16
BRANCH   2  21
ATOM     21  C   UNL     1       4.366  -4.417  -1.865  0.00  0.00    -0.031 C 
BRANCH  21  22
ATOM     22  N   UNL     1       5.108  -4.654  -3.111  0.00  0.00    +0.383 N 
ATOM     23  H   UNL     1       4.498  -5.087  -3.788  0.00  0.00    -0.089 HD
ATOM     24  H   UNL     1       5.444  -3.774  -3.474  0.00  0.00    -0.089 HD
ATOM     25  H   UNL     1       5.891  -5.262  -2.925  0.00  0.00    -0.089 HD
ENDBRANCH  21  22
BRANCH  21  26
ATOM     26  C   UNL     1       3.856  -5.750  -1.314  0.00  0.00    +0.113 C 
BRANCH  26  27
ATOM     27  C   UNL     1       2.851  -6.338  -2.271  0.00  0.00    +0.355 C 
ATOM     28  O   UNL     1       2.569  -5.745  -3.299  0.00  0.00    -0.246 OA
ATOM     29  O   UNL     1       2.321  -7.406  -2.018  0.00  0.00    -0.246 OA
ENDBRANCH  26  27
ENDBRANCH  21  26
ENDBRANCH   2  21
TORSDOF 5
