REMARK  Name = ZINC23555541
REMARK  11 active torsions:
REMARK  status: ('A' for Active; 'I' for Inactive)
REMARK    1  A    between atoms: C_1  and  C_2
REMARK    2  A    between atoms: C_2  and  C_4
REMARK    3  A    between atoms: C_2  and  S_17
REMARK    4  A    between atoms: N_6  and  C_7
REMARK    5  A    between atoms: C_9  and  N_14
REMARK    6  A    between atoms: S_17  and  C_18
REMARK    7  A    between atoms: C_21  and  S_23
REMARK    8  A    between atoms: S_23  and  C_24
REMARK    9  A    between atoms: C_24  and  C_25
REMARK   10  A    between atoms: C_28  and  O_31
REMARK   11  A    between atoms: O_31  and  C_32
REMARK                            x       y       z     vdW  Elec       q    Type
REMARK                         _______ _______ _______ _____ _____    ______ ____
ROOT
ATOM      1  C   UNL     1      -2.800   0.722   1.606  0.00  0.00    +0.029 C 
ATOM      2  C   UNL     1      -2.482   0.977   0.131  0.00  0.00    +0.136 C 
ENDROOT
BRANCH   2   3
ATOM      3  C   UNL     1      -1.154   1.681   0.018  0.00  0.00    +0.230 C 
ATOM      4  O   UNL     1      -1.113   2.890  -0.064  0.00  0.00    -0.274 OA
ATOM      5  N   UNL     1      -0.011   0.966   0.007  0.00  0.00    -0.283 N 
ATOM      6  H   UNL     1      -0.050  -0.133  -0.009  0.00  0.00    +0.155 HD
BRANCH   5   7
ATOM      7  C   UNL     1       1.225   1.622   0.017  0.00  0.00    +0.054 A 
ATOM      8  C   UNL     1       1.328   2.905   0.539  0.00  0.00    +0.057 A 
ATOM      9  C   UNL     1       2.550   3.550   0.547  0.00  0.00    +0.128 A 
ATOM     10  C   UNL     1       3.670   2.920   0.035  0.00  0.00    +0.034 A 
ATOM     11  C   UNL     1       3.571   1.643  -0.486  0.00  0.00    +0.024 A 
ATOM     12  C   UNL     1       2.353   0.990  -0.492  0.00  0.00    +0.062 A 
ATOM     13 CL   UNL     1       2.232  -0.616  -1.140  0.00  0.00    -0.082 Cl
BRANCH   9  14
ATOM     14  N   UNL     1       2.660   4.916   1.104  0.00  0.00    +0.056 N 
ATOM     15  O   UNL     1       1.674   5.471   1.556  0.00  0.00    -0.126 OA
ATOM     16  O   UNL     1       3.736   5.486   1.111  0.00  0.00    -0.126 OA
ENDBRANCH   9  14
ENDBRANCH   5   7
ENDBRANCH   2   3
BRANCH   2  17
ATOM     17  S   UNL     1      -3.779   2.015  -0.597  0.00  0.00    -0.084 S 
BRANCH  17  18
ATOM     18  C   UNL     1      -5.223   1.006  -0.523  0.00  0.00    +0.160 A 
ATOM     19  N   UNL     1      -5.363  -0.219  -0.055  0.00  0.00    -0.134 NA
ATOM     20  N   UNL     1      -6.596  -0.829  -0.094  0.00  0.00    -0.134 NA
ATOM     21  C   UNL     1      -7.631  -0.186  -0.600  0.00  0.00    +0.160 A 
ATOM     22  S   UNL     1      -6.888   1.373  -1.055  0.00  0.00    -0.033 S 
BRANCH  21  23
ATOM     23  S   UNL     1      -9.301  -0.720  -0.772  0.00  0.00    -0.092 S 
BRANCH  23  24
ATOM     24  C   UNL     1      -9.298  -2.399  -0.085  0.00  0.00    +0.111 C 
BRANCH  24  25
ATOM     25  C   UNL     1     -10.686  -2.979  -0.172  0.00  0.00    -0.037 A 
ATOM     26  C   UNL     1     -11.573  -2.807   0.874  0.00  0.00    +0.008 A 
ATOM     27  C   UNL     1     -12.848  -3.333   0.794  0.00  0.00    +0.046 A 
ATOM     28  C   UNL     1     -13.234  -4.045  -0.332  0.00  0.00    +0.120 A 
ATOM     29  C   UNL     1     -12.340  -4.222  -1.379  0.00  0.00    +0.046 A 
ATOM     30  C   UNL     1     -11.068  -3.688  -1.296  0.00  0.00    +0.008 A 
BRANCH  28  31
ATOM     31  O   UNL     1     -14.486  -4.569  -0.411  0.00  0.00    -0.495 OA
ATOM     32  C   UNL     1     -15.353  -4.348   0.703  0.00  0.00    +0.277 C 
ENDBRANCH  28  31
ENDBRANCH  24  25
ENDBRANCH  23  24
ENDBRANCH  21  23
ENDBRANCH  17  18
ENDBRANCH   2  17
TORSDOF 9
