REMARK  Name = ZINC03258391
REMARK  10 active torsions:
REMARK  status: ('A' for Active; 'I' for Inactive)
REMARK    1  A    between atoms: C_1  and  C_2
REMARK    2  A    between atoms: C_2  and  N_3
REMARK    3  A    between atoms: N_3  and  C_4
REMARK    4  A    between atoms: N_3  and  C_6
REMARK    5  A    between atoms: C_4  and  C_5
REMARK    6  A    between atoms: C_9  and  N_12
REMARK    7  A    between atoms: C_13  and  C_15
REMARK    8  A    between atoms: C_15  and  S_16
REMARK    9  A    between atoms: S_16  and  C_17
REMARK   10  A    between atoms: N_30  and  C_31
REMARK                            x       y       z     vdW  Elec       q    Type
REMARK                         _______ _______ _______ _____ _____    ______ ____
ROOT
ATOM      1  C   UNL     1       1.567   2.959  -0.022  0.00  0.00    +0.173 A 
ATOM      2  N   UNL     1       2.785   3.460  -0.045  0.00  0.00    -0.216 NA
ATOM      3  C   UNL     1       3.848   2.668   0.030  0.00  0.00    +0.117 A 
ATOM      4  C   UNL     1       3.733   1.272   0.139  0.00  0.00    +0.076 A 
ATOM      5  C   UNL     1       4.993   0.530   0.213  0.00  0.00    -0.023 A 
ATOM      6  C   UNL     1       6.131   1.252   0.170  0.00  0.00    -0.004 A 
ATOM      7  S   UNL     1       5.602   2.938   0.032  0.00  0.00    -0.073 S 
ATOM      8  C   UNL     1       7.536   0.735   0.229  0.00  0.00    +0.043 C 
ATOM      9  C   UNL     1       7.498  -0.720   0.718  0.00  0.00    +0.005 C 
ATOM     10  C   UNL     1       6.429  -1.477  -0.075  0.00  0.00    +0.005 C 
ATOM     11  C   UNL     1       5.038  -0.991   0.333  0.00  0.00    +0.037 C 
ATOM     12  C   UNL     1       2.398   0.756   0.168  0.00  0.00    +0.263 A 
ATOM     13  O   UNL     1       2.201  -0.443   0.265  0.00  0.00    -0.267 OA
ATOM     14  N   UNL     1       1.364   1.613   0.082  0.00  0.00    -0.284 N 
ENDROOT
BRANCH  14  15
ATOM     15  C   UNL     1      -0.005   1.092   0.106  0.00  0.00    +0.093 C 
ATOM     16  C   UNL     1      -0.271   0.248  -1.158  0.00  0.00    +0.025 C 
ATOM     17  C   UNL     1       0.001  -1.208  -0.705  0.00  0.00    +0.002 C 
ATOM     18  C   UNL     1      -0.564  -1.230   0.737  0.00  0.00    +0.002 C 
ATOM     19  C   UNL     1      -0.190   0.153   1.310  0.00  0.00    +0.025 C 
ENDBRANCH  14  15
BRANCH   1  20
ATOM     20  S   UNL     1       0.180   4.041  -0.124  0.00  0.00    -0.078 S 
BRANCH  20  21
ATOM     21  C   UNL     1       1.032   5.634  -0.239  0.00  0.00    +0.173 C 
BRANCH  21  23
ATOM     22  N   UNL     1       0.421   8.023  -0.434  0.00  0.00    -0.285 N 
ATOM     23  C   UNL     1       0.015   6.742  -0.339  0.00  0.00    +0.227 C 
ATOM     24  O   UNL     1      -1.170   6.480  -0.333  0.00  0.00    -0.275 OA
ATOM     25  H   UNL     1       1.366   8.227  -0.519  0.00  0.00    +0.155 HD
BRANCH  22  29
ATOM     26  C   UNL     1      -2.382  11.111  -0.367  0.00  0.00    +0.030 A 
ATOM     27  C   UNL     1      -2.596   9.961   0.383  0.00  0.00    +0.025 A 
ATOM     28  C   UNL     1      -1.668   8.940   0.360  0.00  0.00    +0.025 A 
ATOM     29  C   UNL     1      -0.521   9.060  -0.412  0.00  0.00    +0.034 A 
ATOM     30  C   UNL     1      -0.304  10.212  -1.157  0.00  0.00    +0.025 A 
ATOM     31  C   UNL     1      -1.234  11.231  -1.140  0.00  0.00    +0.025 A 
BRANCH  26  32
ATOM     32  N   UNL     1      -3.322  12.146  -0.345  0.00  0.00    -0.330 N 
BRANCH  32  34
ATOM     33  C   UNL     1      -3.705  13.179  -2.529  0.00  0.00    +0.024 C 
ATOM     34  C   UNL     1      -3.096  13.358  -1.136  0.00  0.00    +0.102 C 
ENDBRANCH  32  34
BRANCH  32  35
ATOM     35  C   UNL     1      -4.534  12.018   0.469  0.00  0.00    +0.102 C 
ATOM     36  C   UNL     1      -4.267  12.575   1.870  0.00  0.00    +0.024 C 
ENDBRANCH  32  35
ENDBRANCH  26  32
ENDBRANCH  22  29
ENDBRANCH  21  23
ENDBRANCH  20  21
ENDBRANCH   1  20
TORSDOF 8
