REMARK  Name = ZINC12661466
REMARK  2 active torsions:
REMARK  status: ('A' for Active; 'I' for Inactive)
REMARK    1  A    between atoms: C_6  and  O_7
REMARK    2  A    between atoms: C_18  and  C_25
REMARK                            x       y       z     vdW  Elec       q    Type
REMARK                         _______ _______ _______ _____ _____    ______ ____
ROOT
ATOM      1  C   UNL     1       1.161   3.168   0.006  0.00  0.00    +0.049 A 
ATOM      2  C   UNL     1      -0.044   3.840   0.015  0.00  0.00    +0.050 A 
ATOM      3  C   UNL     1      -1.244   3.135   0.020  0.00  0.00    +0.136 A 
ATOM      4  C   UNL     1      -1.221   1.747   0.017  0.00  0.00    +0.007 A 
ATOM      5  C   UNL     1      -0.013   1.076   0.008  0.00  0.00    +0.053 A 
ATOM      6  C   UNL     1       1.180   1.782   0.000  0.00  0.00    +0.117 A 
ATOM      7  C   UNL     1      -2.500   0.966   0.058  0.00  0.00    +0.077 C 
ATOM      8  C   UNL     1      -2.430  -0.353  -0.611  0.00  0.00    +0.033 A 
ATOM      9  C   UNL     1      -3.424  -1.022  -1.240  0.00  0.00    +0.088 A 
ATOM     10  N   UNL     1      -3.084  -2.249  -1.760  0.00  0.00    -0.311 N 
ATOM     11  H   UNL     1      -3.755  -2.780  -2.218  0.00  0.00    +0.170 HD
ATOM     12  C   UNL     1      -1.827  -2.720  -1.637  0.00  0.00    +0.289 A 
ATOM     13  O   UNL     1      -1.363  -3.773  -2.038  0.00  0.00    -0.260 OA
ATOM     14  S   UNL     1      -1.039  -1.445  -0.764  0.00  0.00    -0.030 S 
ATOM     15  S   UNL     1      -5.058  -0.324  -1.370  0.00  0.00    -0.091 S 
ATOM     16  C   UNL     1      -4.966   1.113  -0.255  0.00  0.00    +0.180 C 
ATOM     17  C   UNL     1      -3.635   1.816  -0.513  0.00  0.00    +0.135 C 
ATOM     18  C   UNL     1      -3.565   3.167   0.155  0.00  0.00    +0.318 C 
ATOM     19  O   UNL     1      -4.494   3.617   0.783  0.00  0.00    -0.250 OA
ATOM     20  O   UNL     1      -2.406   3.845   0.012  0.00  0.00    -0.425 OA
ENDROOT
BRANCH  16  21
ATOM     21  C   UNL     1      -6.106   2.056  -0.541  0.00  0.00    +0.370 C 
ATOM     22  O   UNL     1      -6.015   2.859  -1.439  0.00  0.00    -0.245 OA
ATOM     23  O   UNL     1      -7.223   2.003   0.201  0.00  0.00    -0.245 OA
ENDBRANCH  16  21
BRANCH   6  24
ATOM     24  O   UNL     1       2.366   1.117  -0.012  0.00  0.00    -0.507 OA
ATOM     25  H   UNL     1       2.701   0.927  -0.899  0.00  0.00    +0.292 HD
ENDBRANCH   6  24
TORSDOF 2
