REMARK  Name = ZINC09184836
REMARK  10 active torsions:
REMARK  status: ('A' for Active; 'I' for Inactive)
REMARK    1  A    between atoms: C_1  and  C_2
REMARK    2  A    between atoms: C_2  and  C_3
REMARK    3  A    between atoms: C_3  and  C_4
REMARK    4  A    between atoms: C_4  and  S_5
REMARK    5  A    between atoms: S_5  and  C_6
REMARK    6  A    between atoms: C_17  and  C_19
REMARK    7  A    between atoms: C_17  and  C_20
REMARK    8  A    between atoms: C_20  and  C_21
REMARK    9  A    between atoms: C_27  and  C_28
REMARK   10  A    between atoms: C_27  and  N_63
REMARK                            x       y       z     vdW  Elec       q    Type
REMARK                         _______ _______ _______ _____ _____    ______ ____
ROOT
ATOM      1  C   UNL     1      -0.893   1.791  -3.960  0.00  0.00    +0.191 A 
ATOM      2  N   UNL     1      -0.605   1.594  -5.241  0.00  0.00    -0.206 NA
ATOM      3  C   UNL     1      -1.391   2.025  -6.213  0.00  0.00    +0.134 A 
ATOM      4  C   UNL     1      -2.581   2.734  -5.883  0.00  0.00    +0.051 A 
ATOM      5  C   UNL     1      -3.587   3.302  -6.778  0.00  0.00    -0.020 A 
ATOM      6  C   UNL     1      -4.634   3.933  -6.205  0.00  0.00    +0.021 A 
ATOM      7  S   UNL     1      -4.348   3.812  -4.462  0.00  0.00    -0.071 S 
ATOM      8  C   UNL     1      -2.820   2.910  -4.505  0.00  0.00    +0.115 A 
ATOM      9  N   UNL     1      -1.988   2.444  -3.594  0.00  0.00    -0.215 NA
ATOM     10  C   UNL     1      -5.776   4.585  -6.922  0.00  0.00    +0.203 C 
ATOM     11  O   UNL     1      -5.740   4.157  -8.292  0.00  0.00    -0.368 OA
ATOM     12  C   UNL     1      -4.445   4.266  -8.890  0.00  0.00    +0.071 C 
ATOM     13  C   UNL     1      -3.502   3.214  -8.300  0.00  0.00    +0.071 C 
ATOM     14  C   UNL     1      -3.881   5.662  -8.619  0.00  0.00    +0.042 C 
ATOM     15  N   UNL     1      -1.058   1.795  -7.535  0.00  0.00    -0.318 N 
ATOM     16  C   UNL     1      -1.036   0.355  -7.830  0.00  0.00    +0.088 C 
ATOM     17  C   UNL     1      -0.743   0.146  -9.317  0.00  0.00    -0.060 C 
ATOM     18  C   UNL     1       0.523   2.209  -9.358  0.00  0.00    -0.060 C 
ATOM     19  C   UNL     1       0.230   2.418  -7.870  0.00  0.00    +0.088 C 
ATOM     20  N   UNL     1       0.564   0.758  -9.636  0.00  0.00    +0.382 N 
ATOM     21  H   UNL     1       1.287   0.326  -9.048  0.00  0.00    -0.082 HD
ENDROOT
BRANCH  12  22
ATOM     22  C   UNL     1      -4.564   4.052 -10.400  0.00  0.00    +0.032 C 
ATOM     23  C   UNL     1      -5.405   5.175 -11.011  0.00  0.00    +0.007 C 
ENDBRANCH  12  22
BRANCH  20  24
ATOM     24  C   UNL     1       0.898   0.525 -11.057  0.00  0.00    -0.082 C 
ATOM     25  C   UNL     1       0.671  -0.951 -11.391  0.00  0.00    -0.017 C 
ENDBRANCH  20  24
BRANCH   1  26
ATOM     26  S   UNL     1       0.202   1.178  -2.723  0.00  0.00    -0.086 S 
BRANCH  26  27
ATOM     27  C   UNL     1      -0.667   1.728  -1.233  0.00  0.00    +0.077 C 
BRANCH  27  28
ATOM     28  C   UNL     1       0.121   1.296   0.005  0.00  0.00    +0.011 C 
BRANCH  28  30
ATOM     29  C   UNL     1       0.175   1.330   2.503  0.00  0.00    +0.004 C 
ATOM     30  C   UNL     1      -0.613   1.761   1.264  0.00  0.00    -0.003 C 
ENDBRANCH  28  30
ENDBRANCH  27  28
ENDBRANCH  26  27
ENDBRANCH   1  26
TORSDOF 6
