REMARK  Name = ZINC41151679
REMARK  7 active torsions:
REMARK  status: ('A' for Active; 'I' for Inactive)
REMARK    1  A    between atoms: C_1  and  C_2
REMARK    2  A    between atoms: C_5  and  S_7
REMARK    3  A    between atoms: S_7  and  N_10
REMARK    4  A    between atoms: N_10  and  C_11
REMARK    5  A    between atoms: C_11  and  C_12
REMARK    6  A    between atoms: C_12  and  C_13
REMARK    7  A    between atoms: C_16  and  C_18
REMARK                            x       y       z     vdW  Elec       q    Type
REMARK                         _______ _______ _______ _____ _____    ______ ____
ROOT
ATOM      1  C   UNL     1       2.266  -4.058  -2.473  0.00  0.00    +0.115 C 
ENDROOT
BRANCH   1   2
ATOM      2  N   UNL     1       1.300  -4.748  -1.614  0.00  0.00    -0.189 NA
ATOM      3  H   UNL     1       0.759  -5.468  -1.974  0.00  0.00    +0.148 HD
BRANCH   2   4
ATOM      4  S   UNL     1       1.134  -4.300  -0.029  0.00  0.00    +0.065 S 
ATOM      5  O   UNL     1       2.445  -4.240   0.516  0.00  0.00    -0.153 OA
ATOM      6  O   UNL     1       0.117  -5.126   0.522  0.00  0.00    -0.153 OA
BRANCH   4  11
ATOM      7  C   UNL     1      -0.018   1.503   0.010  0.00  0.00    +0.051 C 
ATOM      8  C   UNL     1       0.002  -0.004   0.002  0.00  0.00    -0.011 A 
ATOM      9  C   UNL     1      -1.039  -0.872   0.002  0.00  0.00    +0.013 A 
ATOM     10  C   UNL     1      -0.780  -2.230  -0.007  0.00  0.00    +0.036 A 
ATOM     11  C   UNL     1       0.507  -2.653  -0.016  0.00  0.00    +0.143 A 
ATOM     12  S   UNL     1       1.404  -1.109  -0.018  0.00  0.00    -0.074 S 
ENDBRANCH   4  11
ENDBRANCH   2   4
ENDBRANCH   1   2
BRANCH   1  13
ATOM     13  C   UNL     1       2.497  -4.879  -3.743  0.00  0.00    +0.114 C 
BRANCH  13  14
ATOM     14  C   UNL     1       3.490  -4.169  -4.627  0.00  0.00    +0.219 A 
ATOM     15  N   UNL     1       4.784  -4.323  -4.607  0.00  0.00    -0.112 NA
ATOM     16  N   UNL     1       5.322  -3.563  -5.495  0.00  0.00    -0.107 NA
ATOM     17  C   UNL     1       4.380  -2.890  -6.118  0.00  0.00    +0.255 A 
ATOM     18  O   UNL     1       3.200  -3.266  -5.581  0.00  0.00    -0.420 OA
BRANCH  17  19
ATOM     19  C   UNL     1       4.574  -1.913  -7.199  0.00  0.00    +0.076 A 
ATOM     20  C   UNL     1       5.749  -1.495  -7.795  0.00  0.00    +0.021 A 
ATOM     21  C   UNL     1       5.677  -0.559  -8.801  0.00  0.00    +0.008 A 
ATOM     22  C   UNL     1       4.462  -0.078  -9.175  0.00  0.00    +0.046 A 
ATOM     23  S   UNL     1       3.353  -0.963  -8.091  0.00  0.00    -0.092 S 
ENDBRANCH  17  19
ENDBRANCH  13  14
ENDBRANCH   1  13
TORSDOF 6
