REMARK  Name = ZINC35095746
REMARK  11 active torsions:
REMARK  status: ('A' for Active; 'I' for Inactive)
REMARK    1  A    between atoms: C_1  and  C_2
REMARK    2  A    between atoms: C_2  and  N_3
REMARK    3  A    between atoms: N_3  and  C_4
REMARK    4  A    between atoms: N_3  and  C_22
REMARK    5  A    between atoms: C_4  and  C_5
REMARK    6  A    between atoms: C_5  and  N_6
REMARK    7  A    between atoms: N_9  and  S_12
REMARK    8  A    between atoms: S_12  and  C_15
REMARK    9  A    between atoms: C_22  and  C_23
REMARK   10  A    between atoms: C_31  and  C_32
REMARK   11  A    between atoms: C_31  and  C_33
REMARK                            x       y       z     vdW  Elec       q    Type
REMARK                         _______ _______ _______ _____ _____    ______ ____
ROOT
ATOM      1  C   UNL     1      -3.005  -4.616   1.548  0.00  0.00    +0.066 C 
ENDROOT
BRANCH   1   2
ATOM      2  N   UNL     1      -3.799  -5.841   1.706  0.00  0.00    -0.302 NA
ATOM      3  C   UNL     1      -5.225  -5.527   1.869  0.00  0.00    +0.101 C 
ATOM      4  C   UNL     1      -6.037  -6.826   1.849  0.00  0.00    +0.125 C 
ATOM      5  N   UNL     1      -5.482  -7.739   2.860  0.00  0.00    -0.174 NA
ATOM      6  C   UNL     1      -4.034  -7.996   2.845  0.00  0.00    +0.125 C 
ATOM      7  C   UNL     1      -3.301  -6.651   2.826  0.00  0.00    +0.101 C 
BRANCH   5   8
ATOM      8  S   UNL     1      -6.462  -8.459   3.984  0.00  0.00    +0.061 S 
ATOM      9  O   UNL     1      -5.635  -8.787   5.093  0.00  0.00    -0.153 OA
ATOM     10  O   UNL     1      -7.611  -7.633   4.109  0.00  0.00    -0.153 OA
BRANCH   8  11
ATOM     11  C   UNL     1      -7.010  -9.985   3.296  0.00  0.00    +0.106 A 
ATOM     12  C   UNL     1      -8.173 -10.028   2.549  0.00  0.00    +0.029 A 
ATOM     13  C   UNL     1      -8.603 -11.225   2.008  0.00  0.00    +0.017 A 
ATOM     14  C   UNL     1      -7.871 -12.380   2.215  0.00  0.00    +0.018 A 
ATOM     15  C   UNL     1      -6.708 -12.337   2.963  0.00  0.00    +0.017 A 
ATOM     16  C   UNL     1      -6.276 -11.139   3.499  0.00  0.00    +0.029 A 
ATOM     17 BR   UNL     1      -8.460 -14.018   1.476  0.00  0.00    -0.050 Br
ENDBRANCH   8  11
ENDBRANCH   5   8
ENDBRANCH   1   2
BRANCH   1  18
ATOM     18  C   UNL     1      -3.385  -3.927   0.235  0.00  0.00    -0.063 C 
BRANCH  18  19
ATOM     19  N   UNL     1      -2.591  -2.702   0.077  0.00  0.00    +0.383 N 
ATOM     20  H   UNL     1      -2.712  -2.115   0.889  0.00  0.00    -0.081 HD
BRANCH  19  22
ATOM     21  C   UNL     1      -0.332  -1.776  -0.113  0.00  0.00    -0.017 C 
ATOM     22  C   UNL     1      -1.172  -3.054  -0.067  0.00  0.00    -0.082 C 
ENDBRANCH  19  22
BRANCH  19  23
ATOM     23  C   UNL     1      -3.039  -1.979  -1.121  0.00  0.00    -0.047 C 
BRANCH  23  24
ATOM     24  C   UNL     1      -4.456  -1.507  -0.921  0.00  0.00    -0.086 C 
ATOM     25  C   UNL     1      -5.476  -2.190  -1.389  0.00  0.00    -0.029 C 
ATOM     26  C   UNL     1      -6.879  -1.678  -1.175  0.00  0.00    +0.031 C 
ATOM     27  C   UNL     1      -6.840  -0.401  -0.325  0.00  0.00    -0.000 C 
ATOM     28  C   UNL     1      -5.895  -0.518   0.884  0.00  0.00    +0.012 C 
ATOM     29  C   UNL     1      -4.762  -0.225  -0.166  0.00  0.00    +0.019 C 
ATOM     30  C   UNL     1      -5.830   0.611  -0.903  0.00  0.00    -0.025 C 
ATOM     31  C   UNL     1      -5.992   2.030  -0.354  0.00  0.00    +0.012 C 
ATOM     32  C   UNL     1      -5.712   0.567  -2.428  0.00  0.00    +0.012 C 
ENDBRANCH  23  24
ENDBRANCH  19  23
ENDBRANCH  18  19
ENDBRANCH   1  18
TORSDOF 8
