REMARK  Name = ZINC61374285
REMARK  4 active torsions:
REMARK  status: ('A' for Active; 'I' for Inactive)
REMARK    1  A    between atoms: C_3  and  N_20
REMARK    2  A    between atoms: C_6  and  C_7
REMARK    3  A    between atoms: N_9  and  C_10
REMARK    4  A    between atoms: N_20  and  N_21
REMARK                            x       y       z     vdW  Elec       q    Type
REMARK                         _______ _______ _______ _____ _____    ______ ____
ROOT
ATOM      1  C   UNL     1      -1.264  -0.760   0.011  0.00  0.00    +0.245 C 
ATOM      2  O   UNL     1      -2.326  -0.168   0.024  0.00  0.00    -0.270 OA
ATOM      3  N   UNL     1      -1.244  -2.108   0.003  0.00  0.00    -0.304 N 
ATOM      4  H   UNL     1      -0.397  -2.581  -0.008  0.00  0.00    +0.150 HD
ENDROOT
BRANCH   3   5
ATOM      5  C   UNL     1      -2.502  -2.859   0.012  0.00  0.00    +0.104 C 
ATOM      6  C   UNL     1      -2.265  -4.249   0.605  0.00  0.00    +0.027 C 
ATOM      7  C   UNL     1      -1.368  -5.070  -0.326  0.00  0.00    +0.007 C 
ATOM      8  C   UNL     1      -2.164  -5.425  -1.591  0.00  0.00    +0.043 C 
ATOM      9  C   UNL     1      -2.836  -4.186  -2.086  0.00  0.00    -0.005 A 
ATOM     10  C   UNL     1      -3.016  -3.012  -1.417  0.00  0.00    -0.017 A 
ATOM     11  C   UNL     1      -3.679  -1.994  -2.103  0.00  0.00    +0.013 A 
ATOM     12  C   UNL     1      -4.109  -2.199  -3.368  0.00  0.00    +0.046 A 
ATOM     13  S   UNL     1      -3.585  -3.889  -3.665  0.00  0.00    -0.101 S 
ENDBRANCH   3   5
BRANCH   1  19
ATOM     14  C   UNL     1      -0.017   1.394   0.010  0.00  0.00    +0.015 A 
ATOM     15  C   UNL     1       1.166   2.096   0.002  0.00  0.00    +0.025 A 
ATOM     16  C   UNL     1       2.381   1.417  -0.013  0.00  0.00    +0.041 A 
ATOM     17  C   UNL     1       2.403   0.025  -0.021  0.00  0.00    +0.025 A 
ATOM     18  C   UNL     1       1.224  -0.684  -0.014  0.00  0.00    +0.015 A 
ATOM     19  C   UNL     1       0.002  -0.004   0.002  0.00  0.00    +0.037 A 
BRANCH  16  20
ATOM     20  N   UNL     1       3.575   2.130  -0.021  0.00  0.00    -0.283 N 
ATOM     21  H   UNL     1       3.561   3.100  -0.016  0.00  0.00    +0.166 HD
BRANCH  20  22
ATOM     22  N   UNL     1       4.768   1.464  -0.036  0.00  0.00    -0.257 NA
ATOM     23  H   UNL     1       4.820   0.833  -0.821  0.00  0.00    +0.140 HD
ATOM     24  H   UNL     1       5.542   2.111  -0.040  0.00  0.00    +0.140 HD
ENDBRANCH  20  22
ENDBRANCH  16  20
ENDBRANCH   1  19
TORSDOF 4
