REMARK  Name = ZINC12659910
REMARK  11 active torsions:
REMARK  status: ('A' for Active; 'I' for Inactive)
REMARK    1  A    between atoms: C_1  and  C_2
REMARK    2  A    between atoms: C_2  and  C_39
REMARK    3  A    between atoms: C_4  and  C_8
REMARK    4  A    between atoms: C_4  and  C_31
REMARK    5  A    between atoms: C_8  and  C_9
REMARK    6  A    between atoms: C_9  and  N_80
REMARK    7  A    between atoms: C_10  and  C_11
REMARK    8  A    between atoms: C_10  and  N_80
REMARK    9  A    between atoms: C_23  and  C_30
REMARK   10  A    between atoms: C_34  and  O_37
REMARK   11  A    between atoms: O_37  and  C_38
REMARK                            x       y       z     vdW  Elec       q    Type
REMARK                         _______ _______ _______ _____ _____    ______ ____
ROOT
ATOM      1  N   UNL     1      -1.073   3.849   6.615  0.00  0.00    +0.380 N 
ATOM      2  H   UNL     1      -0.098   4.166   6.671  0.00  0.00    -0.086 HD
ATOM      3  H   UNL     1      -1.102   2.823   6.639  0.00  0.00    -0.086 HD
ENDROOT
BRANCH   1   4
ATOM      4  C   UNL     1      -1.667   4.324   5.351  0.00  0.00    -0.082 C 
BRANCH   4   5
ATOM      5  C   UNL     1      -0.868   3.755   4.177  0.00  0.00    -0.007 C 
BRANCH   5   9
ATOM      6  C   UNL     1       0.181   7.817   2.974  0.00  0.00    +0.041 C 
ATOM      7  C   UNL     1       0.106   6.289   3.002  0.00  0.00    +0.065 C 
ATOM      8  C   UNL     1      -1.356   5.847   2.898  0.00  0.00    +0.046 C 
ATOM      9  C   UNL     1      -1.419   4.317   2.865  0.00  0.00    -0.001 C 
ATOM     10  C   UNL     1      -0.573   3.808   1.694  0.00  0.00    +0.039 C 
ATOM     11  C   UNL     1       0.859   4.328   1.845  0.00  0.00    +0.161 C 
ATOM     12  O   UNL     1       0.843   5.756   1.900  0.00  0.00    -0.374 OA
ATOM     13  C   UNL     1       0.703   5.772   4.312  0.00  0.00    +0.041 C 
BRANCH   9  14
ATOM     14  C   UNL     1      -2.848   3.874   2.687  0.00  0.00    -0.041 A 
ATOM     15  C   UNL     1      -3.844   4.815   2.500  0.00  0.00    +0.008 A 
ATOM     16  C   UNL     1      -5.154   4.412   2.331  0.00  0.00    +0.046 A 
ATOM     17  C   UNL     1      -5.472   3.062   2.361  0.00  0.00    +0.120 A 
ATOM     18  C   UNL     1      -4.472   2.120   2.554  0.00  0.00    +0.046 A 
ATOM     19  C   UNL     1      -3.162   2.528   2.716  0.00  0.00    +0.008 A 
BRANCH  17  20
ATOM     20  O   UNL     1      -6.761   2.662   2.201  0.00  0.00    -0.495 OA
ATOM     21  C   UNL     1      -7.738   3.687   2.006  0.00  0.00    +0.277 C 
ENDBRANCH  17  20
ENDBRANCH   9  14
ENDBRANCH   5   9
ENDBRANCH   4   5
ENDBRANCH   1   4
BRANCH   1  22
ATOM     22  C   UNL     1      -1.825   4.383   7.767  0.00  0.00    -0.068 C 
BRANCH  22  23
ATOM     23  C   UNL     1      -1.188   3.876   9.061  0.00  0.00    +0.087 C 
ATOM     24  C   UNL     1      -1.921   4.472  10.301  0.00  0.00    +0.042 C 
ATOM     25  C   UNL     1      -3.343   4.798   9.843  0.00  0.00    +0.016 C 
ATOM     26  C   UNL     1      -4.296   4.924  11.019  0.00  0.00    +0.021 C 
ATOM     27  C   UNL     1      -3.841   6.009  11.965  0.00  0.00    -0.073 C 
ATOM     28  C   UNL     1      -2.831   6.788  11.665  0.00  0.00    +0.008 C 
ATOM     29  C   UNL     1      -4.589   6.168  13.272  0.00  0.00    +0.030 C 
ATOM     30  C   UNL     1      -4.683   4.801  13.956  0.00  0.00    +0.005 C 
ATOM     31  C   UNL     1      -5.287   3.779  12.990  0.00  0.00    +0.007 C 
ATOM     32  C   UNL     1      -4.345   3.598  11.791  0.00  0.00    -0.022 C 
ATOM     33  C   UNL     1      -2.940   3.305  12.324  0.00  0.00    +0.052 C 
ATOM     34  C   UNL     1      -1.919   3.232  11.219  0.00  0.00    +0.181 C 
ATOM     35  O   UNL     1      -2.133   2.127  10.297  0.00  0.00    -0.461 OA
ATOM     36  C   UNL     1      -1.385   2.377   9.199  0.00  0.00    +0.309 C 
ATOM     37  O   UNL     1      -0.944   1.541   8.446  0.00  0.00    -0.251 OA
ATOM     38  C   UNL     1      -4.836   2.467  10.886  0.00  0.00    +0.012 C 
ENDBRANCH  22  23
ENDBRANCH   1  22
TORSDOF 7
