REMARK  Name = ZINC12064233
REMARK  10 active torsions:
REMARK  status: ('A' for Active; 'I' for Inactive)
REMARK    1  A    between atoms: C_1  and  N_2
REMARK    2  A    between atoms: C_3  and  C_5
REMARK    3  A    between atoms: C_9  and  N_10
REMARK    4  A    between atoms: C_11  and  C_13
REMARK    5  A    between atoms: C_13  and  O_14
REMARK    6  A    between atoms: O_14  and  C_15
REMARK    7  A    between atoms: C_15  and  C_16
REMARK    8  A    between atoms: N_18  and  C_19
REMARK    9  A    between atoms: C_20  and  C_28
REMARK   10  A    between atoms: N_30  and  C_31
REMARK                            x       y       z     vdW  Elec       q    Type
REMARK                         _______ _______ _______ _____ _____    ______ ____
ROOT
ATOM      1  O   UNL     1      -2.403   1.001   0.019  0.00  0.00    -0.361 OA
ENDROOT
BRANCH   1   2
ATOM      2  C   UNL     1      -1.330   1.944   0.019  0.00  0.00    +0.256 C 
BRANCH   2   4
ATOM      3  N   UNL     1       1.143   1.898   0.001  0.00  0.00    -0.277 N 
ATOM      4  C   UNL     1      -0.014   1.209   0.009  0.00  0.00    +0.243 C 
ATOM      5  O   UNL     1       0.002  -0.004   0.002  0.00  0.00    -0.273 OA
ATOM      6  H   UNL     1       1.130   2.868   0.007  0.00  0.00    +0.155 HD
BRANCH   3  11
ATOM      7  C   UNL     1       3.637   1.749  -0.029  0.00  0.00    +0.069 A 
ATOM      8  C   UNL     1       4.748   0.813  -0.038  0.00  0.00    -0.023 A 
ATOM      9  C   UNL     1       4.401  -0.492  -0.043  0.00  0.00    -0.004 A 
ATOM     10  S   UNL     1       2.630  -0.489  -0.026  0.00  0.00    -0.077 S 
ATOM     11  C   UNL     1       2.354   1.221  -0.014  0.00  0.00    +0.084 A 
ATOM     12  C   UNL     1       5.323  -1.672  -0.059  0.00  0.00    +0.043 C 
ATOM     13  C   UNL     1       6.726  -1.184  -0.448  0.00  0.00    +0.005 C 
ATOM     14  C   UNL     1       7.070   0.049   0.393  0.00  0.00    +0.005 C 
ATOM     15  C   UNL     1       6.212   1.236  -0.049  0.00  0.00    +0.037 C 
BRANCH   7  18
ATOM     16  C   UNL     1       4.178   5.312  -1.200  0.00  0.00    +0.128 C 
ATOM     17  N   UNL     1       3.952   3.865  -1.198  0.00  0.00    -0.314 N 
ATOM     18  C   UNL     1       3.863   3.198  -0.030  0.00  0.00    +0.246 C 
ATOM     19  O   UNL     1       3.970   3.799   1.023  0.00  0.00    -0.270 OA
ATOM     20  H   UNL     1       3.867   3.386  -2.038  0.00  0.00    +0.149 HD
ENDBRANCH   7  18
ENDBRANCH   3  11
ENDBRANCH   2   4
ENDBRANCH   1   2
BRANCH   1  21
ATOM     21  C   UNL     1      -3.701   1.598   0.028  0.00  0.00    +0.256 C 
BRANCH  21  22
ATOM     22  C   UNL     1      -4.751   0.517   0.027  0.00  0.00    +0.243 C 
ATOM     23  O   UNL     1      -4.420  -0.650   0.019  0.00  0.00    -0.273 OA
ATOM     24  N   UNL     1      -6.058   0.847   0.035  0.00  0.00    -0.277 N 
ATOM     25  H   UNL     1      -6.323   1.780   0.042  0.00  0.00    +0.155 HD
BRANCH  24  26
ATOM     26  C   UNL     1      -7.024  -0.148   0.035  0.00  0.00    +0.084 A 
ATOM     27  C   UNL     1      -8.405  -0.009   0.048  0.00  0.00    +0.069 A 
ATOM     28  C   UNL     1      -9.202  -1.224   0.038  0.00  0.00    -0.023 A 
ATOM     29  C   UNL     1      -8.496  -2.375   0.030  0.00  0.00    -0.004 A 
ATOM     30  S   UNL     1      -6.800  -1.866   0.025  0.00  0.00    -0.077 S 
ATOM     31  C   UNL     1      -9.042  -3.770   0.026  0.00  0.00    +0.043 C 
ATOM     32  C   UNL     1     -10.527  -3.708   0.411  0.00  0.00    +0.005 C 
ATOM     33  C   UNL     1     -11.207  -2.614  -0.417  0.00  0.00    +0.005 C 
ATOM     34  C   UNL     1     -10.726  -1.238   0.045  0.00  0.00    +0.037 C 
BRANCH  27  35
ATOM     35  C   UNL     1      -9.036   1.315   0.065  0.00  0.00    +0.246 C 
ATOM     36  O   UNL     1      -9.307   1.873  -0.982  0.00  0.00    -0.270 OA
ATOM     37  N   UNL     1      -9.315   1.912   1.240  0.00  0.00    -0.314 N 
ATOM     38  C   UNL     1      -9.945   3.235   1.257  0.00  0.00    +0.128 C 
ATOM     39  H   UNL     1      -9.099   1.467   2.074  0.00  0.00    +0.149 HD
ENDBRANCH  27  35
ENDBRANCH  24  26
ENDBRANCH  21  22
ENDBRANCH   1  21
TORSDOF 8
