REMARK  Name = ZINC13775261
REMARK  12 active torsions:
REMARK  status: ('A' for Active; 'I' for Inactive)
REMARK    1  A    between atoms: C_1  and  C_2
REMARK    2  A    between atoms: C_2  and  O_3
REMARK    3  A    between atoms: O_3  and  C_4
REMARK    4  A    between atoms: C_4  and  C_5
REMARK    5  A    between atoms: C_5  and  S_6
REMARK    6  A    between atoms: S_6  and  C_7
REMARK    7  A    between atoms: C_10  and  O_36
REMARK    8  A    between atoms: N_11  and  C_12
REMARK    9  A    between atoms: C_13  and  C_27
REMARK   10  A    between atoms: N_29  and  C_30
REMARK   11  A    between atoms: O_36  and  C_37
REMARK   12  A    between atoms: C_37  and  C_38
REMARK                            x       y       z     vdW  Elec       q    Type
REMARK                         _______ _______ _______ _____ _____    ______ ____
ROOT
ATOM      1  C   UNL     1       2.739   3.462  -0.735  0.00  0.00    +0.069 C 
ATOM      2  C   UNL     1       3.872   2.800  -0.388  0.00  0.00    +0.046 C 
ATOM      3  C   UNL     1       3.836   1.332  -0.054  0.00  0.00    +0.007 C 
ATOM      4  C   UNL     1       5.033   0.989   0.839  0.00  0.00    +0.012 C 
ATOM      5  C   UNL     1       5.004  -0.503   1.177  0.00  0.00    +0.001 C 
ATOM      6  C   UNL     1       5.085  -1.320  -0.113  0.00  0.00    +0.000 C 
ATOM      7  C   UNL     1       3.894  -0.976  -1.010  0.00  0.00    +0.001 C 
ATOM      8  C   UNL     1       3.922   0.516  -1.347  0.00  0.00    +0.012 C 
ATOM      9  C   UNL     1       2.542   0.981   0.680  0.00  0.00    +0.047 C 
ATOM     10  C   UNL     1       1.354   1.516  -0.073  0.00  0.00    -0.037 A 
ATOM     11  C   UNL     1       1.448   2.746  -0.729  0.00  0.00    +0.003 A 
ATOM     12  C   UNL     1       0.337   3.271  -1.388  0.00  0.00    +0.010 A 
ATOM     13  C   UNL     1      -0.847   2.561  -1.401  0.00  0.00    +0.001 A 
ATOM     14  C   UNL     1      -0.928   1.333  -0.769  0.00  0.00    +0.000 A 
ATOM     15  C   UNL     1       0.168   0.814  -0.101  0.00  0.00    +0.004 A 
ENDROOT
BRANCH   1  20
ATOM     16  C   UNL     1       2.664   5.870  -0.243  0.00  0.00    +0.199 A 
ATOM     17  N   UNL     1       2.776   6.966  -0.954  0.00  0.00    -0.119 NA
ATOM     18  N   UNL     1       2.971   6.599  -2.291  0.00  0.00    -0.091 NA
ATOM     19  C   UNL     1       2.979   5.293  -2.358  0.00  0.00    +0.324 A 
ATOM     20  N   UNL     1       2.793   4.802  -1.093  0.00  0.00    -0.239 N 
BRANCH  16  21
ATOM     21  S   UNL     1       2.401   5.785   1.497  0.00  0.00    -0.083 S 
BRANCH  21  22
ATOM     22  C   UNL     1       2.341   7.550   1.893  0.00  0.00    +0.105 C 
BRANCH  22  23
ATOM     23  C   UNL     1       2.113   7.728   3.395  0.00  0.00    +0.171 C 
BRANCH  23  24
ATOM     24  O   UNL     1       2.065   9.122   3.708  0.00  0.00    -0.379 OA
BRANCH  24  26
ATOM     25  C   UNL     1       1.822  10.914   5.311  0.00  0.00    +0.034 C 
ATOM     26  C   UNL     1       1.855   9.400   5.093  0.00  0.00    +0.156 C 
ENDBRANCH  24  26
ENDBRANCH  23  24
ENDBRANCH  22  23
ENDBRANCH  21  22
ENDBRANCH  16  21
BRANCH  19  27
ATOM     27  O   UNL     1       3.144   4.553  -3.483  0.00  0.00    -0.463 OA
BRANCH  27  28
ATOM     28  C   UNL     1       3.325   5.267  -4.708  0.00  0.00    +0.229 C 
ATOM     29  C   UNL     1       3.493   4.272  -5.858  0.00  0.00    +0.048 C 
ENDBRANCH  27  28
ENDBRANCH  19  27
ENDBRANCH   1  20
BRANCH   2  30
ATOM     30  C   UNL     1       5.100   3.496  -0.341  0.00  0.00    +0.247 C 
ATOM     31  O   UNL     1       5.886   3.410  -1.268  0.00  0.00    -0.270 OA
ATOM     32  N   UNL     1       5.403   4.256   0.731  0.00  0.00    -0.282 N 
ATOM     33  H   UNL     1       4.815   4.263   1.502  0.00  0.00    +0.155 HD
BRANCH  32  34
ATOM     34  C   UNL     1       6.566   5.033   0.731  0.00  0.00    +0.034 A 
ATOM     35  C   UNL     1       7.033   5.585  -0.455  0.00  0.00    +0.023 A 
ATOM     36  C   UNL     1       8.179   6.357  -0.451  0.00  0.00    +0.002 A 
ATOM     37  C   UNL     1       8.866   6.571   0.730  0.00  0.00    +0.000 A 
ATOM     38  C   UNL     1       8.406   6.018   1.911  0.00  0.00    +0.002 A 
ATOM     39  C   UNL     1       7.258   5.250   1.915  0.00  0.00    +0.023 A 
ENDBRANCH  32  34
ENDBRANCH   2  30
TORSDOF 10
