REMARK  Name = ZINC58918388
REMARK  10 active torsions:
REMARK  status: ('A' for Active; 'I' for Inactive)
REMARK    1  A    between atoms: C_1  and  C_2
REMARK    2  A    between atoms: C_2  and  O_3
REMARK    3  A    between atoms: O_3  and  C_4
REMARK    4  A    between atoms: C_7  and  N_10
REMARK    5  A    between atoms: N_10  and  C_11
REMARK    6  A    between atoms: N_10  and  S_24
REMARK    7  A    between atoms: C_11  and  C_12
REMARK    8  A    between atoms: N_14  and  N_15
REMARK    9  A    between atoms: C_16  and  C_17
REMARK   10  A    between atoms: S_24  and  C_27
REMARK                            x       y       z     vdW  Elec       q    Type
REMARK                         _______ _______ _______ _____ _____    ______ ____
ROOT
ATOM      1  N   UNL     1       1.102  -5.937  -1.834  0.00  0.00    -0.194 N 
ENDROOT
BRANCH   1   5
ATOM      2  C   UNL     1       1.249  -1.919  -0.736  0.00  0.00    +0.121 A 
ATOM      3  C   UNL     1       1.333  -2.906   0.235  0.00  0.00    +0.047 A 
ATOM      4  C   UNL     1       1.284  -4.237  -0.128  0.00  0.00    +0.028 A 
ATOM      5  C   UNL     1       1.151  -4.588  -1.465  0.00  0.00    +0.052 A 
ATOM      6  C   UNL     1       1.067  -3.599  -2.436  0.00  0.00    +0.028 A 
ATOM      7  C   UNL     1       1.110  -2.267  -2.071  0.00  0.00    +0.047 A 
BRANCH   2   8
ATOM      8  O   UNL     1       1.297  -0.607  -0.377  0.00  0.00    -0.492 OA
BRANCH   8  10
ATOM      9  C   UNL     1       1.476   1.195   1.223  0.00  0.00    +0.048 C 
ATOM     10  C   UNL     1       1.441  -0.320   1.015  0.00  0.00    +0.225 C 
ENDBRANCH   8  10
ENDBRANCH   2   8
ENDBRANCH   1   5
BRANCH   1  11
ATOM     11  S   UNL     1       2.252  -6.560  -2.849  0.00  0.00    +0.075 S 
ATOM     12  O   UNL     1       1.681  -7.714  -3.451  0.00  0.00    -0.150 OA
ATOM     13  O   UNL     1       2.753  -5.471  -3.613  0.00  0.00    -0.150 OA
BRANCH  11  14
ATOM     14  C   UNL     1       3.584  -7.124  -1.843  0.00  0.00    +0.109 A 
ATOM     15  C   UNL     1       4.619  -6.266  -1.522  0.00  0.00    +0.029 A 
ATOM     16  C   UNL     1       5.664  -6.708  -0.732  0.00  0.00    +0.002 A 
ATOM     17  C   UNL     1       5.674  -8.008  -0.264  0.00  0.00    +0.000 A 
ATOM     18  C   UNL     1       4.639  -8.867  -0.585  0.00  0.00    +0.002 A 
ATOM     19  C   UNL     1       3.592  -8.423  -1.370  0.00  0.00    +0.029 A 
ENDBRANCH  11  14
ENDBRANCH   1  11
BRANCH   1  20
ATOM     20  C   UNL     1       0.033  -6.798  -1.323  0.00  0.00    +0.228 C 
BRANCH  20  21
ATOM     21  C   UNL     1      -1.185  -6.662  -2.201  0.00  0.00    +0.251 C 
ATOM     22  O   UNL     1      -1.161  -5.920  -3.160  0.00  0.00    -0.272 OA
ATOM     23  N   UNL     1      -2.299  -7.366  -1.920  0.00  0.00    -0.206 N 
ATOM     24  H   UNL     1      -2.318  -7.960  -1.153  0.00  0.00    +0.177 HD
BRANCH  23  25
ATOM     25  N   UNL     1      -3.431  -7.241  -2.737  0.00  0.00    -0.188 NA
ATOM     26  C   UNL     1      -4.504  -7.919  -2.467  0.00  0.00    +0.139 C 
BRANCH  26  27
ATOM     27  C   UNL     1      -5.695  -7.787  -3.326  0.00  0.00    +0.008 A 
ATOM     28  C   UNL     1      -6.854  -8.510  -3.035  0.00  0.00    +0.010 A 
ATOM     29  C   UNL     1      -7.965  -8.381  -3.843  0.00  0.00    +0.001 A 
ATOM     30  C   UNL     1      -7.933  -7.537  -4.939  0.00  0.00    +0.001 A 
ATOM     31  C   UNL     1      -6.790  -6.818  -5.234  0.00  0.00    +0.016 A 
ATOM     32  C   UNL     1      -5.672  -6.932  -4.432  0.00  0.00    +0.027 A 
ATOM     33 BR   UNL     1      -4.112  -5.941  -4.832  0.00  0.00    -0.050 Br
ENDBRANCH  26  27
ENDBRANCH  23  25
ENDBRANCH  20  21
ENDBRANCH   1  20
TORSDOF 9
