REMARK  Name = ZINC04273813
REMARK  7 active torsions:
REMARK  status: ('A' for Active; 'I' for Inactive)
REMARK    1  A    between atoms: C_1  and  C_2
REMARK    2  A    between atoms: C_5  and  N_8
REMARK    3  A    between atoms: C_11  and  S_15
REMARK    4  A    between atoms: S_15  and  C_16
REMARK    5  A    between atoms: C_16  and  C_17
REMARK    6  A    between atoms: C_19  and  C_24
REMARK    7  A    between atoms: C_22  and  C_23
REMARK                            x       y       z     vdW  Elec       q    Type
REMARK                         _______ _______ _______ _____ _____    ______ ____
ROOT
ATOM      1  N   UNL     1       3.606  -0.492  -0.036  0.00  0.00    -0.194 N 
ATOM      2  C   UNL     1       2.300  -0.078  -0.021  0.00  0.00    +0.188 A 
ATOM      3  C   UNL     1       2.338   1.327  -0.013  0.00  0.00    +0.164 A 
ATOM      4  C   UNL     1       1.111   2.021   0.002  0.00  0.00    +0.130 A 
ATOM      5  N   UNL     1      -0.016   1.316   0.009  0.00  0.00    -0.227 NA
ATOM      6  C   UNL     1       0.002  -0.004   0.002  0.00  0.00    +0.224 A 
ATOM      7  N   UNL     1       1.122  -0.695  -0.013  0.00  0.00    -0.214 NA
ATOM      8  N   UNL     1       3.627   1.704  -0.024  0.00  0.00    -0.125 NA
ATOM      9  N   UNL     1       4.393   0.669  -0.037  0.00  0.00    -0.058 NA
ENDROOT
BRANCH   1  14
ATOM     10  C   UNL     1       5.466  -5.853  -0.083  0.00  0.00    +0.044 C 
ATOM     11  C   UNL     1       4.972  -4.429  -0.070  0.00  0.00    -0.050 A 
ATOM     12  C   UNL     1       5.667  -3.452  -0.759  0.00  0.00    +0.005 A 
ATOM     13  C   UNL     1       5.216  -2.146  -0.750  0.00  0.00    +0.028 A 
ATOM     14  C   UNL     1       4.065  -1.816  -0.047  0.00  0.00    +0.069 A 
ATOM     15  C   UNL     1       3.373  -2.798   0.648  0.00  0.00    +0.028 A 
ATOM     16  C   UNL     1       3.826  -4.103   0.630  0.00  0.00    +0.005 A 
ENDBRANCH   1  14
BRANCH   4  17
ATOM     17  S   UNL     1       1.072   3.783   0.012  0.00  0.00    -0.099 S 
BRANCH  17  18
ATOM     18  C   UNL     1      -0.717   4.058   0.030  0.00  0.00    +0.111 C 
BRANCH  18  19
ATOM     19  C   UNL     1      -0.998   5.538   0.040  0.00  0.00    -0.034 A 
ATOM     20  C   UNL     1      -1.138   6.223  -1.153  0.00  0.00    +0.008 A 
ATOM     21  C   UNL     1      -1.396   7.581  -1.144  0.00  0.00    -0.050 A 
ATOM     22  C   UNL     1      -1.514   8.254   0.058  0.00  0.00    +0.003 A 
ATOM     23  C   UNL     1      -1.374   7.569   1.251  0.00  0.00    +0.004 A 
ATOM     24  C   UNL     1      -1.121   6.210   1.241  0.00  0.00    -0.046 A 
ATOM     25  C   UNL     1      -0.975   5.462   2.541  0.00  0.00    +0.044 C 
ATOM     26  C   UNL     1      -1.549   8.328  -2.444  0.00  0.00    +0.044 C 
ENDBRANCH  18  19
ENDBRANCH  17  18
ENDBRANCH   4  17
TORSDOF 4
