REMARK  Name = ZINC22738490
REMARK  11 active torsions:
REMARK  status: ('A' for Active; 'I' for Inactive)
REMARK    1  A    between atoms: C_1  and  C_2
REMARK    2  A    between atoms: C_9  and  N_17
REMARK    3  A    between atoms: C_10  and  C_11
REMARK    4  A    between atoms: C_11  and  O_13
REMARK    5  A    between atoms: O_13  and  C_14
REMARK    6  A    between atoms: C_14  and  C_15
REMARK    7  A    between atoms: C_14  and  C_16
REMARK    8  A    between atoms: C_18  and  C_20
REMARK    9  A    between atoms: C_20  and  C_22
REMARK   10  A    between atoms: C_20  and  S_23
REMARK   11  A    between atoms: S_23  and  C_24
REMARK                            x       y       z     vdW  Elec       q    Type
REMARK                         _______ _______ _______ _____ _____    ______ ____
ROOT
ATOM      1  C   UNL     1      -0.019   1.526   0.010  0.00  0.00    +0.008 C 
ATOM      2  C   UNL     1       0.002  -0.004   0.002  0.00  0.00    -0.009 C 
ATOM      3  C   UNL     1       0.742  -0.514   1.242  0.00  0.00    +0.008 C 
ATOM      4  C   UNL     1       0.984  -2.020   1.120  0.00  0.00    +0.037 C 
ATOM      5  C   UNL     1      -0.341  -2.706   0.810  0.00  0.00    -0.021 A 
ATOM      6  C   UNL     1      -1.390  -2.006   0.327  0.00  0.00    -0.004 A 
ATOM      7  S   UNL     1      -2.679  -3.203   0.126  0.00  0.00    -0.077 S 
ATOM      8  C   UNL     1      -1.838  -4.615   0.674  0.00  0.00    +0.086 A 
ATOM      9  C   UNL     1      -0.579  -4.127   1.000  0.00  0.00    +0.091 A 
ATOM     10  C   UNL     1      -1.437  -0.538   0.030  0.00  0.00    +0.046 C 
ENDROOT
BRANCH   8  11
ATOM     11  N   UNL     1      -2.307  -5.916   0.764  0.00  0.00    -0.278 N 
ATOM     12  C   UNL     1      -3.572  -6.203   0.398  0.00  0.00    +0.231 C 
ATOM     13  O   UNL     1      -4.300  -5.323  -0.011  0.00  0.00    -0.274 OA
ATOM     14  H   UNL     1      -1.647  -6.714   1.135  0.00  0.00    +0.155 HD
BRANCH  12  15
ATOM     15  C   UNL     1      -4.082  -7.618   0.497  0.00  0.00    +0.136 C 
ATOM     16  C   UNL     1      -4.590  -7.879   1.916  0.00  0.00    +0.029 C 
BRANCH  15  17
ATOM     17  S   UNL     1      -5.439  -7.855  -0.684  0.00  0.00    -0.084 S 
BRANCH  17  18
ATOM     18  C   UNL     1      -5.821  -9.570  -0.555  0.00  0.00    +0.161 A 
ATOM     19  N   UNL     1      -5.271 -10.494   0.209  0.00  0.00    -0.133 NA
ATOM     20  N   UNL     1      -5.729 -11.790   0.152  0.00  0.00    -0.125 NA
ATOM     21  C   UNL     1      -6.715 -12.103  -0.666  0.00  0.00    +0.180 A 
ATOM     22  S   UNL     1      -7.062 -10.521  -1.419  0.00  0.00    -0.025 S 
ATOM     23  N   UNL     1      -7.324 -13.334  -0.880  0.00  0.00    -0.336 N 
ATOM     24  H   UNL     1      -8.144 -13.422  -1.609  0.00  0.00    +0.144 HD
ATOM     25  H   UNL     1      -6.987 -14.219  -0.322  0.00  0.00    +0.144 HD
ENDBRANCH  17  18
ENDBRANCH  15  17
ENDBRANCH  12  15
ENDBRANCH   8  11
BRANCH   9  26
ATOM     26  C   UNL     1       0.468  -5.010   1.516  0.00  0.00    +0.342 C 
ATOM     27  O   UNL     1       0.575  -5.191   2.715  0.00  0.00    -0.245 OA
BRANCH  26  28
ATOM     28  O   UNL     1       1.313  -5.625   0.664  0.00  0.00    -0.458 OA
BRANCH  28  29
ATOM     29  C   UNL     1       2.327  -6.486   1.246  0.00  0.00    +0.171 C 
ATOM     30  C   UNL     1       2.666  -7.610   0.265  0.00  0.00    +0.052 C 
ATOM     31  C   UNL     1       3.586  -5.667   1.539  0.00  0.00    +0.052 C 
ENDBRANCH  28  29
ENDBRANCH  26  28
ENDBRANCH   9  26
TORSDOF 7
