REMARK  Name = ZINC22681006
REMARK  13 active torsions:
REMARK  status: ('A' for Active; 'I' for Inactive)
REMARK    1  A    between atoms: C_1  and  C_2
REMARK    2  A    between atoms: N_5  and  C_8
REMARK    3  A    between atoms: C_8  and  C_10
REMARK    4  A    between atoms: C_8  and  C_29
REMARK    5  A    between atoms: C_10  and  N_11
REMARK    6  A    between atoms: C_12  and  C_14
REMARK    7  A    between atoms: C_17  and  C_20
REMARK    8  A    between atoms: C_20  and  N_21
REMARK    9  A    between atoms: C_22  and  O_24
REMARK   10  A    between atoms: O_24  and  C_25
REMARK   11  A    between atoms: C_25  and  C_26
REMARK   12  A    between atoms: C_25  and  C_27
REMARK   13  A    between atoms: C_25  and  C_28
REMARK                            x       y       z     vdW  Elec       q    Type
REMARK                         _______ _______ _______ _____ _____    ______ ____
ROOT
ATOM      1  N   UNL     1      -0.175   8.536   1.032  0.00  0.00    -0.313 N 
ATOM      2  C   UNL     1      -0.214   7.981  -0.196  0.00  0.00    +0.244 C 
ATOM      3  O   UNL     1       0.034   8.655  -1.176  0.00  0.00    -0.270 OA
ATOM      4  H   UNL     1      -0.400   7.926   1.919  0.00  0.00    +0.149 HD
ENDROOT
BRANCH   2   5
ATOM      5  C   UNL     1      -0.559   6.551  -0.349  0.00  0.00    +0.037 A 
ATOM      6  C   UNL     1      -0.600   5.973  -1.619  0.00  0.00    +0.013 A 
ATOM      7  C   UNL     1      -0.922   4.638  -1.756  0.00  0.00    +0.006 A 
ATOM      8  C   UNL     1      -1.203   3.873  -0.637  0.00  0.00    -0.030 A 
ATOM      9  C   UNL     1      -1.169   4.442   0.624  0.00  0.00    +0.006 A 
ATOM     10  C   UNL     1      -0.844   5.774   0.774  0.00  0.00    +0.013 A 
BRANCH   8  11
ATOM     11  C   UNL     1      -1.554   2.416  -0.794  0.00  0.00    +0.142 C 
BRANCH  11  12
ATOM     12  N   UNL     1      -0.332   1.610  -0.737  0.00  0.00    -0.277 N 
ATOM     13  C   UNL     1      -0.403   0.270  -0.855  0.00  0.00    +0.401 C 
ATOM     14  O   UNL     1      -1.480  -0.271  -1.005  0.00  0.00    -0.226 OA
ATOM     15  H   UNL     1       0.643   2.099  -0.597  0.00  0.00    +0.152 HD
BRANCH  13  16
ATOM     16  O   UNL     1       0.721  -0.470  -0.808  0.00  0.00    -0.445 OA
BRANCH  16  17
ATOM     17  C   UNL     1       0.570  -1.908  -0.943  0.00  0.00    +0.107 C 
ATOM     18  C   UNL     1      -0.078  -2.229  -2.292  0.00  0.00    +0.055 C 
ATOM     19  C   UNL     1       1.944  -2.575  -0.866  0.00  0.00    +0.055 C 
ATOM     20  C   UNL     1      -0.317  -2.436   0.187  0.00  0.00    +0.055 C 
ENDBRANCH  16  17
ENDBRANCH  13  16
ENDBRANCH  11  12
ENDBRANCH   8  11
ENDBRANCH   2   5
BRANCH   1  21
ATOM     21  C   UNL     1       0.166   9.953   1.184  0.00  0.00    +0.094 C 
BRANCH  21  22
ATOM     22  C   UNL     1       0.139  10.327   2.667  0.00  0.00    -0.013 C 
BRANCH  22  27
ATOM     23  C   UNL     1       4.156   7.588   5.673  0.00  0.00    +0.007 C 
ATOM     24  C   UNL     1       3.366   8.666   4.928  0.00  0.00    -0.018 C 
ATOM     25  C   UNL     1       1.997   8.846   5.589  0.00  0.00    -0.015 C 
ATOM     26  C   UNL     1       1.188   9.881   4.803  0.00  0.00    -0.078 C 
ATOM     27  N   UNL     1       1.026   9.427   3.416  0.00  0.00    +0.386 N 
ATOM     28  C   UNL     1       2.326   9.292   2.746  0.00  0.00    -0.078 C 
ATOM     29  C   UNL     1       3.169   8.240   3.470  0.00  0.00    -0.015 C 
ATOM     30  H   UNL     1       0.558   8.432   3.442  0.00  0.00    -0.081 HD
ENDBRANCH  22  27
BRANCH  22  31
ATOM     31  C   UNL     1       0.609  11.749   2.835  0.00  0.00    -0.022 A 
ATOM     32  C   UNL     1      -0.111  12.855   3.146  0.00  0.00    +0.009 A 
ATOM     33  C   UNL     1       0.538  14.070   3.248  0.00  0.00    +0.008 A 
ATOM     34  C   UNL     1       1.876  14.121   3.036  0.00  0.00    +0.045 A 
ATOM     35  S   UNL     1       2.259  12.413   2.684  0.00  0.00    -0.103 S 
ENDBRANCH  22  31
ENDBRANCH  21  22
ENDBRANCH   1  21
TORSDOF 9
