REMARK  Name = ZINC20978159
REMARK  8 active torsions:
REMARK  status: ('A' for Active; 'I' for Inactive)
REMARK    1  A    between atoms: C_3  and  C_6
REMARK    2  A    between atoms: C_6  and  N_7
REMARK    3  A    between atoms: C_10  and  C_13
REMARK    4  A    between atoms: C_13  and  N_14
REMARK    5  A    between atoms: N_14  and  S_15
REMARK    6  A    between atoms: S_15  and  C_18
REMARK    7  A    between atoms: C_21  and  C_23
REMARK    8  A    between atoms: C_25  and  C_28
REMARK                            x       y       z     vdW  Elec       q    Type
REMARK                         _______ _______ _______ _____ _____    ______ ____
ROOT
ATOM      1  S   UNL     1       7.888   0.505  -0.070  0.00  0.00    +0.065 S 
ATOM      2  O   UNL     1       7.997  -0.797  -0.629  0.00  0.00    -0.153 OA
ATOM      3  O   UNL     1       8.560   1.629  -0.621  0.00  0.00    -0.153 OA
ENDROOT
BRANCH   1   4
ATOM      4  C   UNL     1       6.172   0.903  -0.051  0.00  0.00    +0.143 A 
ATOM      5  C   UNL     1       5.578   2.125  -0.038  0.00  0.00    +0.037 A 
ATOM      6  C   UNL     1       4.204   2.203  -0.031  0.00  0.00    +0.020 A 
ATOM      7  C   UNL     1       3.478   1.041  -0.025  0.00  0.00    +0.043 A 
ATOM      8  S   UNL     1       4.765  -0.197  -0.044  0.00  0.00    -0.067 S 
BRANCH   7   9
ATOM      9  C   UNL     1       2.012   0.859  -0.013  0.00  0.00    +0.120 A 
ATOM     10  C   UNL     1       1.301  -0.376  -0.012  0.00  0.00    +0.085 A 
ATOM     11  C   UNL     1       0.002  -0.004   0.002  0.00  0.00    +0.240 A 
ATOM     12  O   UNL     1      -0.016   1.337   0.009  0.00  0.00    -0.350 OA
ATOM     13  N   UNL     1       1.099   1.803   0.001  0.00  0.00    -0.077 NA
BRANCH  11  14
ATOM     14  C   UNL     1      -1.195  -0.919   0.009  0.00  0.00    +0.453 C 
ATOM     15  F   UNL     1      -1.553  -1.209   1.329  0.00  0.00    -0.163 F 
ATOM     16  F   UNL     1      -2.265  -0.292  -0.638  0.00  0.00    -0.163 F 
ATOM     17  F   UNL     1      -0.878  -2.107  -0.660  0.00  0.00    -0.163 F 
ENDBRANCH  11  14
ENDBRANCH   7   9
ENDBRANCH   1   4
BRANCH   1  18
ATOM     18  N   UNL     1       8.381   0.385   1.507  0.00  0.00    -0.189 NA
ATOM     19  H   UNL     1       8.981   1.196   1.945  0.00  0.00    +0.148 HD
BRANCH  18  20
ATOM     20  C   UNL     1       7.841  -0.673   2.364  0.00  0.00    +0.109 C 
BRANCH  20  24
ATOM     21  N   UNL     1      10.303  -2.451   5.372  0.00  0.00    +0.384 N 
ATOM     22  C   UNL     1       8.975  -1.990   5.799  0.00  0.00    -0.078 C 
ATOM     23  C   UNL     1       8.075  -1.820   4.574  0.00  0.00    -0.014 C 
ATOM     24  C   UNL     1       8.706  -0.802   3.620  0.00  0.00    +0.001 C 
ATOM     25  C   UNL     1      10.107  -1.282   3.229  0.00  0.00    -0.014 C 
ATOM     26  C   UNL     1      10.948  -1.468   4.493  0.00  0.00    -0.078 C 
ATOM     27  H   UNL     1      10.166  -3.378   4.796  0.00  0.00    -0.081 HD
BRANCH  21  28
ATOM     28  C   UNL     1      11.151  -2.758   6.532  0.00  0.00    -0.003 C 
BRANCH  28  31
ATOM     29  C   UNL     1      14.458  -3.876   5.349  0.00  0.00    +0.041 A 
ATOM     30  C   UNL     1      13.555  -2.852   5.717  0.00  0.00    +0.042 A 
ATOM     31  C   UNL     1      12.404  -3.454   6.067  0.00  0.00    +0.089 A 
ATOM     32  O   UNL     1      12.563  -4.782   5.937  0.00  0.00    -0.470 OA
ATOM     33  C   UNL     1      13.805  -5.043   5.497  0.00  0.00    +0.195 A 
ENDBRANCH  28  31
ENDBRANCH  21  28
ENDBRANCH  20  24
ENDBRANCH  18  20
ENDBRANCH   1  18
TORSDOF 8
