REMARK  Name = ZINC38893897
REMARK  9 active torsions:
REMARK  status: ('A' for Active; 'I' for Inactive)
REMARK    1  A    between atoms: C_3  and  C_8
REMARK    2  A    between atoms: C_8  and  S_9
REMARK    3  A    between atoms: S_9  and  C_10
REMARK    4  A    between atoms: C_10  and  C_11
REMARK    5  A    between atoms: C_11  and  N_12
REMARK    6  A    between atoms: C_13  and  C_15
REMARK    7  A    between atoms: N_20  and  C_22
REMARK    8  A    between atoms: C_22  and  C_23
REMARK    9  A    between atoms: C_25  and  C_28
REMARK                            x       y       z     vdW  Elec       q    Type
REMARK                         _______ _______ _______ _____ _____    ______ ____
ROOT
ATOM      1  C   UNL     1       9.543   5.646   3.680  0.00  0.00    +0.058 C 
ATOM      2  C   UNL     1       9.273   6.951   2.925  0.00  0.00    +0.009 C 
ATOM      3  C   UNL     1      10.570   7.761   2.844  0.00  0.00    -0.018 C 
ATOM      4  C   UNL     1      11.099   8.009   4.259  0.00  0.00    -0.078 C 
ATOM      5  N   UNL     1      11.362   6.725   4.919  0.00  0.00    +0.386 N 
ATOM      6  C   UNL     1      10.110   5.972   5.064  0.00  0.00    -0.065 C 
ATOM      7  H   UNL     1      12.012   6.189   4.363  0.00  0.00    -0.081 HD
ENDROOT
BRANCH   1   9
ATOM      8  N   UNL     1       7.574   4.482   2.739  0.00  0.00    -0.314 N 
ATOM      9  C   UNL     1       8.257   4.877   3.832  0.00  0.00    +0.214 C 
ATOM     10  O   UNL     1       7.835   4.613   4.938  0.00  0.00    -0.276 OA
ATOM     11  H   UNL     1       7.912   4.693   1.854  0.00  0.00    +0.149 HD
BRANCH   8  12
ATOM     12  C   UNL     1       6.324   3.734   2.887  0.00  0.00    +0.115 C 
BRANCH  12  13
ATOM     13  C   UNL     1       5.756   3.411   1.503  0.00  0.00    +0.088 C 
BRANCH  13  14
ATOM     14  S   UNL     1       4.207   2.485   1.686  0.00  0.00    -0.155 S 
BRANCH  14  15
ATOM     15  C   UNL     1       3.672   2.184  -0.021  0.00  0.00    +0.104 C 
BRANCH  15  18
ATOM     16  C   UNL     1      -0.017   1.378   0.010  0.00  0.00    +0.002 A 
ATOM     17  C   UNL     1       1.171   2.086   0.002  0.00  0.00    +0.004 A 
ATOM     18  C   UNL     1       2.378   1.412  -0.013  0.00  0.00    -0.036 A 
ATOM     19  C   UNL     1       2.398   0.029  -0.021  0.00  0.00    +0.024 A 
ATOM     20  C   UNL     1       1.210  -0.679  -0.013  0.00  0.00    +0.041 A 
ATOM     21  C   UNL     1       0.002  -0.004   0.002  0.00  0.00    +0.020 A 
ATOM     22 CL   UNL     1       1.234  -2.415  -0.024  0.00  0.00    -0.084 Cl
ENDBRANCH  15  18
ENDBRANCH  14  15
ENDBRANCH  13  14
ENDBRANCH  12  13
ENDBRANCH   8  12
ENDBRANCH   1   9
BRANCH   5  23
ATOM     23  C   UNL     1      11.942   6.968   6.247  0.00  0.00    +0.022 C 
BRANCH  23  24
ATOM     24  C   UNL     1      13.291   7.623   6.093  0.00  0.00    +0.211 A 
ATOM     25  N   UNL     1      13.513   8.905   6.047  0.00  0.00    -0.193 NA
ATOM     26  C   UNL     1      14.831   9.139   5.905  0.00  0.00    +0.202 A 
ATOM     27  N   UNL     1      15.457   7.989   5.859  0.00  0.00    -0.056 NA
ATOM     28  O   UNL     1      14.463   6.984   5.988  0.00  0.00    -0.340 OA
BRANCH  26  29
ATOM     29  C   UNL     1      15.467  10.476   5.814  0.00  0.00    +0.023 A 
ATOM     30  C   UNL     1      14.686  11.628   5.881  0.00  0.00    +0.014 A 
ATOM     31  C   UNL     1      15.282  12.869   5.797  0.00  0.00    +0.039 A 
ATOM     32  C   UNL     1      16.656  12.972   5.646  0.00  0.00    +0.123 A 
ATOM     33  C   UNL     1      17.436  11.829   5.578  0.00  0.00    +0.039 A 
ATOM     34  C   UNL     1      16.849  10.584   5.667  0.00  0.00    +0.014 A 
ATOM     35  F   UNL     1      17.236  14.189   5.564  0.00  0.00    -0.205 F 
ENDBRANCH  26  29
ENDBRANCH  23  24
ENDBRANCH   5  23
TORSDOF 9
