REMARK  Name = ZINC08636410
REMARK  7 active torsions:
REMARK  status: ('A' for Active; 'I' for Inactive)
REMARK    1  A    between atoms: C_1  and  N_2
REMARK    2  A    between atoms: N_2  and  C_3
REMARK    3  A    between atoms: C_3  and  C_4
REMARK    4  A    between atoms: C_10  and  C_12
REMARK    5  A    between atoms: C_15  and  O_35
REMARK    6  A    between atoms: C_17  and  O_34
REMARK    7  A    between atoms: N_23  and  C_27
REMARK                            x       y       z     vdW  Elec       q    Type
REMARK                         _______ _______ _______ _____ _____    ______ ____
ROOT
ATOM      1  C   UNL     1       1.773   3.417   0.637  0.00  0.00    +0.100 C 
ATOM      2  C   UNL     1       0.735   4.137  -0.192  0.00  0.00    +0.048 C 
ATOM      3  C   UNL     1       0.992   5.628  -0.248  0.00  0.00    +0.146 C 
ATOM      4  C   UNL     1       2.374   5.956  -0.752  0.00  0.00    +0.165 C 
ATOM      5  C   UNL     1       3.499   5.217  -0.067  0.00  0.00    +0.124 C 
ATOM      6  C   UNL     1       3.185   3.809   0.384  0.00  0.00    +0.115 C 
ATOM      7  N   UNL     1       3.910   2.933  -0.537  0.00  0.00    -0.277 N 
ATOM      8  C   UNL     1       4.713   3.701  -1.293  0.00  0.00    +0.138 C 
ATOM      9  S   UNL     1       5.801   3.061  -2.450  0.00  0.00    -0.018 S 
ATOM     10  N   UNL     1       4.584   5.015  -1.058  0.00  0.00    -0.319 N 
ATOM     11  H   UNL     1       5.113   5.717  -1.468  0.00  0.00    +0.148 HD
ENDROOT
BRANCH   7  12
ATOM     12  C   UNL     1       3.788   1.541  -0.617  0.00  0.00    +0.036 A 
ATOM     13  C   UNL     1       3.814   0.773   0.540  0.00  0.00    +0.026 A 
ATOM     14  C   UNL     1       3.687  -0.600   0.460  0.00  0.00    +0.040 A 
ATOM     15  C   UNL     1       3.546  -1.212  -0.774  0.00  0.00    +0.124 A 
ATOM     16  C   UNL     1       3.525  -0.449  -1.930  0.00  0.00    +0.040 A 
ATOM     17  C   UNL     1       3.646   0.925  -1.853  0.00  0.00    +0.026 A 
ATOM     18  F   UNL     1       3.428  -2.556  -0.851  0.00  0.00    -0.205 F 
ENDBRANCH   7  12
BRANCH   1  21
ATOM     19  C   UNL     1       1.621   2.401  -2.013  0.00  0.00    +0.132 C 
ATOM     20  N   UNL     1       1.468   1.486  -0.879  0.00  0.00    -0.300 N 
ATOM     21  C   UNL     1       1.640   1.938   0.379  0.00  0.00    +0.221 C 
ATOM     22  O   UNL     1       1.688   1.155   1.304  0.00  0.00    -0.275 OA
BRANCH  20  23
ATOM     23  C   UNL     1       1.134   0.079  -1.113  0.00  0.00    +0.142 C 
BRANCH  23  24
ATOM     24  C   UNL     1      -0.358  -0.107  -1.010  0.00  0.00    -0.030 A 
ATOM     25  C   UNL     1      -0.922  -0.520   0.182  0.00  0.00    +0.005 A 
ATOM     26  C   UNL     1      -2.291  -0.687   0.278  0.00  0.00    +0.000 A 
ATOM     27  C   UNL     1      -3.095  -0.449  -0.822  0.00  0.00    +0.000 A 
ATOM     28  C   UNL     1      -2.530  -0.041  -2.015  0.00  0.00    +0.000 A 
ATOM     29  C   UNL     1      -1.161   0.130  -2.110  0.00  0.00    +0.005 A 
ENDBRANCH  23  24
ENDBRANCH  20  23
ENDBRANCH   1  21
BRANCH   4  30
ATOM     30  O   UNL     1       2.425   5.659  -2.149  0.00  0.00    -0.387 OA
ATOM     31  H   UNL     1       1.791   6.158  -2.681  0.00  0.00    +0.210 HD
ENDBRANCH   4  30
BRANCH   3  32
ATOM     32  O   UNL     1       0.836   6.174   1.064  0.00  0.00    -0.389 OA
ATOM     33  H   UNL     1      -0.044   6.044   1.442  0.00  0.00    +0.210 HD
ENDBRANCH   3  32
TORSDOF 6
