REMARK  Name = ZINC16628392
REMARK  8 active torsions:
REMARK  status: ('A' for Active; 'I' for Inactive)
REMARK    1  A    between atoms: C_1  and  C_2
REMARK    2  A    between atoms: C_3  and  C_33
REMARK    3  A    between atoms: N_4  and  C_26
REMARK    4  A    between atoms: C_5  and  N_9
REMARK    5  A    between atoms: C_6  and  C_7
REMARK    6  A    between atoms: C_10  and  C_12
REMARK    7  A    between atoms: C_12  and  S_13
REMARK    8  A    between atoms: S_13  and  C_14
REMARK                            x       y       z     vdW  Elec       q    Type
REMARK                         _______ _______ _______ _____ _____    ______ ____
ROOT
ATOM      1  N   UNL     1      -8.494   1.248   0.200  0.00  0.00    -0.270 N 
ATOM      2  C   UNL     1      -7.754   1.702  -0.830  0.00  0.00    +0.229 C 
ATOM      3  O   UNL     1      -7.685   1.060  -1.857  0.00  0.00    -0.275 OA
ATOM      4  H   UNL     1      -8.489   1.721   1.047  0.00  0.00    +0.156 HD
ENDROOT
BRANCH   1   9
ATOM      5  C   UNL     1     -12.375  -1.944  -0.344  0.00  0.00    +0.047 C 
ATOM      6  C   UNL     1     -10.991  -1.366  -0.195  0.00  0.00    -0.010 A 
ATOM      7  C   UNL     1      -9.836  -2.051  -0.166  0.00  0.00    +0.027 A 
ATOM      8  N   UNL     1      -8.793  -1.173  -0.018  0.00  0.00    -0.300 N 
ATOM      9  C   UNL     1      -9.262   0.102   0.051  0.00  0.00    +0.128 A 
ATOM     10  C   UNL     1     -10.645   0.054  -0.050  0.00  0.00    +0.095 A 
ATOM     11  C   UNL     1      -9.707  -3.548  -0.276  0.00  0.00    +0.064 C 
BRANCH   8  12
ATOM     12  C   UNL     1      -7.441  -1.537   0.052  0.00  0.00    +0.051 A 
ATOM     13  C   UNL     1      -6.734  -1.359   1.234  0.00  0.00    +0.026 A 
ATOM     14  C   UNL     1      -5.402  -1.718   1.302  0.00  0.00    +0.005 A 
ATOM     15  C   UNL     1      -4.771  -2.254   0.195  0.00  0.00    +0.038 A 
ATOM     16  C   UNL     1      -5.473  -2.433  -0.986  0.00  0.00    +0.125 A 
ATOM     17  C   UNL     1      -6.809  -2.080  -1.057  0.00  0.00    +0.064 A 
ATOM     18  F   UNL     1      -4.854  -2.957  -2.067  0.00  0.00    -0.205 F 
ENDBRANCH   8  12
BRANCH  10  19
ATOM     19  C   UNL     1     -11.550   1.162  -0.021  0.00  0.00    +0.103 C 
ATOM     20  N   UNL     1     -12.269   2.042   0.002  0.00  0.00    -0.191 NA
ENDBRANCH  10  19
ENDBRANCH   1   9
BRANCH   2  21
ATOM     21  C   UNL     1      -7.012   3.008  -0.707  0.00  0.00    +0.173 C 
BRANCH  21  22
ATOM     22  S   UNL     1      -6.116   3.343  -2.249  0.00  0.00    -0.076 S 
BRANCH  22  23
ATOM     23  C   UNL     1      -5.312   4.882  -1.949  0.00  0.00    +0.197 A 
ATOM     24  N   UNL     1      -5.384   5.577  -0.844  0.00  0.00    -0.121 NA
ATOM     25  N   UNL     1      -4.607   6.732  -1.006  0.00  0.00    -0.121 NA
ATOM     26  C   UNL     1      -4.094   6.694  -2.199  0.00  0.00    +0.202 A 
ATOM     27  N   UNL     1      -4.498   5.556  -2.846  0.00  0.00    -0.264 N 
ATOM     28  C   UNL     1      -4.040   5.343  -4.155  0.00  0.00    +0.065 A 
ATOM     29  C   UNL     1      -4.345   4.247  -4.979  0.00  0.00    +0.027 A 
ATOM     30  C   UNL     1      -3.825   4.155  -6.249  0.00  0.00    +0.002 A 
ATOM     31  C   UNL     1      -2.996   5.140  -6.758  0.00  0.00    +0.001 A 
ATOM     32  C   UNL     1      -2.683   6.233  -5.969  0.00  0.00    +0.017 A 
ATOM     33  C   UNL     1      -3.200   6.321  -4.697  0.00  0.00    +0.040 A 
ATOM     34  S   UNL     1      -3.059   7.514  -3.389  0.00  0.00    -0.048 S 
ENDBRANCH  22  23
ENDBRANCH  21  22
ENDBRANCH   2  21
TORSDOF 6
