REMARK  Name = ZINC10190928
REMARK  9 active torsions:
REMARK  status: ('A' for Active; 'I' for Inactive)
REMARK    1  A    between atoms: C_1  and  N_58
REMARK    2  A    between atoms: C_2  and  N_58
REMARK    3  A    between atoms: C_3  and  C_4
REMARK    4  A    between atoms: C_3  and  N_58
REMARK    5  A    between atoms: C_4  and  C_5
REMARK    6  A    between atoms: C_5  and  N_6
REMARK    7  A    between atoms: C_15  and  S_16
REMARK    8  A    between atoms: S_16  and  C_17
REMARK    9  A    between atoms: C_17  and  C_18
REMARK                            x       y       z     vdW  Elec       q    Type
REMARK                         _______ _______ _______ _____ _____    ______ ____
ROOT
ATOM      1  N   UNL     1      -0.692   1.553   1.220  0.00  0.00    -0.287 N 
ATOM      2  C   UNL     1      -1.663   0.799   1.766  0.00  0.00    +0.263 A 
ATOM      3  O   UNL     1      -1.972  -0.268   1.264  0.00  0.00    -0.267 OA
ATOM      4  C   UNL     1      -2.329   1.266   2.943  0.00  0.00    +0.076 A 
ATOM      5  C   UNL     1      -3.402   0.616   3.697  0.00  0.00    -0.023 A 
ATOM      6  C   UNL     1      -3.867   1.265   4.783  0.00  0.00    -0.004 A 
ATOM      7  S   UNL     1      -2.917   2.759   4.869  0.00  0.00    -0.073 S 
ATOM      8  C   UNL     1      -1.895   2.507   3.439  0.00  0.00    +0.117 A 
ATOM      9  N   UNL     1      -0.929   3.204   2.853  0.00  0.00    -0.216 NA
ATOM     10  C   UNL     1      -0.329   2.748   1.772  0.00  0.00    +0.173 A 
ATOM     11  C   UNL     1      -4.952   0.816   5.714  0.00  0.00    +0.043 C 
ATOM     12  C   UNL     1      -5.723  -0.329   5.042  0.00  0.00    +0.005 C 
ATOM     13  C   UNL     1      -4.716  -1.339   4.485  0.00  0.00    +0.005 C 
ATOM     14  C   UNL     1      -3.983  -0.735   3.287  0.00  0.00    +0.037 C 
ENDROOT
BRANCH   1  15
ATOM     15  C   UNL     1      -0.005   1.080   0.015  0.00  0.00    +0.125 C 
BRANCH  15  16
ATOM     16  C   UNL     1      -0.747   1.585  -1.225  0.00  0.00    +0.003 C 
BRANCH  16  17
ATOM     17  C   UNL     1      -0.030   1.091  -2.483  0.00  0.00    -0.078 C 
BRANCH  17  20
ATOM     18  C   UNL     1       0.040   1.326  -4.892  0.00  0.00    -0.097 C 
ATOM     19  C   UNL     1      -2.077   0.971  -3.771  0.00  0.00    -0.097 C 
ATOM     20  N   UNL     1      -0.745   1.604  -3.671  0.00  0.00    +0.376 N 
ATOM     21  H   UNL     1      -0.865   2.619  -3.575  0.00  0.00    -0.083 HD
ENDBRANCH  17  20
ENDBRANCH  16  17
ENDBRANCH  15  16
ENDBRANCH   1  15
BRANCH  10  22
ATOM     22  S   UNL     1       0.955   3.696   1.025  0.00  0.00    -0.078 S 
BRANCH  22  23
ATOM     23  C   UNL     1       0.992   5.115   2.148  0.00  0.00    +0.173 C 
BRANCH  23  24
ATOM     24  C   UNL     1       2.047   6.089   1.692  0.00  0.00    +0.229 C 
ATOM     25  O   UNL     1       2.710   5.848   0.705  0.00  0.00    -0.275 OA
ATOM     26  N   UNL     1       2.256   7.228   2.381  0.00  0.00    -0.270 N 
ATOM     27  C   UNL     1       3.302   8.078   2.024  0.00  0.00    +0.125 A 
ATOM     28  C   UNL     1       3.578   9.196   2.803  0.00  0.00    +0.045 A 
ATOM     29  C   UNL     1       4.622  10.028   2.440  0.00  0.00    +0.025 A 
ATOM     30  C   UNL     1       5.351   9.718   1.299  0.00  0.00    +0.059 A 
ATOM     31  C   UNL     1       5.018   8.593   0.569  0.00  0.00    +0.132 A 
ATOM     32  N   UNL     1       4.020   7.816   0.943  0.00  0.00    -0.239 NA
ATOM     33 CL   UNL     1       6.667  10.732   0.796  0.00  0.00    -0.082 Cl
ATOM     34  H   UNL     1       1.678   7.457   3.126  0.00  0.00    +0.156 HD
ENDBRANCH  23  24
ENDBRANCH  22  23
ENDBRANCH  10  22
TORSDOF 7
