REMARK  Name = ZINC34683985
REMARK  7 active torsions:
REMARK  status: ('A' for Active; 'I' for Inactive)
REMARK    1  A    between atoms: C_4  and  O_34
REMARK    2  A    between atoms: C_5  and  C_7
REMARK    3  A    between atoms: C_7  and  N_8
REMARK    4  A    between atoms: C_11  and  N_14
REMARK    5  A    between atoms: N_14  and  C_15
REMARK    6  A    between atoms: N_14  and  S_24
REMARK    7  A    between atoms: S_24  and  C_27
REMARK                            x       y       z     vdW  Elec       q    Type
REMARK                         _______ _______ _______ _____ _____    ______ ____
ROOT
ATOM      1  N   UNL     1       1.228  -4.686   5.035  0.00  0.00    -0.200 N 
ENDROOT
BRANCH   1   2
ATOM      2  C   UNL     1       2.324  -4.149   5.721  0.00  0.00    +0.055 A 
ATOM      3  C   UNL     1       3.603  -4.277   5.196  0.00  0.00    +0.028 A 
ATOM      4  C   UNL     1       4.685  -3.748   5.873  0.00  0.00    +0.051 A 
ATOM      5  C   UNL     1       4.498  -3.089   7.077  0.00  0.00    +0.166 A 
ATOM      6  C   UNL     1       3.216  -2.959   7.606  0.00  0.00    +0.168 A 
ATOM      7  C   UNL     1       2.131  -3.485   6.925  0.00  0.00    +0.074 A 
ATOM      8  O   UNL     1       3.299  -2.278   8.787  0.00  0.00    -0.453 OA
ATOM      9  C   UNL     1       4.683  -2.350   9.176  0.00  0.00    +0.466 C 
ATOM     10  O   UNL     1       5.383  -2.488   7.926  0.00  0.00    -0.453 OA
ENDBRANCH   1   2
BRANCH   1  14
ATOM     11  N   UNL     1       1.102  -1.989   1.799  0.00  0.00    +0.383 N 
ATOM     12  C   UNL     1       0.014  -1.894   2.779  0.00  0.00    -0.077 C 
ATOM     13  C   UNL     1       0.437  -2.574   4.083  0.00  0.00    +0.006 C 
ATOM     14  C   UNL     1       0.750  -4.047   3.806  0.00  0.00    +0.095 C 
ATOM     15  C   UNL     1       1.834  -4.135   2.728  0.00  0.00    +0.006 C 
ATOM     16  C   UNL     1       1.359  -3.397   1.474  0.00  0.00    -0.077 C 
ATOM     17  H   UNL     1       1.938  -1.576   2.186  0.00  0.00    -0.081 HD
BRANCH  11  18
ATOM     18  C   UNL     1       0.722  -1.268   0.577  0.00  0.00    -0.039 C 
BRANCH  18  23
ATOM     19  C   UNL     1      -0.811   2.092   1.363  0.00  0.00    +0.000 A 
ATOM     20  C   UNL     1       0.310   2.897   1.447  0.00  0.00    +0.004 A 
ATOM     21  C   UNL     1       1.566   2.358   1.250  0.00  0.00    +0.045 A 
ATOM     22  C   UNL     1       1.703   1.007   0.967  0.00  0.00    +0.118 A 
ATOM     23  C   UNL     1       0.577   0.201   0.884  0.00  0.00    -0.022 A 
ATOM     24  C   UNL     1      -0.677   0.745   1.082  0.00  0.00    +0.005 A 
BRANCH  22  25
ATOM     25  O   UNL     1       2.938   0.473   0.772  0.00  0.00    -0.507 OA
ATOM     26  H   UNL     1       3.356   0.145   1.579  0.00  0.00    +0.292 HD
ENDBRANCH  22  25
ENDBRANCH  18  23
ENDBRANCH  11  18
ENDBRANCH   1  14
BRANCH   1  27
ATOM     27  S   UNL     1       0.473  -6.042   5.612  0.00  0.00    +0.075 S 
ATOM     28  O   UNL     1       0.848  -6.166   6.977  0.00  0.00    -0.150 OA
ATOM     29  O   UNL     1      -0.884  -5.958   5.199  0.00  0.00    -0.150 OA
BRANCH  27  30
ATOM     30  C   UNL     1       1.171  -7.424   4.771  0.00  0.00    +0.109 A 
ATOM     31  C   UNL     1       0.615  -7.862   3.583  0.00  0.00    +0.031 A 
ATOM     32  C   UNL     1       1.161  -8.946   2.922  0.00  0.00    +0.040 A 
ATOM     33  C   UNL     1       2.266  -9.593   3.450  0.00  0.00    +0.124 A 
ATOM     34  C   UNL     1       2.822  -9.153   4.639  0.00  0.00    +0.040 A 
ATOM     35  C   UNL     1       2.276  -8.066   5.296  0.00  0.00    +0.031 A 
ATOM     36  F   UNL     1       2.801 -10.653   2.805  0.00  0.00    -0.205 F 
ENDBRANCH  27  30
ENDBRANCH   1  27
TORSDOF 7
