REMARK  Name = ZINC36040702
REMARK  17 active torsions:
REMARK  status: ('A' for Active; 'I' for Inactive)
REMARK    1  A    between atoms: C_1  and  C_2
REMARK    2  A    between atoms: C_2  and  C_3
REMARK    3  A    between atoms: C_2  and  N_4
REMARK    4  A    between atoms: N_4  and  C_5
REMARK    5  A    between atoms: C_5  and  N_7
REMARK    6  A    between atoms: N_7  and  C_8
REMARK    7  A    between atoms: N_7  and  C_13
REMARK    8  A    between atoms: C_8  and  C_9
REMARK    9  A    between atoms: C_9  and  N_10
REMARK   10  A    between atoms: N_10  and  C_11
REMARK   11  A    between atoms: N_10  and  C_12
REMARK   12  A    between atoms: C_13  and  C_14
REMARK   13  A    between atoms: C_17  and  S_26
REMARK   14  A    between atoms: N_18  and  C_19
REMARK   15  A    between atoms: C_19  and  C_20
REMARK   16  A    between atoms: S_26  and  C_29
REMARK   17  A    between atoms: C_29  and  C_30
REMARK                            x       y       z     vdW  Elec       q    Type
REMARK                         _______ _______ _______ _____ _____    ______ ____
ROOT
ATOM      1  C   UNL     1      -4.116  -0.836  -0.930  0.00  0.00    +0.057 A 
ATOM      2  C   UNL     1      -5.420  -1.088  -1.151  0.00  0.00    +0.137 A 
ATOM      3  N   UNL     1      -5.953  -0.017  -1.758  0.00  0.00    -0.220 NA
ATOM      4  C   UNL     1      -5.029   0.889  -1.922  0.00  0.00    +0.252 A 
ATOM      5  N   UNL     1      -3.868   0.420  -1.414  0.00  0.00    -0.307 N 
ENDROOT
BRANCH   4   6
ATOM      6  S   UNL     1      -5.257   2.465  -2.675  0.00  0.00    +0.034 S 
ATOM      7  O   UNL     1      -3.954   2.871  -3.070  0.00  0.00    -0.166 OA
ATOM      8  O   UNL     1      -6.276   2.259  -3.645  0.00  0.00    -0.166 OA
BRANCH   6   9
ATOM      9  C   UNL     1      -5.869   3.534  -1.344  0.00  0.00    +0.210 C 
BRANCH   9  10
ATOM     10  C   UNL     1      -6.190   4.897  -1.901  0.00  0.00    -0.026 A 
ATOM     11  C   UNL     1      -5.215   5.877  -1.933  0.00  0.00    +0.008 A 
ATOM     12  C   UNL     1      -5.508   7.127  -2.444  0.00  0.00    +0.038 A 
ATOM     13  C   UNL     1      -6.778   7.398  -2.924  0.00  0.00    +0.123 A 
ATOM     14  C   UNL     1      -7.754   6.416  -2.891  0.00  0.00    +0.038 A 
ATOM     15  C   UNL     1      -7.457   5.165  -2.384  0.00  0.00    +0.008 A 
ATOM     16  F   UNL     1      -7.066   8.620  -3.423  0.00  0.00    -0.205 F 
ENDBRANCH   9  10
ENDBRANCH   6   9
ENDBRANCH   4   6
BRANCH   1  17
ATOM     17  C   UNL     1      -3.122  -1.757  -0.272  0.00  0.00    +0.161 C 
BRANCH  17  18
ATOM     18  N   UNL     1      -3.537  -3.148  -0.472  0.00  0.00    -0.309 N 
BRANCH  18  19
ATOM     19  C   UNL     1      -3.056  -3.851  -1.517  0.00  0.00    +0.133 C 
ATOM     20  S   UNL     1      -3.444  -5.510  -1.683  0.00  0.00    -0.019 S 
BRANCH  19  21
ATOM     21  N   UNL     1      -2.270  -3.248  -2.430  0.00  0.00    -0.324 N 
ATOM     22  H   UNL     1      -1.993  -2.327  -2.300  0.00  0.00    +0.148 HD
BRANCH  21  24
ATOM     23  C   UNL     1      -1.438  -2.989  -4.715  0.00  0.00    +0.027 C 
ATOM     24  C   UNL     1      -1.835  -3.982  -3.621  0.00  0.00    +0.066 C 
ATOM     25  C   UNL     1      -0.633  -4.859  -3.268  0.00  0.00    +0.027 C 
ENDBRANCH  21  24
ENDBRANCH  19  21
ENDBRANCH  18  19
BRANCH  18  26
ATOM     26  C   UNL     1      -4.476  -3.774   0.462  0.00  0.00    +0.088 C 
BRANCH  26  27
ATOM     27  C   UNL     1      -3.696  -4.440   1.598  0.00  0.00    -0.060 C 
BRANCH  27  28
ATOM     28  N   UNL     1      -4.637  -5.068   2.535  0.00  0.00    +0.377 N 
ATOM     29  C   UNL     1      -3.887  -5.807   3.560  0.00  0.00    -0.097 C 
ATOM     30  C   UNL     1      -5.452  -4.030   3.180  0.00  0.00    -0.097 C 
ATOM     31  H   UNL     1      -5.238  -5.704   2.033  0.00  0.00    -0.083 HD
ENDBRANCH  27  28
ENDBRANCH  26  27
ENDBRANCH  18  26
ENDBRANCH  17  18
ENDBRANCH   1  17
BRANCH   5  32
ATOM     32  C   UNL     1      -2.584   1.124  -1.388  0.00  0.00    +0.160 C 
BRANCH  32  33
ATOM     33  C   UNL     1      -2.467   1.910  -0.108  0.00  0.00    -0.028 A 
ATOM     34  C   UNL     1      -2.856   3.237  -0.074  0.00  0.00    +0.005 A 
ATOM     35  C   UNL     1      -2.749   3.958   1.101  0.00  0.00    +0.000 A 
ATOM     36  C   UNL     1      -2.255   3.353   2.241  0.00  0.00    +0.000 A 
ATOM     37  C   UNL     1      -1.867   2.027   2.207  0.00  0.00    +0.000 A 
ATOM     38  C   UNL     1      -1.978   1.304   1.034  0.00  0.00    +0.005 A 
ENDBRANCH  32  33
ENDBRANCH   5  32
TORSDOF 13
