REMARK  Name = ZINC02927060
REMARK  9 active torsions:
REMARK  status: ('A' for Active; 'I' for Inactive)
REMARK    1  A    between atoms: C_1  and  C_2
REMARK    2  A    between atoms: C_2  and  C_3
REMARK    3  A    between atoms: C_3  and  C_5
REMARK    4  A    between atoms: C_3  and  S_14
REMARK    5  A    between atoms: N_7  and  C_8
REMARK    6  A    between atoms: C_8  and  C_9
REMARK    7  A    between atoms: S_14  and  C_15
REMARK    8  A    between atoms: C_19  and  C_23
REMARK    9  A    between atoms: N_26  and  C_27
REMARK                            x       y       z     vdW  Elec       q    Type
REMARK                         _______ _______ _______ _____ _____    ______ ____
ROOT
ATOM      1  C   UNL     1      -0.030   1.371  -0.097  0.00  0.00    +0.178 A 
ATOM      2  N   UNL     1       1.029   2.101  -0.346  0.00  0.00    -0.201 NA
ATOM      3  C   UNL     1       2.235   1.562  -0.580  0.00  0.00    +0.187 A 
ATOM      4  C   UNL     1       2.387   0.169  -0.563  0.00  0.00    +0.082 A 
ATOM      5  C   UNL     1       3.737  -0.109  -0.837  0.00  0.00    +0.046 A 
ATOM      6  N   UNL     1       4.364   1.023  -1.008  0.00  0.00    -0.279 N 
ATOM      7  N   UNL     1       3.461   2.083  -0.856  0.00  0.00    -0.153 NA
ATOM      8  H   UNL     1       5.441   1.027  -1.233  0.00  0.00    +0.189 HD
ATOM      9  C   UNL     1       4.356  -1.481  -0.919  0.00  0.00    +0.066 C 
ATOM     10  C   UNL     1       1.204  -0.657  -0.285  0.00  0.00    +0.124 A 
ATOM     11  N   UNL     1       1.278  -1.965  -0.255  0.00  0.00    -0.384 N 
ATOM     12  N   UNL     1       0.007   0.003  -0.056  0.00  0.00    -0.275 N 
ATOM     13  H   UNL     1       0.379  -2.562  -0.045  0.00  0.00    +0.157 HD
ATOM     14  H   UNL     1       2.240  -2.466  -0.440  0.00  0.00    +0.157 HD
ENDROOT
BRANCH  12  15
ATOM     15  C   UNL     1      -1.158  -0.726   0.214  0.00  0.00    +0.050 A 
ATOM     16  C   UNL     1      -1.249  -1.487   1.371  0.00  0.00    +0.027 A 
ATOM     17  C   UNL     1      -2.402  -2.200   1.639  0.00  0.00    +0.017 A 
ATOM     18  C   UNL     1      -3.461  -2.165   0.749  0.00  0.00    +0.018 A 
ATOM     19  C   UNL     1      -3.370  -1.411  -0.408  0.00  0.00    +0.017 A 
ATOM     20  C   UNL     1      -2.223  -0.692  -0.677  0.00  0.00    +0.027 A 
ATOM     21 BR   UNL     1      -5.034  -3.148   1.114  0.00  0.00    -0.050 Br
ENDBRANCH  12  15
BRANCH   1  22
ATOM     22  S   UNL     1      -1.568   2.182   0.190  0.00  0.00    -0.075 S 
BRANCH  22  23
ATOM     23  C   UNL     1      -1.019   3.907   0.181  0.00  0.00    +0.140 C 
BRANCH  23  24
ATOM     24  C   UNL     1      -0.158   4.166   1.391  0.00  0.00    +0.227 C 
ATOM     25  O   UNL     1      -0.222   3.426   2.350  0.00  0.00    -0.275 OA
ATOM     26  N   UNL     1       0.682   5.220   1.406  0.00  0.00    -0.307 N 
ATOM     27  H   UNL     1       0.739   5.891   0.536  0.00  0.00    +0.149 HD
BRANCH  26  28
ATOM     28  C   UNL     1       1.519   5.472   2.582  0.00  0.00    +0.178 C 
BRANCH  28  29
ATOM     29  C   UNL     1       2.360   6.700   2.346  0.00  0.00    +0.122 A 
ATOM     30  C   UNL     1       2.011   7.963   2.650  0.00  0.00    +0.046 A 
ATOM     31  C   UNL     1       3.089   8.790   2.261  0.00  0.00    +0.041 A 
ATOM     32  C   UNL     1       4.032   7.984   1.742  0.00  0.00    +0.195 A 
ATOM     33  O   UNL     1       3.587   6.718   1.801  0.00  0.00    -0.466 OA
ENDBRANCH  28  29
ENDBRANCH  26  28
ENDBRANCH  23  24
BRANCH  23  35
ATOM     34  C   UNL     1      -3.036   4.671  -1.080  0.00  0.00    +0.005 C 
ATOM     35  C   UNL     1      -2.239   4.830   0.216  0.00  0.00    +0.020 C 
ENDBRANCH  23  35
ENDBRANCH  22  23
ENDBRANCH   1  22
TORSDOF 7
