REMARK  Name = ZINC08831605
REMARK  9 active torsions:
REMARK  status: ('A' for Active; 'I' for Inactive)
REMARK    1  A    between atoms: C_1  and  C_2
REMARK    2  A    between atoms: C_2  and  C_3
REMARK    3  A    between atoms: C_2  and  C_4
REMARK    4  A    between atoms: C_2  and  C_5
REMARK    5  A    between atoms: C_12  and  N_17
REMARK    6  A    between atoms: C_13  and  C_14
REMARK    7  A    between atoms: N_17  and  C_18
REMARK    8  A    between atoms: C_18  and  N_20
REMARK    9  A    between atoms: C_21  and  C_23
REMARK                            x       y       z     vdW  Elec       q    Type
REMARK                         _______ _______ _______ _____ _____    ______ ____
ROOT
ATOM      1  C   UNL     1      -3.191  -2.272  -3.490  0.00  0.00    -0.000 C 
ATOM      2  C   UNL     1      -2.544  -0.891  -3.626  0.00  0.00    +0.009 C 
ATOM      3  C   UNL     1      -1.408  -0.747  -2.612  0.00  0.00    +0.037 C 
ATOM      4  C   UNL     1      -1.942  -1.091  -1.228  0.00  0.00    -0.023 A 
ATOM      5  C   UNL     1      -3.082  -1.801  -1.079  0.00  0.00    -0.004 A 
ATOM      6  S   UNL     1      -3.292  -1.958   0.672  0.00  0.00    -0.077 S 
ATOM      7  C   UNL     1      -1.881  -1.101   1.201  0.00  0.00    +0.084 A 
ATOM      8  C   UNL     1      -1.282  -0.714   0.011  0.00  0.00    +0.068 A 
ATOM      9  C   UNL     1      -3.967  -2.327  -2.166  0.00  0.00    +0.046 C 
ENDROOT
BRANCH   8  10
ATOM     10  C   UNL     1      -0.032   0.052   0.003  0.00  0.00    +0.244 C 
ATOM     11  O   UNL     1       1.038  -0.528  -0.016  0.00  0.00    -0.270 OA
ATOM     12  N   UNL     1      -0.068   1.399   0.016  0.00  0.00    -0.325 N 
ATOM     13  H   UNL     1       0.759   1.907   0.011  0.00  0.00    +0.145 HD
ATOM     14  H   UNL     1      -0.920   1.862   0.026  0.00  0.00    +0.145 HD
ENDBRANCH   8  10
BRANCH   1  16
ATOM     15  C   UNL     1      -5.230  -1.421  -4.655  0.00  0.00    +0.011 C 
ATOM     16  C   UNL     1      -4.152  -2.506  -4.658  0.00  0.00    -0.035 C 
ATOM     17  C   UNL     1      -3.376  -2.451  -5.975  0.00  0.00    +0.011 C 
ATOM     18  C   UNL     1      -4.809  -3.879  -4.510  0.00  0.00    +0.011 C 
ENDBRANCH   1  16
BRANCH   7  19
ATOM     19  N   UNL     1      -1.455  -0.862   2.498  0.00  0.00    -0.291 N 
ATOM     20  H   UNL     1      -0.638  -0.363   2.655  0.00  0.00    +0.154 HD
BRANCH  19  21
ATOM     21  C   UNL     1      -2.176  -1.321   3.539  0.00  0.00    +0.141 C 
ATOM     22  S   UNL     1      -3.619  -2.200   3.261  0.00  0.00    -0.018 S 
BRANCH  21  23
ATOM     23  N   UNL     1      -1.762  -1.087   4.801  0.00  0.00    -0.264 N 
ATOM     24  C   UNL     1      -2.483  -1.546   5.843  0.00  0.00    +0.250 C 
ATOM     25  O   UNL     1      -3.507  -2.171   5.645  0.00  0.00    -0.270 OA
ATOM     26  H   UNL     1      -0.944  -0.589   4.958  0.00  0.00    +0.157 HD
BRANCH  24  27
ATOM     27  C   UNL     1      -2.030  -1.292   7.222  0.00  0.00    +0.045 A 
ATOM     28  C   UNL     1      -0.803  -0.686   7.465  0.00  0.00    +0.014 A 
ATOM     29  C   UNL     1      -0.379  -0.447   8.764  0.00  0.00    +0.001 A 
ATOM     30  C   UNL     1      -1.136  -0.792   9.842  0.00  0.00    +0.008 A 
ATOM     31  C   UNL     1      -2.387  -1.408   9.671  0.00  0.00    -0.017 A 
ATOM     32  C   UNL     1      -2.863  -1.666   8.362  0.00  0.00    -0.006 A 
ATOM     33  C   UNL     1      -4.107  -2.285   8.188  0.00  0.00    +0.009 A 
ATOM     34  C   UNL     1      -4.850  -2.623   9.279  0.00  0.00    +0.001 A 
ATOM     35  C   UNL     1      -4.387  -2.366  10.567  0.00  0.00    +0.001 A 
ATOM     36  C   UNL     1      -3.180  -1.770  10.773  0.00  0.00    +0.008 A 
ENDBRANCH  24  27
ENDBRANCH  21  23
ENDBRANCH  19  21
ENDBRANCH   7  19
TORSDOF 6
