REMARK  Name = ZINC36643288
REMARK  10 active torsions:
REMARK  status: ('A' for Active; 'I' for Inactive)
REMARK    1  A    between atoms: C_1  and  C_2
REMARK    2  A    between atoms: N_7  and  S_9
REMARK    3  A    between atoms: S_9  and  C_12
REMARK    4  A    between atoms: C_15  and  C_18
REMARK    5  A    between atoms: N_20  and  C_21
REMARK    6  A    between atoms: C_21  and  C_22
REMARK    7  A    between atoms: C_22  and  C_23
REMARK    8  A    between atoms: C_23  and  N_24
REMARK    9  A    between atoms: N_24  and  C_25
REMARK   10  A    between atoms: N_24  and  C_26
REMARK                            x       y       z     vdW  Elec       q    Type
REMARK                         _______ _______ _______ _____ _____    ______ ____
ROOT
ATOM      1  C   UNL     1       4.715  -3.565   5.836  0.00  0.00    +0.252 C 
ATOM      2  O   UNL     1       5.279  -4.612   5.586  0.00  0.00    -0.270 OA
ATOM      3  N   UNL     1       5.076  -2.847   6.918  0.00  0.00    -0.246 N 
ATOM      4  C   UNL     1       6.168  -3.237   7.675  0.00  0.00    +0.168 A 
ATOM      5  N   UNL     1       6.664  -2.678   8.753  0.00  0.00    -0.224 NA
ATOM      6  C   UNL     1       7.746  -3.171   9.396  0.00  0.00    +0.080 A 
ATOM      7  C   UNL     1       8.376  -2.668  10.557  0.00  0.00    +0.032 A 
ATOM      8  C   UNL     1       9.475  -3.294  11.085  0.00  0.00    +0.040 A 
ATOM      9  C   UNL     1      10.007  -4.438  10.504  0.00  0.00    +0.125 A 
ATOM     10  C   UNL     1       9.415  -4.958   9.366  0.00  0.00    +0.055 A 
ATOM     11  C   UNL     1       8.313  -4.336   8.832  0.00  0.00    +0.043 A 
ATOM     12  S   UNL     1       7.255  -4.636   7.437  0.00  0.00    -0.052 S 
ATOM     13  F   UNL     1      11.092  -5.036  11.043  0.00  0.00    -0.205 F 
ENDROOT
BRANCH   1  17
ATOM     14  C   UNL     1       1.606  -2.169   3.302  0.00  0.00    +0.106 A 
ATOM     15  C   UNL     1       2.781  -2.648   2.751  0.00  0.00    +0.029 A 
ATOM     16  C   UNL     1       3.795  -3.103   3.568  0.00  0.00    +0.015 A 
ATOM     17  C   UNL     1       3.633  -3.079   4.955  0.00  0.00    +0.037 A 
ATOM     18  C   UNL     1       2.445  -2.594   5.504  0.00  0.00    +0.015 A 
ATOM     19  C   UNL     1       1.441  -2.137   4.675  0.00  0.00    +0.029 A 
BRANCH  14  20
ATOM     20  S   UNL     1       0.316  -1.589   2.250  0.00  0.00    +0.061 S 
ATOM     21  O   UNL     1      -0.891  -1.694   2.993  0.00  0.00    -0.153 OA
ATOM     22  O   UNL     1       0.497  -2.230   0.995  0.00  0.00    -0.153 OA
BRANCH  20  28
ATOM     23  C   UNL     1      -1.299   3.169   2.967  0.00  0.00    +0.009 C 
ATOM     24  C   UNL     1      -0.795   2.043   2.063  0.00  0.00    +0.002 C 
ATOM     25  C   UNL     1       0.119   2.626   0.983  0.00  0.00    +0.006 C 
ATOM     26  C   UNL     1       0.599   1.505   0.058  0.00  0.00    +0.017 C 
ATOM     27  C   UNL     1       1.401   0.485   0.871  0.00  0.00    +0.109 C 
ATOM     28  N   UNL     1       0.578   0.026   1.999  0.00  0.00    -0.176 NA
ATOM     29  C   UNL     1      -0.008   1.028   2.899  0.00  0.00    +0.112 C 
ENDBRANCH  20  28
ENDBRANCH  14  20
ENDBRANCH   1  17
BRANCH   3  30
ATOM     30  C   UNL     1       4.313  -1.654   7.294  0.00  0.00    +0.114 C 
BRANCH  30  31
ATOM     31  C   UNL     1       3.318  -2.012   8.400  0.00  0.00    +0.001 C 
BRANCH  31  32
ATOM     32  C   UNL     1       2.430  -0.802   8.698  0.00  0.00    -0.078 C 
BRANCH  32  33
ATOM     33  N   UNL     1       1.475  -1.145   9.759  0.00  0.00    +0.376 N 
ATOM     34  C   UNL     1       0.703   0.049  10.129  0.00  0.00    -0.097 C 
ATOM     35  C   UNL     1       0.561  -2.189   9.277  0.00  0.00    -0.097 C 
ATOM     36  H   UNL     1       1.977  -1.485  10.566  0.00  0.00    -0.083 HD
ENDBRANCH  32  33
ENDBRANCH  31  32
ENDBRANCH  30  31
ENDBRANCH   3  30
TORSDOF 7
