REMARK  Name = ZINC04096781
REMARK  9 active torsions:
REMARK  status: ('A' for Active; 'I' for Inactive)
REMARK    1  A    between atoms: C_1  and  C_2
REMARK    2  A    between atoms: C_5  and  O_33
REMARK    3  A    between atoms: C_16  and  O_32
REMARK    4  A    between atoms: C_19  and  C_31
REMARK    5  A    between atoms: C_24  and  C_25
REMARK    6  A    between atoms: C_24  and  O_30
REMARK    7  A    between atoms: C_25  and  C_27
REMARK    8  A    between atoms: C_25  and  O_29
REMARK    9  A    between atoms: C_27  and  O_28
REMARK                            x       y       z     vdW  Elec       q    Type
REMARK                         _______ _______ _______ _____ _____    ______ ____
ROOT
ATOM      1  C   UNL     1       0.613   7.856   0.407  0.00  0.00    +0.012 C 
ATOM      2  C   UNL     1       2.011   7.227   0.344  0.00  0.00    -0.024 C 
ATOM      3  C   UNL     1       2.531   7.793  -0.943  0.00  0.00    +0.010 C 
ATOM      4  C   UNL     1       3.711   8.725  -0.855  0.00  0.00    +0.032 C 
ATOM      5  C   UNL     1       3.647   9.611   0.373  0.00  0.00    +0.115 C 
ATOM      6  C   UNL     1       3.587   8.793   1.635  0.00  0.00    +0.035 C 
ATOM      7  C   UNL     1       2.566   7.678   1.646  0.00  0.00    -0.002 C 
ATOM      8  C   UNL     1       2.990   6.659   2.684  0.00  0.00    +0.004 C 
ATOM      9  C   UNL     1       2.436   5.252   2.481  0.00  0.00    +0.004 C 
ATOM     10  C   UNL     1       2.656   4.920   1.008  0.00  0.00    -0.001 C 
ATOM     11  C   UNL     1       1.641   5.763   0.230  0.00  0.00    +0.027 C 
ATOM     12  C   UNL     1       1.492   5.219  -1.180  0.00  0.00    +0.119 C 
ATOM     13  C   UNL     1       0.783   3.847  -1.133  0.00  0.00    +0.041 C 
ATOM     14  C   UNL     1       1.163   3.092   0.104  0.00  0.00    +0.005 C 
ATOM     15  C   UNL     1       2.559   3.468   0.643  0.00  0.00    +0.001 C 
ATOM     16  C   UNL     1       2.705   2.482   1.823  0.00  0.00    +0.007 C 
ATOM     17  C   UNL     1       2.052   1.178   1.291  0.00  0.00    +0.038 C 
ATOM     18  C   UNL     1       1.284   1.564  -0.003  0.00  0.00    +0.100 C 
ATOM     19  C   UNL     1       0.083   3.322   1.178  0.00  0.00    +0.014 C 
ENDROOT
BRANCH  18  20
ATOM     20  O   UNL     1      -0.017   0.980  -0.003  0.00  0.00    -0.385 OA
ATOM     21  H   UNL     1      -0.014   0.013  -0.016  0.00  0.00    +0.210 HD
ENDBRANCH  18  20
BRANCH  12  22
ATOM     22  O   UNL     1       0.707   6.101  -1.991  0.00  0.00    -0.391 OA
ATOM     23  H   UNL     1       0.585   5.796  -2.900  0.00  0.00    +0.210 HD
ENDBRANCH  12  22
BRANCH   5  24
ATOM     24  O   UNL     1       2.497  10.455   0.296  0.00  0.00    -0.392 OA
ATOM     25  H   UNL     1       2.488  11.038  -0.476  0.00  0.00    +0.210 HD
ENDBRANCH   5  24
BRANCH  18  26
ATOM     26  C   UNL     1       2.074   1.141  -1.235  0.00  0.00    +0.172 C 
BRANCH  26  27
ATOM     27  O   UNL     1       1.320   1.444  -2.411  0.00  0.00    -0.387 OA
ATOM     28  H   UNL     1       0.463   0.998  -2.455  0.00  0.00    +0.210 HD
ENDBRANCH  26  27
BRANCH  26  29
ATOM     29  C   UNL     1       2.344  -0.364  -1.176  0.00  0.00    +0.190 C 
BRANCH  29  30
ATOM     30  O   UNL     1       3.183  -0.740  -2.270  0.00  0.00    -0.392 OA
ATOM     31  H   UNL     1       3.396  -1.683  -2.296  0.00  0.00    +0.210 HD
ENDBRANCH  29  30
ENDBRANCH  26  29
ENDBRANCH  18  26
TORSDOF 7
