REMARK  Name = ZINC39503538
REMARK  5 active torsions:
REMARK  status: ('A' for Active; 'I' for Inactive)
REMARK    1  A    between atoms: C_4  and  C_7
REMARK    2  A    between atoms: C_7  and  C_8
REMARK    3  A    between atoms: C_15  and  O_26
REMARK    4  A    between atoms: N_18  and  C_19
REMARK    5  A    between atoms: C_24  and  O_25
REMARK                            x       y       z     vdW  Elec       q    Type
REMARK                         _______ _______ _______ _____ _____    ______ ____
ROOT
ATOM      1  C   UNL     1       4.159  -0.515   1.761  0.00  0.00    -0.005 C 
ATOM      2  C   UNL     1       4.664   0.659   2.636  0.00  0.00    +0.006 C 
ATOM      3  C   UNL     1       5.662   0.001   3.613  0.00  0.00    +0.026 C 
ATOM      4  C   UNL     1       6.146  -1.286   2.936  0.00  0.00    +0.038 C 
ATOM      5  C   UNL     1       5.429  -1.384   1.577  0.00  0.00    +0.029 C 
ATOM      6  C   UNL     1       7.670  -1.240   2.729  0.00  0.00    +0.058 C 
ATOM      7  C   UNL     1       8.203  -2.080   3.921  0.00  0.00    +0.134 C 
ATOM      8  C   UNL     1       7.102  -3.162   4.059  0.00  0.00    +0.137 C 
ATOM      9  N   UNL     1       5.840  -2.456   3.762  0.00  0.00    -0.319 N 
ENDROOT
BRANCH   9  10
ATOM     10  C   UNL     1       4.566  -2.840   4.195  0.00  0.00    +0.072 A 
ATOM     11  C   UNL     1       4.026  -2.284   5.346  0.00  0.00    +0.027 A 
ATOM     12  C   UNL     1       2.767  -2.665   5.772  0.00  0.00    +0.002 A 
ATOM     13  C   UNL     1       2.044  -3.600   5.054  0.00  0.00    +0.004 A 
ATOM     14  C   UNL     1       2.576  -4.158   3.906  0.00  0.00    +0.047 A 
ATOM     15  C   UNL     1       3.834  -3.778   3.470  0.00  0.00    +0.138 A 
BRANCH  15  16
ATOM     16  O   UNL     1       4.357  -4.323   2.338  0.00  0.00    -0.505 OA
ATOM     17  H   UNL     1       4.801  -5.170   2.479  0.00  0.00    +0.292 HD
ENDBRANCH  15  16
ENDBRANCH   9  10
BRANCH   7  18
ATOM     18  O   UNL     1       9.465  -2.672   3.606  0.00  0.00    -0.390 OA
ATOM     19  H   UNL     1       9.839  -3.207   4.320  0.00  0.00    +0.210 HD
ENDBRANCH   7  18
BRANCH   1  20
ATOM     20  C   UNL     1       3.651  -0.005   0.410  0.00  0.00    +0.038 C 
BRANCH  20  24
ATOM     21  C   UNL     1       0.059   2.232   0.990  0.00  0.00    +0.000 A 
ATOM     22  C   UNL     1       1.284   2.869   1.032  0.00  0.00    +0.000 A 
ATOM     23  C   UNL     1       2.447   2.146   0.845  0.00  0.00    +0.003 A 
ATOM     24  C   UNL     1       2.384   0.784   0.616  0.00  0.00    -0.047 A 
ATOM     25  C   UNL     1       1.158   0.146   0.574  0.00  0.00    +0.003 A 
ATOM     26  C   UNL     1      -0.004   0.870   0.760  0.00  0.00    +0.000 A 
ENDBRANCH  20  24
ENDBRANCH   1  20
TORSDOF 5
