REMARK  Name = ZINC08768468
REMARK  11 active torsions:
REMARK  status: ('A' for Active; 'I' for Inactive)
REMARK    1  A    between atoms: C_1  and  C_2
REMARK    2  A    between atoms: C_5  and  C_37
REMARK    3  A    between atoms: N_8  and  S_10
REMARK    4  A    between atoms: S_10  and  C_13
REMARK    5  A    between atoms: C_16  and  C_19
REMARK    6  A    between atoms: N_21  and  C_22
REMARK    7  A    between atoms: C_22  and  C_23
REMARK    8  A    between atoms: C_23  and  C_24
REMARK    9  A    between atoms: C_24  and  N_69
REMARK   10  A    between atoms: C_25  and  N_69
REMARK   11  A    between atoms: C_26  and  N_69
REMARK                            x       y       z     vdW  Elec       q    Type
REMARK                         _______ _______ _______ _____ _____    ______ ____
ROOT
ATOM      1  C   UNL     1      -2.861   4.166   7.763  0.00  0.00    +0.252 C 
ATOM      2  O   UNL     1      -3.954   4.651   7.546  0.00  0.00    -0.270 OA
ATOM      3  N   UNL     1      -2.036   4.740   8.661  0.00  0.00    -0.246 N 
ATOM      4  C   UNL     1      -2.482   5.799   9.434  0.00  0.00    +0.168 A 
ATOM      5  N   UNL     1      -1.808   6.543  10.279  0.00  0.00    -0.221 NA
ATOM      6  C   UNL     1      -2.376   7.555  10.970  0.00  0.00    +0.115 A 
ATOM      7  C   UNL     1      -1.766   8.430  11.901  0.00  0.00    +0.150 A 
ATOM      8  C   UNL     1      -2.496   9.411  12.523  0.00  0.00    +0.040 A 
ATOM      9  C   UNL     1      -3.849   9.581  12.265  0.00  0.00    +0.004 A 
ATOM     10  C   UNL     1      -4.476   8.744  11.361  0.00  0.00    +0.017 A 
ATOM     11  C   UNL     1      -3.754   7.759  10.733  0.00  0.00    +0.044 A 
ATOM     12  S   UNL     1      -4.124   6.496   9.540  0.00  0.00    -0.052 S 
ATOM     13  F   UNL     1      -0.451   8.297  12.180  0.00  0.00    -0.203 F 
ENDROOT
BRANCH   1  17
ATOM     14  C   UNL     1      -1.643   0.663   5.695  0.00  0.00    +0.106 A 
ATOM     15  C   UNL     1      -0.696   1.580   6.114  0.00  0.00    +0.029 A 
ATOM     16  C   UNL     1      -1.085   2.723   6.781  0.00  0.00    +0.015 A 
ATOM     17  C   UNL     1      -2.438   2.947   7.043  0.00  0.00    +0.037 A 
ATOM     18  C   UNL     1      -3.388   2.015   6.622  0.00  0.00    +0.015 A 
ATOM     19  C   UNL     1      -2.985   0.880   5.951  0.00  0.00    +0.029 A 
BRANCH  14  20
ATOM     20  S   UNL     1      -1.138  -0.791   4.837  0.00  0.00    +0.061 S 
ATOM     21  O   UNL     1      -2.160  -1.757   5.038  0.00  0.00    -0.153 OA
ATOM     22  O   UNL     1       0.215  -1.028   5.202  0.00  0.00    -0.153 OA
BRANCH  20  28
ATOM     23  C   UNL     1       1.580  -0.157   0.597  0.00  0.00    +0.009 C 
ATOM     24  C   UNL     1       0.407  -0.774   1.363  0.00  0.00    +0.002 C 
ATOM     25  C   UNL     1      -0.814  -0.859   0.444  0.00  0.00    +0.009 C 
ATOM     26  C   UNL     1      -1.978  -1.506   1.198  0.00  0.00    +0.002 C 
ATOM     27  C   UNL     1      -2.342  -0.638   2.407  0.00  0.00    +0.112 C 
ATOM     28  N   UNL     1      -1.137  -0.431   3.221  0.00  0.00    -0.176 NA
ATOM     29  C   UNL     1       0.070   0.102   2.574  0.00  0.00    +0.112 C 
ATOM     30  C   UNL     1      -3.188  -1.621   0.268  0.00  0.00    +0.009 C 
ENDBRANCH  20  28
ENDBRANCH  14  20
ENDBRANCH   1  17
BRANCH   3  31
ATOM     31  C   UNL     1      -0.667   4.243   8.820  0.00  0.00    +0.114 C 
BRANCH  31  32
ATOM     32  C   UNL     1       0.295   5.143   8.042  0.00  0.00    +0.001 C 
BRANCH  32  33
ATOM     33  C   UNL     1       1.725   4.624   8.208  0.00  0.00    -0.078 C 
BRANCH  33  36
ATOM     34  C   UNL     1       2.697   6.836   8.044  0.00  0.00    -0.097 C 
ATOM     35  C   UNL     1       3.991   4.894   7.399  0.00  0.00    -0.097 C 
ATOM     36  N   UNL     1       2.639   5.491   7.434  0.00  0.00    +0.376 N 
ATOM     37  H   UNL     1       2.286   5.575   6.474  0.00  0.00    -0.083 HD
ENDBRANCH  33  36
ENDBRANCH  32  33
ENDBRANCH  31  32
ENDBRANCH   3  31
TORSDOF 7
