REMARK  Name = ZINC28631870
REMARK  7 active torsions:
REMARK  status: ('A' for Active; 'I' for Inactive)
REMARK    1  A    between atoms: C_4  and  N_7
REMARK    2  A    between atoms: N_7  and  C_8
REMARK    3  A    between atoms: C_8  and  N_10
REMARK    4  A    between atoms: N_10  and  N_11
REMARK    5  A    between atoms: C_12  and  C_14
REMARK    6  A    between atoms: C_14  and  N_15
REMARK    7  A    between atoms: C_16  and  C_18
REMARK                            x       y       z     vdW  Elec       q    Type
REMARK                         _______ _______ _______ _____ _____    ______ ____
ROOT
ATOM      1  N   UNL     1       4.103  -1.279  -4.734  0.00  0.00    -0.234 N 
ATOM      2  C   UNL     1       4.734  -1.714  -5.843  0.00  0.00    +0.246 C 
ATOM      3  O   UNL     1       5.260  -2.806  -5.852  0.00  0.00    -0.273 OA
ATOM      4  H   UNL     1       3.682  -0.405  -4.727  0.00  0.00    +0.173 HD
ENDROOT
BRANCH   1   5
ATOM      5  N   UNL     1       4.055  -2.089  -3.592  0.00  0.00    -0.246 N 
ATOM      6  H   UNL     1       4.476  -2.963  -3.600  0.00  0.00    +0.172 HD
BRANCH   5   7
ATOM      7  C   UNL     1       3.424  -1.655  -2.483  0.00  0.00    +0.147 C 
ATOM      8  S   UNL     1       3.366  -2.645  -1.088  0.00  0.00    -0.017 S 
BRANCH   7   9
ATOM      9  N   UNL     1       2.839  -0.440  -2.473  0.00  0.00    -0.323 N 
ATOM     10  H   UNL     1       2.872   0.121  -3.264  0.00  0.00    +0.148 HD
BRANCH   9  14
ATOM     11  C   UNL     1      -0.019   1.526   0.010  0.00  0.00    +0.000 C 
ATOM     12  C   UNL     1       1.417   2.055  -0.000  0.00  0.00    +0.002 C 
ATOM     13  C   UNL     1       2.133   1.562  -1.259  0.00  0.00    +0.022 C 
ATOM     14  C   UNL     1       2.154   0.032  -1.268  0.00  0.00    +0.072 C 
ATOM     15  C   UNL     1       0.718  -0.497  -1.257  0.00  0.00    +0.022 C 
ATOM     16  C   UNL     1       0.002  -0.004   0.002  0.00  0.00    +0.002 C 
ENDBRANCH   9  14
ENDBRANCH   7   9
ENDBRANCH   5   7
ENDBRANCH   1   5
BRANCH   2  17
ATOM     17  C   UNL     1       4.785  -0.842  -7.071  0.00  0.00    +0.201 C 
BRANCH  17  18
ATOM     18  N   UNL     1       5.521  -1.535  -8.132  0.00  0.00    -0.306 N 
ATOM     19  C   UNL     1       5.694  -0.943  -9.330  0.00  0.00    +0.220 C 
ATOM     20  O   UNL     1       5.241   0.164  -9.530  0.00  0.00    -0.275 OA
ATOM     21  H   UNL     1       5.883  -2.420  -7.971  0.00  0.00    +0.149 HD
BRANCH  19  22
ATOM     22  C   UNL     1       6.451  -1.656 -10.420  0.00  0.00    +0.048 C 
ATOM     23  C   UNL     1       7.875  -1.950  -9.944  0.00  0.00    +0.019 C 
ATOM     24  C   UNL     1       8.644  -2.674 -11.051  0.00  0.00    -0.009 C 
ATOM     25  C   UNL     1       8.696  -1.789 -12.299  0.00  0.00    +0.007 C 
ATOM     26  C   UNL     1       7.272  -1.495 -12.775  0.00  0.00    -0.009 C 
ATOM     27  C   UNL     1       6.503  -0.771 -11.667  0.00  0.00    +0.019 C 
ATOM     28  C   UNL     1       6.565  -2.809 -13.111  0.00  0.00    +0.007 C 
ATOM     29  C   UNL     1       6.513  -3.694 -11.864  0.00  0.00    -0.009 C 
ATOM     30  C   UNL     1       7.937  -3.988 -11.388  0.00  0.00    +0.007 C 
ATOM     31  C   UNL     1       5.744  -2.970 -10.757  0.00  0.00    +0.019 C 
ENDBRANCH  19  22
ENDBRANCH  17  18
ENDBRANCH   2  17
TORSDOF 7
