REMARK  Name = ZINC20218382
REMARK  4 active torsions:
REMARK  status: ('A' for Active; 'I' for Inactive)
REMARK    1  A    between atoms: C_1  and  C_2
REMARK    2  A    between atoms: C_5  and  N_8
REMARK    3  A    between atoms: C_12  and  C_14
REMARK    4  A    between atoms: C_15  and  C_16
REMARK                            x       y       z     vdW  Elec       q    Type
REMARK                         _______ _______ _______ _____ _____    ______ ____
ROOT
ATOM      1  N   UNL     1      -1.358  -2.098   2.449  0.00  0.00    -0.296 N 
ATOM      2  C   UNL     1      -1.235  -2.779   3.606  0.00  0.00    +0.306 C 
ATOM      3  O   UNL     1      -0.555  -3.786   3.648  0.00  0.00    -0.252 OA
ATOM      4  N   UNL     1      -1.866  -2.345   4.714  0.00  0.00    -0.237 N 
ATOM      5  C   UNL     1      -1.743  -3.026   5.871  0.00  0.00    +0.244 C 
ATOM      6  O   UNL     1      -1.064  -4.032   5.913  0.00  0.00    -0.270 OA
ATOM      7  H   UNL     1      -1.901  -1.294   2.415  0.00  0.00    +0.151 HD
ATOM      8  H   UNL     1      -2.409  -1.541   4.680  0.00  0.00    +0.159 HD
ENDROOT
BRANCH   1  13
ATOM      9  C   UNL     1      -0.019   1.526   0.010  0.00  0.00    +0.007 C 
ATOM     10  C   UNL     1       0.002  -0.004   0.002  0.00  0.00    -0.014 C 
ATOM     11  C   UNL     1      -1.433  -0.534   0.013  0.00  0.00    +0.005 C 
ATOM     12  C   UNL     1      -1.413  -2.063   0.004  0.00  0.00    +0.022 C 
ATOM     13  C   UNL     1      -0.673  -2.570   1.244  0.00  0.00    +0.074 C 
ATOM     14  C   UNL     1       0.763  -2.041   1.233  0.00  0.00    +0.022 C 
ATOM     15  C   UNL     1       0.742  -0.511   1.242  0.00  0.00    +0.005 C 
ENDBRANCH   1  13
BRANCH   5  16
ATOM     16  C   UNL     1      -2.435  -2.550   7.087  0.00  0.00    +0.075 C 
ATOM     17  C   UNL     1      -2.312  -3.229   8.239  0.00  0.00    +0.101 C 
BRANCH  17  18
ATOM     18  C   UNL     1      -3.002  -2.753   9.452  0.00  0.00    +0.380 C 
ATOM     19  O   UNL     1      -3.686  -1.741   9.409  0.00  0.00    -0.241 OA
ATOM     20  O   UNL     1      -2.891  -3.372  10.501  0.00  0.00    -0.241 OA
ENDBRANCH  17  18
ENDBRANCH   5  16
TORSDOF 3
