REMARK  Name = ZINC58240702
REMARK  11 active torsions:
REMARK  status: ('A' for Active; 'I' for Inactive)
REMARK    1  A    between atoms: C_1  and  C_2
REMARK    2  A    between atoms: C_7  and  N_12
REMARK    3  A    between atoms: C_9  and  C_11
REMARK    4  A    between atoms: C_13  and  C_15
REMARK    5  A    between atoms: C_15  and  O_16
REMARK    6  A    between atoms: O_16  and  C_17
REMARK    7  A    between atoms: C_17  and  C_19
REMARK    8  A    between atoms: C_24  and  N_25
REMARK    9  A    between atoms: N_28  and  C_29
REMARK   10  A    between atoms: C_29  and  C_30
REMARK   11  A    between atoms: C_29  and  C_31
REMARK                            x       y       z     vdW  Elec       q    Type
REMARK                         _______ _______ _______ _____ _____    ______ ____
ROOT
ATOM      1  C   UNL     1      -3.517  -6.628   1.742  0.00  0.00    +0.341 C 
ATOM      2  O   UNL     1      -4.529  -6.093   1.332  0.00  0.00    -0.245 OA
ENDROOT
BRANCH   1   3
ATOM      3  C   UNL     1      -3.611  -7.776   2.660  0.00  0.00    +0.080 A 
ATOM      4  C   UNL     1      -2.457  -8.465   3.044  0.00  0.00    +0.017 A 
ATOM      5  C   UNL     1      -2.551  -9.538   3.903  0.00  0.00    +0.001 A 
ATOM      6  C   UNL     1      -3.786  -9.938   4.390  0.00  0.00    +0.002 A 
ATOM      7  C   UNL     1      -4.934  -9.268   4.020  0.00  0.00    +0.024 A 
ATOM      8  C   UNL     1      -4.858  -8.181   3.160  0.00  0.00    +0.049 A 
BRANCH   8   9
ATOM      9  N   UNL     1      -6.015  -7.499   2.790  0.00  0.00    -0.269 N 
ATOM     10  C   UNL     1      -7.131  -8.187   2.477  0.00  0.00    +0.304 C 
ATOM     11  O   UNL     1      -7.152  -9.397   2.591  0.00  0.00    -0.253 OA
ATOM     12  N   UNL     1      -8.225  -7.532   2.038  0.00  0.00    -0.297 N 
ATOM     13  H   UNL     1      -6.017  -6.530   2.757  0.00  0.00    +0.156 HD
ATOM     14  H   UNL     1      -8.208  -6.567   1.948  0.00  0.00    +0.151 HD
BRANCH  12  15
ATOM     15  C   UNL     1      -9.438  -8.280   1.699  0.00  0.00    +0.068 C 
ATOM     16  C   UNL     1     -10.656  -7.365   1.838  0.00  0.00    +0.027 C 
ATOM     17  C   UNL     1      -9.341  -8.783   0.257  0.00  0.00    +0.027 C 
ENDBRANCH  12  15
ENDBRANCH   8   9
ENDBRANCH   1   3
BRANCH   1  18
ATOM     18  O   UNL     1      -2.310  -6.170   1.355  0.00  0.00    -0.452 OA
BRANCH  18  19
ATOM     19  C   UNL     1      -2.294  -5.054   0.464  0.00  0.00    +0.328 C 
BRANCH  19  21
ATOM     20  N   UNL     1      -0.607  -3.654  -0.683  0.00  0.00    -0.309 N 
ATOM     21  C   UNL     1      -0.868  -4.685   0.145  0.00  0.00    +0.251 C 
ATOM     22  O   UNL     1       0.045  -5.317   0.634  0.00  0.00    -0.272 OA
ATOM     23  H   UNL     1      -1.337  -3.149  -1.074  0.00  0.00    +0.149 HD
BRANCH  20  29
ATOM     24  C   UNL     1       0.042  -0.110  -3.024  0.00  0.00    +0.008 C 
ATOM     25  C   UNL     1      -0.027  -1.585  -2.624  0.00  0.00    -0.009 C 
ATOM     26  C   UNL     1       0.477  -2.450  -3.781  0.00  0.00    +0.003 C 
ATOM     27  C   UNL     1       0.408  -3.926  -3.382  0.00  0.00    +0.002 C 
ATOM     28  C   UNL     1       1.284  -4.162  -2.149  0.00  0.00    +0.022 C 
ATOM     29  C   UNL     1       0.779  -3.296  -0.993  0.00  0.00    +0.076 C 
ATOM     30  C   UNL     1       0.848  -1.821  -1.392  0.00  0.00    +0.009 C 
ATOM     31  C   UNL     1       0.344  -0.956  -0.235  0.00  0.00    +0.009 C 
ENDBRANCH  20  29
ENDBRANCH  19  21
ENDBRANCH  18  19
ENDBRANCH   1  18
TORSDOF 7
