REMARK  Name = ZINC21534710
REMARK  12 active torsions:
REMARK  status: ('A' for Active; 'I' for Inactive)
REMARK    1  A    between atoms: C_1  and  C_2
REMARK    2  A    between atoms: C_2  and  C_3
REMARK    3  A    between atoms: C_7  and  C_26
REMARK    4  A    between atoms: C_9  and  S_10
REMARK    5  A    between atoms: S_10  and  C_11
REMARK    6  A    between atoms: C_11  and  C_13
REMARK    7  A    between atoms: C_11  and  C_14
REMARK    8  A    between atoms: N_16  and  C_17
REMARK    9  A    between atoms: C_18  and  C_25
REMARK   10  A    between atoms: C_20  and  C_24
REMARK   11  A    between atoms: C_22  and  C_23
REMARK   12  A    between atoms: N_32  and  C_34
REMARK                            x       y       z     vdW  Elec       q    Type
REMARK                         _______ _______ _______ _____ _____    ______ ____
ROOT
ATOM      1  C   UNL     1      10.298   0.475   2.422  0.00  0.00    +0.075 A 
ATOM      2  C   UNL     1       9.725  -0.764   2.066  0.00  0.00    +0.074 A 
ATOM      3  C   UNL     1      10.689  -1.756   2.332  0.00  0.00    +0.168 A 
ATOM      4  N   UNL     1      10.391  -3.028   2.078  0.00  0.00    -0.208 NA
ATOM      5  C   UNL     1       9.209  -3.358   1.584  0.00  0.00    +0.163 A 
ATOM      6  N   UNL     1       8.268  -2.456   1.323  0.00  0.00    -0.220 NA
ATOM      7  C   UNL     1       8.479  -1.163   1.540  0.00  0.00    +0.112 A 
ATOM      8  N   UNL     1      11.787  -1.109   2.827  0.00  0.00    -0.214 N 
ATOM      9  N   UNL     1      11.505   0.262   2.866  0.00  0.00    -0.169 NA
ENDROOT
BRANCH   5  10
ATOM     10  C   UNL     1       8.920  -4.788   1.318  0.00  0.00    +0.019 A 
ATOM     11  C   UNL     1       9.887  -5.757   1.581  0.00  0.00    +0.011 A 
ATOM     12  C   UNL     1       9.610  -7.087   1.337  0.00  0.00    +0.001 A 
ATOM     13  C   UNL     1       8.382  -7.457   0.820  0.00  0.00    +0.000 A 
ATOM     14  C   UNL     1       7.421  -6.499   0.552  0.00  0.00    +0.001 A 
ATOM     15  C   UNL     1       7.684  -5.167   0.797  0.00  0.00    +0.011 A 
ENDBRANCH   5  10
BRANCH   8  16
ATOM     16  C   UNL     1      12.985  -1.713   3.226  0.00  0.00    +0.068 A 
ATOM     17  C   UNL     1      12.967  -2.962   3.832  0.00  0.00    +0.028 A 
ATOM     18  C   UNL     1      14.152  -3.557   4.220  0.00  0.00    +0.002 A 
ATOM     19  C   UNL     1      15.354  -2.905   4.016  0.00  0.00    +0.000 A 
ATOM     20  C   UNL     1      15.375  -1.659   3.417  0.00  0.00    +0.002 A 
ATOM     21  C   UNL     1      14.194  -1.061   3.022  0.00  0.00    +0.028 A 
ENDBRANCH   8  16
BRANCH   1  23
ATOM     22  C   UNL     1       8.882   2.131   3.607  0.00  0.00    +0.010 C 
ATOM     23  C   UNL     1       9.627   1.820   2.308  0.00  0.00    +0.054 C 
ENDBRANCH   1  23
BRANCH   7  24
ATOM     24  S   UNL     1       7.228   0.026   1.184  0.00  0.00    -0.093 S 
BRANCH  24  25
ATOM     25  C   UNL     1       5.925  -1.065   0.561  0.00  0.00    +0.136 C 
ATOM     26  C   UNL     1       6.390  -1.723  -0.740  0.00  0.00    +0.029 C 
BRANCH  25  27
ATOM     27  C   UNL     1       4.678  -0.260   0.299  0.00  0.00    +0.230 C 
ATOM     28  O   UNL     1       4.761   0.927   0.067  0.00  0.00    -0.274 OA
ATOM     29  N   UNL     1       3.472  -0.860   0.322  0.00  0.00    -0.284 N 
ATOM     30  H   UNL     1       3.402  -1.950   0.460  0.00  0.00    +0.155 HD
BRANCH  29  31
ATOM     31  C   UNL     1       2.308  -0.098   0.172  0.00  0.00    +0.039 A 
ATOM     32  C   UNL     1       2.125   0.676  -0.967  0.00  0.00    -0.029 A 
ATOM     33  C   UNL     1       0.976   1.427  -1.112  0.00  0.00    +0.008 A 
ATOM     34  C   UNL     1       0.007   1.410  -0.125  0.00  0.00    -0.050 A 
ATOM     35  C   UNL     1       0.186   0.641   1.010  0.00  0.00    +0.008 A 
ATOM     36  C   UNL     1       1.334  -0.113   1.162  0.00  0.00    -0.029 A 
ATOM     37  C   UNL     1       1.528  -0.951   2.399  0.00  0.00    +0.045 C 
ATOM     38  C   UNL     1      -1.243   2.236  -0.284  0.00  0.00    +0.044 C 
ATOM     39  C   UNL     1       3.180   0.695  -2.043  0.00  0.00    +0.045 C 
ENDBRANCH  29  31
ENDBRANCH  25  27
ENDBRANCH  24  25
ENDBRANCH   7  24
TORSDOF 7
