REMARK  Name = ZINC31168342
REMARK  20 active torsions:
REMARK  status: ('A' for Active; 'I' for Inactive)
REMARK    1  A    between atoms: C_1  and  C_2
REMARK    2  A    between atoms: C_2  and  C_3
REMARK    3  A    between atoms: C_3  and  C_5
REMARK    4  A    between atoms: C_3  and  C_6
REMARK    5  A    between atoms: C_6  and  O_8
REMARK    6  A    between atoms: O_8  and  C_9
REMARK    7  A    between atoms: C_14  and  C_40
REMARK    8  A    between atoms: C_14  and  C_41
REMARK    9  A    between atoms: C_15  and  C_39
REMARK   10  A    between atoms: C_17  and  O_38
REMARK   11  A    between atoms: C_19  and  O_37
REMARK   12  A    between atoms: C_22  and  O_33
REMARK   13  A    between atoms: C_25  and  O_29
REMARK   14  A    between atoms: O_29  and  C_30
REMARK   15  A    between atoms: C_30  and  C_32
REMARK   16  A    between atoms: O_33  and  C_34
REMARK   17  A    between atoms: C_34  and  C_36
REMARK   18  A    between atoms: C_41  and  C_42
REMARK   19  A    between atoms: C_42  and  C_43
REMARK   20  A    between atoms: C_43  and  C_45
REMARK                            x       y       z     vdW  Elec       q    Type
REMARK                         _______ _______ _______ _____ _____    ______ ____
ROOT
ATOM      1  C   UNL     1      -5.906  -0.817  -6.399  0.00  0.00    +0.200 C 
ATOM      2  C   UNL     1      -6.145  -0.743  -4.887  0.00  0.00    +0.054 C 
ATOM      3  C   UNL     1      -5.020   0.073  -4.231  0.00  0.00    +0.018 C 
ATOM      4  C   UNL     1      -5.064  -0.092  -2.727  0.00  0.00    -0.023 C 
ATOM      5  C   UNL     1      -6.191   0.677  -2.066  0.00  0.00    +0.023 C 
ATOM      6  C   UNL     1      -6.265   2.112  -2.522  0.00  0.00    +0.147 C 
ATOM      7  C   UNL     1      -6.406   2.164  -4.046  0.00  0.00    +0.160 C 
ATOM      8  C   UNL     1      -5.185   1.509  -4.677  0.00  0.00    +0.092 C 
ATOM      9  C   UNL     1      -3.932   2.367  -4.445  0.00  0.00    +0.327 C 
ATOM     10  O   UNL     1      -4.002   3.390  -5.460  0.00  0.00    -0.297 OA
ATOM     11  C   UNL     1      -4.821   2.928  -6.547  0.00  0.00    +0.343 C 
ATOM     12  C   UNL     1      -5.305   1.542  -6.194  0.00  0.00    +0.012 C 
ATOM     13  C   UNL     1      -5.659   0.560  -6.958  0.00  0.00    +0.023 C 
ATOM     14  C   UNL     1      -6.002   0.632  -0.548  0.00  0.00    +0.011 C 
ATOM     15  C   UNL     1      -5.232  -1.577  -2.402  0.00  0.00    +0.012 C 
ENDROOT
BRANCH   7  16
ATOM     16  O   UNL     1      -6.493   3.525  -4.472  0.00  0.00    -0.388 OA
ATOM     17  H   UNL     1      -6.599   3.761  -5.542  0.00  0.00    +0.210 HD
ENDBRANCH   7  16
BRANCH   6  18
ATOM     18  O   UNL     1      -5.065   2.783  -2.131  0.00  0.00    -0.389 OA
ATOM     19  H   UNL     1      -4.926   3.847  -2.374  0.00  0.00    +0.210 HD
ENDBRANCH   6  18
BRANCH   1  20
ATOM     20  O   UNL     1      -7.082  -1.385  -7.033  0.00  0.00    -0.457 OA
BRANCH  20  21
ATOM     21  C   UNL     1      -6.886  -2.095  -8.155  0.00  0.00    +0.310 C 
ATOM     22  O   UNL     1      -5.768  -2.237  -8.593  0.00  0.00    -0.251 OA
BRANCH  21  23
ATOM     23  C   UNL     1      -8.059  -2.716  -8.870  0.00  0.00    +0.094 C 
ATOM     24  C   UNL     1      -9.036  -1.618  -9.294  0.00  0.00    +0.019 C 
BRANCH  23  26
ATOM     25  C   UNL     1      -8.736  -4.197 -10.764  0.00  0.00    +0.004 C 
ATOM     26  C   UNL     1      -7.564  -3.464 -10.109  0.00  0.00    +0.011 C 
ENDBRANCH  23  26
ENDBRANCH  21  23
ENDBRANCH  20  21
ENDBRANCH   1  20
BRANCH  11  27
ATOM     27  O   UNL     1      -4.038   2.883  -7.769  0.00  0.00    -0.431 OA
BRANCH  27  28
ATOM     28  C   UNL     1      -3.615   4.056  -8.265  0.00  0.00    +0.306 C 
ATOM     29  O   UNL     1      -3.890   5.087  -7.697  0.00  0.00    -0.251 OA
ATOM     30  C   UNL     1      -2.798   4.088  -9.531  0.00  0.00    +0.136 C 
ENDBRANCH  27  28
ENDBRANCH  11  27
BRANCH   9  31
ATOM     31  O   UNL     1      -2.732   1.567  -4.614  0.00  0.00    -0.434 OA
BRANCH  31  32
ATOM     32  C   UNL     1      -1.555   2.196  -4.467  0.00  0.00    +0.306 C 
ATOM     33  O   UNL     1      -1.528   3.353  -4.119  0.00  0.00    -0.251 OA
ATOM     34  C   UNL     1      -0.268   1.459  -4.735  0.00  0.00    +0.136 C 
ENDBRANCH  31  32
ENDBRANCH   9  31
BRANCH   4  35
ATOM     35  C   UNL     1      -3.735   0.389  -2.142  0.00  0.00    +0.012 C 
BRANCH  35  36
ATOM     36  C   UNL     1      -3.369   1.744  -2.753  0.00  0.00    +0.035 C 
BRANCH  36  37
ATOM     37  C   UNL     1      -1.999   2.155  -2.280  0.00  0.00    -0.055 C 
ATOM     38  C   UNL     1      -0.921   1.536  -2.749  0.00  0.00    +0.012 C 
BRANCH  37  39
ATOM     39  C   UNL     1      -1.855   3.242  -1.299  0.00  0.00    -0.005 C 
ATOM     40  C   UNL     1      -2.934   3.793  -0.756  0.00  0.00    +0.009 C 
ENDBRANCH  37  39
ENDBRANCH  36  37
ENDBRANCH  35  36
ENDBRANCH   4  35
TORSDOF 14
