REMARK  Name = ZINC39709869
REMARK  11 active torsions:
REMARK  status: ('A' for Active; 'I' for Inactive)
REMARK    1  A    between atoms: C_1  and  C_2
REMARK    2  A    between atoms: C_2  and  C_3
REMARK    3  A    between atoms: C_8  and  C_12
REMARK    4  A    between atoms: C_12  and  C_14
REMARK    5  A    between atoms: C_14  and  S_15
REMARK    6  A    between atoms: S_15  and  C_16
REMARK    7  A    between atoms: C_20  and  C_28
REMARK    8  A    between atoms: N_22  and  C_23
REMARK    9  A    between atoms: C_23  and  C_24
REMARK   10  A    between atoms: C_24  and  C_25
REMARK   11  A    between atoms: C_32  and  C_34
REMARK                            x       y       z     vdW  Elec       q    Type
REMARK                         _______ _______ _______ _____ _____    ______ ____
ROOT
ATOM      1  C   UNL     1      -1.425  -2.276   9.856  0.00  0.00    +0.077 C 
ATOM      2  N   UNL     1      -1.993  -0.912   9.946  0.00  0.00    -0.262 NA
ATOM      3  N   UNL     1      -3.127  -0.923   9.008  0.00  0.00    -0.267 NA
ATOM      4  C   UNL     1      -3.697  -2.284   9.188  0.00  0.00    +0.049 C 
ATOM      5  N   UNL     1      -2.511  -3.154   9.374  0.00  0.00    +0.411 N 
ATOM      6  H   UNL     1      -2.302  -0.710  10.885  0.00  0.00    +0.140 HD
ATOM      7  H   UNL     1      -3.802  -0.213   9.250  0.00  0.00    +0.139 HD
ATOM      8  H   UNL     1      -2.251  -3.578   8.496  0.00  0.00    -0.075 HD
ENDROOT
BRANCH   4   9
ATOM      9  C   UNL     1      -4.471  -2.697   7.962  0.00  0.00    -0.046 A 
ATOM     10  C   UNL     1      -4.534  -4.030   7.601  0.00  0.00    +0.003 A 
ATOM     11  C   UNL     1      -5.243  -4.409   6.477  0.00  0.00    +0.001 A 
ATOM     12  C   UNL     1      -5.890  -3.455   5.714  0.00  0.00    +0.003 A 
ATOM     13  C   UNL     1      -5.828  -2.122   6.075  0.00  0.00    -0.050 A 
ATOM     14  C   UNL     1      -5.122  -1.744   7.202  0.00  0.00    +0.006 A 
ATOM     15  C   UNL     1      -6.532  -1.082   5.243  0.00  0.00    +0.044 C 
ENDBRANCH   4   9
BRANCH   1  16
ATOM     16  S   UNL     1      -0.042  -2.298   8.683  0.00  0.00    -0.152 S 
BRANCH  16  17
ATOM     17  C   UNL     1      -0.773  -1.709   7.131  0.00  0.00    +0.148 C 
BRANCH  17  18
ATOM     18  C   UNL     1       0.284  -1.679   6.057  0.00  0.00    +0.171 C 
ATOM     19  O   UNL     1       1.421  -2.021   6.314  0.00  0.00    -0.291 OA
BRANCH  18  25
ATOM     20  C   UNL     1       0.731  -0.503   1.223  0.00  0.00    -0.024 A 
ATOM     21  C   UNL     1       2.046  -0.804   1.160  0.00  0.00    +0.005 A 
ATOM     22  C   UNL     1       2.756  -1.270   2.278  0.00  0.00    +0.001 A 
ATOM     23  C   UNL     1       2.174  -1.450   3.485  0.00  0.00    +0.010 A 
ATOM     24  C   UNL     1       0.799  -1.166   3.662  0.00  0.00    +0.006 A 
ATOM     25  C   UNL     1      -0.046  -1.252   4.753  0.00  0.00    +0.024 C 
ATOM     26  C   UNL     1      -1.400  -0.795   4.256  0.00  0.00    +0.152 C 
ATOM     27  N   UNL     1      -1.221  -0.462   2.839  0.00  0.00    -0.380 N 
ATOM     28  C   UNL     1       0.021  -0.664   2.502  0.00  0.00    +0.046 A 
ATOM     29  H   UNL     1      -1.917  -0.137   2.247  0.00  0.00    +0.160 HD
BRANCH  20  31
ATOM     30  C   UNL     1      -0.019   1.526   0.010  0.00  0.00    +0.009 C 
ATOM     31  C   UNL     1       0.002  -0.004   0.002  0.00  0.00    +0.034 C 
ENDBRANCH  20  31
ENDBRANCH  18  25
ENDBRANCH  17  18
ENDBRANCH  16  17
ENDBRANCH   1  16
BRANCH   5  32
ATOM     32  C   UNL     1      -2.800  -4.194  10.371  0.00  0.00    -0.061 C 
BRANCH  32  33
ATOM     33  C   UNL     1      -1.597  -5.131  10.492  0.00  0.00    +0.107 C 
BRANCH  33  34
ATOM     34  C   UNL     1      -1.893  -6.198  11.515  0.00  0.00    +0.354 C 
ATOM     35  O   UNL     1      -2.966  -6.207  12.094  0.00  0.00    -0.246 OA
ATOM     36  O   UNL     1      -1.059  -7.051  11.765  0.00  0.00    -0.246 OA
ENDBRANCH  33  34
ENDBRANCH  32  33
ENDBRANCH   5  32
TORSDOF 9
