REMARK  Name = ZINC40986373
REMARK  11 active torsions:
REMARK  status: ('A' for Active; 'I' for Inactive)
REMARK    1  A    between atoms: C_1  and  C_2
REMARK    2  A    between atoms: C_2  and  C_3
REMARK    3  A    between atoms: C_6  and  C_9
REMARK    4  A    between atoms: C_9  and  C_11
REMARK    5  A    between atoms: C_9  and  N_33
REMARK    6  A    between atoms: C_11  and  N_12
REMARK    7  A    between atoms: C_13  and  C_15
REMARK    8  A    between atoms: C_18  and  S_22
REMARK    9  A    between atoms: S_22  and  C_25
REMARK   10  A    between atoms: C_25  and  C_26
REMARK   11  A    between atoms: C_29  and  C_32
REMARK                            x       y       z     vdW  Elec       q    Type
REMARK                         _______ _______ _______ _____ _____    ______ ____
ROOT
ATOM      1  N   UNL     1       3.719  -1.287   6.850  0.00  0.00    -0.312 N 
ATOM      2  C   UNL     1       4.064  -0.435   7.835  0.00  0.00    +0.248 C 
ATOM      3  O   UNL     1       3.969   0.764   7.663  0.00  0.00    -0.270 OA
ATOM      4  H   UNL     1       3.795  -2.244   6.987  0.00  0.00    +0.149 HD
ENDROOT
BRANCH   2   5
ATOM      5  C   UNL     1       4.558  -0.960   9.125  0.00  0.00    +0.092 A 
ATOM      6  C   UNL     1       4.681  -2.337   9.343  0.00  0.00    +0.130 A 
ATOM      7  N   UNL     1       5.128  -2.762  10.512  0.00  0.00    -0.219 NA
ATOM      8  C   UNL     1       5.455  -1.911  11.464  0.00  0.00    +0.272 A 
ATOM      9  N   UNL     1       5.356  -0.606  11.304  0.00  0.00    -0.199 NA
ATOM     10  C   UNL     1       4.923  -0.092  10.164  0.00  0.00    +0.146 A 
ATOM     11 CL   UNL     1       4.802   1.628   9.961  0.00  0.00    -0.061 Cl
BRANCH   8  12
ATOM     12  S   UNL     1       6.045  -2.538  13.002  0.00  0.00    +0.036 S 
ATOM     13  O   UNL     1       5.723  -1.531  13.952  0.00  0.00    -0.166 OA
ATOM     14  O   UNL     1       5.479  -3.837  13.105  0.00  0.00    -0.166 OA
BRANCH  12  15
ATOM     15  C   UNL     1       7.843  -2.654  12.800  0.00  0.00    +0.210 C 
BRANCH  15  16
ATOM     16  C   UNL     1       8.459  -3.185  14.069  0.00  0.00    -0.026 A 
ATOM     17  C   UNL     1       8.854  -2.311  15.064  0.00  0.00    +0.005 A 
ATOM     18  C   UNL     1       9.418  -2.798  16.228  0.00  0.00    +0.003 A 
ATOM     19  C   UNL     1       9.586  -4.160  16.397  0.00  0.00    -0.050 A 
ATOM     20  C   UNL     1       9.190  -5.034  15.403  0.00  0.00    +0.003 A 
ATOM     21  C   UNL     1       8.622  -4.547  14.240  0.00  0.00    +0.005 A 
ATOM     22  C   UNL     1      10.202  -4.691  17.666  0.00  0.00    +0.044 C 
ENDBRANCH  15  16
ENDBRANCH  12  15
ENDBRANCH   8  12
ENDBRANCH   2   5
BRANCH   1  23
ATOM     23  C   UNL     1       3.229  -0.767   5.571  0.00  0.00    +0.094 C 
BRANCH  23  24
ATOM     24  C   UNL     1       3.034  -1.925   4.590  0.00  0.00    -0.020 C 
BRANCH  24  28
ATOM     25  C   UNL     1       6.822  -3.682   3.688  0.00  0.00    -0.048 A 
ATOM     26  C   UNL     1       5.986  -4.279   4.614  0.00  0.00    +0.004 A 
ATOM     27  C   UNL     1       4.761  -3.710   4.906  0.00  0.00    +0.002 A 
ATOM     28  C   UNL     1       4.371  -2.545   4.273  0.00  0.00    -0.059 A 
ATOM     29  C   UNL     1       5.207  -1.948   3.348  0.00  0.00    +0.002 A 
ATOM     30  C   UNL     1       6.434  -2.514   3.059  0.00  0.00    +0.004 A 
BRANCH  25  32
ATOM     31  C   UNL     1       9.220  -3.741   4.318  0.00  0.00    +0.009 C 
ATOM     32  C   UNL     1       8.158  -4.302   3.370  0.00  0.00    +0.032 C 
ENDBRANCH  25  32
ENDBRANCH  24  28
BRANCH  24  33
ATOM     33  N   UNL     1       2.421  -1.422   3.354  0.00  0.00    +0.385 N 
ATOM     34  C   UNL     1       2.212  -2.538   2.395  0.00  0.00    -0.078 C 
ATOM     35  C   UNL     1       1.105  -1.996   1.457  0.00  0.00    -0.020 C 
ATOM     36  C   UNL     1       0.190  -1.207   2.421  0.00  0.00    -0.020 C 
ATOM     37  C   UNL     1       1.076  -0.876   3.636  0.00  0.00    -0.078 C 
ATOM     38  H   UNL     1       3.005  -0.711   2.940  0.00  0.00    -0.081 HD
ENDBRANCH  24  33
ENDBRANCH  23  24
ENDBRANCH   1  23
TORSDOF 9
