REMARK  Name = ZINC55444147
REMARK  7 active torsions:
REMARK  status: ('A' for Active; 'I' for Inactive)
REMARK    1  A    between atoms: C_1  and  C_2
REMARK    2  A    between atoms: C_4  and  O_30
REMARK    3  A    between atoms: C_5  and  C_29
REMARK    4  A    between atoms: C_6  and  O_28
REMARK    5  A    between atoms: C_7  and  C_8
REMARK    6  A    between atoms: N_9  and  N_10
REMARK    7  A    between atoms: C_11  and  C_13
REMARK                            x       y       z     vdW  Elec       q    Type
REMARK                         _______ _______ _______ _____ _____    ______ ____
ROOT
ATOM      1  N   UNL     1       0.321  -2.034   3.585  0.00  0.00    -0.204 N 
ATOM      2  C   UNL     1       0.520  -2.686   4.747  0.00  0.00    +0.276 C 
ATOM      3  O   UNL     1       0.512  -2.075   5.795  0.00  0.00    -0.270 OA
ATOM      4  H   UNL     1       0.328  -2.522   2.747  0.00  0.00    +0.177 HD
ENDROOT
BRANCH   2   5
ATOM      5  C   UNL     1       0.755  -4.175   4.744  0.00  0.00    +0.297 C 
ATOM      6  C   UNL     1      -0.508  -4.897   4.256  0.00  0.00    +0.283 C 
ATOM      7  O   UNL     1      -0.253  -6.305   4.269  0.00  0.00    -0.484 OA
ATOM      8  C   UNL     1       0.335  -6.811   5.388  0.00  0.00    +0.163 A 
ATOM      9  C   UNL     1       0.275  -8.158   5.612  0.00  0.00    +0.058 A 
ATOM     10  C   UNL     1       0.876  -8.706   6.757  0.00  0.00    -0.014 A 
ATOM     11  C   UNL     1       0.830 -10.086   7.015  0.00  0.00    +0.008 A 
ATOM     12  C   UNL     1       1.422 -10.583   8.135  0.00  0.00    +0.001 A 
ATOM     13  C   UNL     1       2.077  -9.742   9.033  0.00  0.00    +0.001 A 
ATOM     14  C   UNL     1       2.142  -8.399   8.816  0.00  0.00    +0.008 A 
ATOM     15  C   UNL     1       1.542  -7.850   7.670  0.00  0.00    -0.014 A 
ATOM     16  C   UNL     1       1.587  -6.470   7.415  0.00  0.00    +0.058 A 
ATOM     17  C   UNL     1       0.991  -5.964   6.294  0.00  0.00    +0.164 A 
ATOM     18  O   UNL     1       1.042  -4.621   6.074  0.00  0.00    -0.472 OA
ENDBRANCH   2   5
BRANCH   1  20
ATOM     19  C   UNL     1       0.001  -0.006   2.464  0.00  0.00    +0.142 C 
ATOM     20  N   UNL     1       0.103  -0.650   3.587  0.00  0.00    -0.187 NA
BRANCH  19  27
ATOM     21  C   UNL     1       1.943   0.605   0.411  0.00  0.00    +0.044 C 
ATOM     22  C   UNL     1       0.901  -0.462   0.190  0.00  0.00    -0.035 A 
ATOM     23  C   UNL     1       0.872  -1.161  -0.997  0.00  0.00    +0.050 A 
ATOM     24  C   UNL     1      -0.086  -2.146  -1.205  0.00  0.00    +0.124 A 
ATOM     25  C   UNL     1      -1.020  -2.433  -0.219  0.00  0.00    +0.033 A 
ATOM     26  C   UNL     1      -1.000  -1.738   0.977  0.00  0.00    +0.132 A 
ATOM     27  C   UNL     1      -0.030  -0.747   1.191  0.00  0.00    +0.039 A 
ATOM     28  C   UNL     1      -2.056  -3.502  -0.451  0.00  0.00    +0.051 C 
BRANCH  26  29
ATOM     29  O   UNL     1      -1.913  -2.018   1.943  0.00  0.00    -0.506 OA
ATOM     30  H   UNL     1      -1.666  -2.756   2.516  0.00  0.00    +0.292 HD
ENDBRANCH  26  29
BRANCH  24  31
ATOM     31  O   UNL     1      -0.110  -2.830  -2.378  0.00  0.00    -0.506 OA
ATOM     32  H   UNL     1       0.430  -3.633  -2.376  0.00  0.00    +0.292 HD
ENDBRANCH  24  31
ENDBRANCH  19  27
ENDBRANCH   1  20
TORSDOF 5
