REMARK  Name = ZINC12879253
REMARK  9 active torsions:
REMARK  status: ('A' for Active; 'I' for Inactive)
REMARK    1  A    between atoms: C_1  and  C_2
REMARK    2  A    between atoms: C_2  and  C_3
REMARK    3  A    between atoms: C_3  and  C_4
REMARK    4  A    between atoms: C_4  and  C_5
REMARK    5  A    between atoms: C_8  and  N_11
REMARK    6  A    between atoms: C_16  and  C_32
REMARK    7  A    between atoms: C_32  and  C_33
REMARK    8  A    between atoms: C_33  and  S_34
REMARK    9  A    between atoms: S_34  and  C_35
REMARK                            x       y       z     vdW  Elec       q    Type
REMARK                         _______ _______ _______ _____ _____    ______ ____
ROOT
ATOM      1  N   UNL     1      -2.429   1.039   0.019  0.00  0.00    -0.210 N 
ATOM      2  C   UNL     1      -2.481  -0.294  -0.092  0.00  0.00    +0.228 C 
ATOM      3  O   UNL     1      -1.520  -1.024  -0.206  0.00  0.00    -0.275 OA
ATOM      4  C   UNL     1      -3.922  -0.747  -0.049  0.00  0.00    +0.073 C 
ATOM      5  C   UNL     1      -4.332  -1.309  -1.426  0.00  0.00    -0.057 C 
ATOM      6  C   UNL     1      -5.498   0.705  -1.222  0.00  0.00    +0.050 C 
ATOM      7  C   UNL     1      -4.712   0.585   0.090  0.00  0.00    +0.088 C 
ATOM      8  C   UNL     1      -3.623   1.633   0.126  0.00  0.00    +0.229 C 
ATOM      9  O   UNL     1      -3.804   2.827   0.235  0.00  0.00    -0.275 OA
ATOM     10  C   UNL     1      -6.917   0.235  -1.059  0.00  0.00    -0.028 A 
ATOM     11  C   UNL     1      -7.481  -0.963  -0.682  0.00  0.00    +0.004 A 
ATOM     12  C   UNL     1      -8.858  -1.091  -0.625  0.00  0.00    +0.000 A 
ATOM     13  C   UNL     1      -9.664  -0.014  -0.946  0.00  0.00    +0.002 A 
ATOM     14  C   UNL     1      -9.102   1.188  -1.324  0.00  0.00    +0.023 A 
ATOM     15  C   UNL     1      -7.717   1.326  -1.386  0.00  0.00    +0.036 A 
ATOM     16  N   UNL     1      -6.924   2.421  -1.736  0.00  0.00    -0.286 N 
ATOM     17  C   UNL     1      -5.609   2.137  -1.667  0.00  0.00    +0.211 C 
ATOM     18  O   UNL     1      -4.691   2.890  -1.916  0.00  0.00    -0.277 OA
ATOM     19  H   UNL     1      -7.278   3.285  -1.997  0.00  0.00    +0.155 HD
ATOM     20  N   UNL     1      -4.793  -0.132  -2.169  0.00  0.00    +0.394 N 
ATOM     21  H   UNL     1      -5.423  -0.417  -2.928  0.00  0.00    -0.083 HD
ATOM     22  H   UNL     1      -3.991   0.375  -2.562  0.00  0.00    -0.083 HD
ENDROOT
BRANCH   1  26
ATOM     23  C   UNL     1       1.153   3.171   0.012  0.00  0.00    -0.047 A 
ATOM     24  C   UNL     1       0.740   2.511  -1.131  0.00  0.00    +0.005 A 
ATOM     25  C   UNL     1      -0.445   1.801  -1.131  0.00  0.00    +0.024 A 
ATOM     26  C   UNL     1      -1.224   1.754   0.017  0.00  0.00    +0.044 A 
ATOM     27  C   UNL     1      -0.804   2.413   1.165  0.00  0.00    +0.024 A 
ATOM     28  C   UNL     1       0.382   3.121   1.159  0.00  0.00    +0.005 A 
BRANCH  23  29
ATOM     29  C   UNL     1       2.446   3.945   0.008  0.00  0.00    +0.035 C 
BRANCH  29  30
ATOM     30  C   UNL     1       2.174   5.389  -0.418  0.00  0.00    +0.004 C 
BRANCH  30  32
ATOM     31  C   UNL     1       3.216   7.619  -0.849  0.00  0.00    +0.004 C 
ATOM     32  C   UNL     1       3.487   6.175  -0.422  0.00  0.00    -0.003 C 
ENDBRANCH  30  32
ENDBRANCH  29  30
ENDBRANCH  23  29
ENDBRANCH   1  26
BRANCH   5  33
ATOM     33  C   UNL     1      -3.132  -1.965  -2.112  0.00  0.00    -0.004 C 
BRANCH  33  34
ATOM     34  C   UNL     1      -3.586  -2.623  -3.416  0.00  0.00    +0.067 C 
BRANCH  34  35
ATOM     35  S   UNL     1      -2.163  -3.401  -4.229  0.00  0.00    -0.164 S 
ATOM     36  C   UNL     1      -2.862  -4.126  -5.738  0.00  0.00    +0.084 C 
ENDBRANCH  34  35
ENDBRANCH  33  34
ENDBRANCH   5  33
TORSDOF 7
