REMARK  Name = ZINC04765617
REMARK  18 active torsions:
REMARK  status: ('A' for Active; 'I' for Inactive)
REMARK    1  A    between atoms: C_1  and  C_2
REMARK    2  A    between atoms: C_7  and  C_22
REMARK    3  A    between atoms: C_9  and  C_13
REMARK    4  A    between atoms: C_10  and  C_12
REMARK    5  A    between atoms: C_13  and  O_15
REMARK    6  A    between atoms: O_15  and  C_16
REMARK    7  A    between atoms: C_16  and  C_17
REMARK    8  A    between atoms: C_17  and  O_18
REMARK    9  A    between atoms: O_18  and  C_19
REMARK   10  A    between atoms: C_19  and  C_20
REMARK   11  A    between atoms: C_19  and  C_21
REMARK   12  A    between atoms: C_27  and  O_28
REMARK   13  A    between atoms: O_28  and  C_29
REMARK   14  A    between atoms: C_29  and  C_30
REMARK   15  A    between atoms: C_29  and  C_31
REMARK   16  A    between atoms: C_34  and  C_36
REMARK   17  A    between atoms: C_36  and  O_38
REMARK   18  A    between atoms: O_38  and  C_39
REMARK                            x       y       z     vdW  Elec       q    Type
REMARK                         _______ _______ _______ _____ _____    ______ ____
ROOT
ATOM      1  C   UNL     1      -4.993   3.504  -5.513  0.00  0.00    +0.009 C 
ATOM      2  C   UNL     1      -4.448   3.733  -4.101  0.00  0.00    +0.013 C 
ATOM      3  C   UNL     1      -4.612   2.460  -3.269  0.00  0.00    +0.055 C 
ATOM      4  C   UNL     1      -4.029   2.675  -1.894  0.00  0.00    +0.016 C 
ATOM      5  C   UNL     1      -2.986   3.511  -1.704  0.00  0.00    +0.025 C 
ATOM      6  C   UNL     1      -2.401   3.711  -0.328  0.00  0.00    +0.096 C 
ATOM      7  C   UNL     1      -3.356   3.253   0.735  0.00  0.00    +0.065 C 
ATOM      8  C   UNL     1      -4.382   2.435   0.445  0.00  0.00    +0.016 C 
ATOM      9  N   UNL     1      -4.584   2.004  -0.837  0.00  0.00    -0.321 N 
ATOM     10  C   UNL     1      -5.317   1.990   1.539  0.00  0.00    +0.061 C 
ATOM     11  C   UNL     1      -2.417   4.217  -2.778  0.00  0.00    +0.176 C 
ATOM     12  O   UNL     1      -1.472   4.953  -2.574  0.00  0.00    -0.291 OA
ATOM     13  C   UNL     1      -2.957   4.078  -4.175  0.00  0.00    +0.171 C 
ATOM     14  H   UNL     1      -5.199   1.110  -1.015  0.00  0.00    +0.152 HD
ENDROOT
BRANCH   6  15
ATOM     15  C   UNL     1      -1.120   2.925  -0.216  0.00  0.00    +0.006 A 
ATOM     16  C   UNL     1      -1.147   1.545  -0.292  0.00  0.00    +0.008 A 
ATOM     17  C   UNL     1       0.026   0.823  -0.183  0.00  0.00    +0.001 A 
ATOM     18  C   UNL     1       1.231   1.479  -0.008  0.00  0.00    +0.004 A 
ATOM     19  C   UNL     1       1.264   2.858   0.063  0.00  0.00    +0.046 A 
ATOM     20  C   UNL     1       0.087   3.585  -0.041  0.00  0.00    +0.125 A 
BRANCH  20  21
ATOM     21  O   UNL     1       0.117   4.942   0.028  0.00  0.00    -0.489 OA
BRANCH  21  22
ATOM     22  C   UNL     1       1.378   5.549   0.314  0.00  0.00    +0.167 C 
ATOM     23  C   UNL     1       2.094   5.880  -0.998  0.00  0.00    +0.051 C 
ATOM     24  C   UNL     1       1.156   6.835   1.112  0.00  0.00    +0.051 C 
ENDBRANCH  21  22
ENDBRANCH  20  21
ENDBRANCH   6  15
BRANCH   7  25
ATOM     25  C   UNL     1      -3.172   3.690   2.067  0.00  0.00    +0.338 C 
ATOM     26  O   UNL     1      -2.314   4.514   2.325  0.00  0.00    -0.245 OA
BRANCH  25  27
ATOM     27  O   UNL     1      -3.948   3.193   3.053  0.00  0.00    -0.459 OA
BRANCH  27  28
ATOM     28  C   UNL     1      -3.784   3.760   4.355  0.00  0.00    +0.260 C 
BRANCH  28  29
ATOM     29  C   UNL     1      -4.651   2.993   5.357  0.00  0.00    +0.201 C 
BRANCH  29  30
ATOM     30  O   UNL     1      -4.181   1.648   5.462  0.00  0.00    -0.374 OA
BRANCH  30  31
ATOM     31  C   UNL     1      -4.991   0.812   6.291  0.00  0.00    +0.112 C 
ATOM     32  C   UNL     1      -6.002   0.061   5.423  0.00  0.00    +0.037 C 
ATOM     33  C   UNL     1      -4.103  -0.193   7.025  0.00  0.00    +0.037 C 
ENDBRANCH  30  31
ENDBRANCH  29  30
ENDBRANCH  28  29
ENDBRANCH  27  28
ENDBRANCH  25  27
ENDBRANCH   7  25
BRANCH  13  34
ATOM     34  C   UNL     1      -2.775   5.377  -4.918  0.00  0.00    +0.318 C 
ATOM     35  O   UNL     1      -3.737   5.963  -5.353  0.00  0.00    -0.250 OA
BRANCH  34  36
ATOM     36  O   UNL     1      -1.544   5.881  -5.096  0.00  0.00    -0.467 OA
ATOM     37  C   UNL     1      -1.444   7.136  -5.820  0.00  0.00    +0.280 C 
ENDBRANCH  34  36
ENDBRANCH  13  34
TORSDOF 11
