REMARK  Name = ZINC45585907
REMARK  7 active torsions:
REMARK  status: ('A' for Active; 'I' for Inactive)
REMARK    1  A    between atoms: C_1  and  C_2
REMARK    2  A    between atoms: C_7  and  S_10
REMARK    3  A    between atoms: S_10  and  C_11
REMARK    4  A    between atoms: C_11  and  C_12
REMARK    5  A    between atoms: C_12  and  C_13
REMARK    6  A    between atoms: C_12  and  C_19
REMARK    7  A    between atoms: C_12  and  N_22
REMARK                            x       y       z     vdW  Elec       q    Type
REMARK                         _______ _______ _______ _____ _____    ______ ____
ROOT
ATOM      1  C   UNL     1       2.889   2.342  -5.602  0.00  0.00    +0.068 C 
ENDROOT
BRANCH   1   2
ATOM      2  C   UNL     1       4.276   1.871  -5.247  0.00  0.00    -0.047 A 
ATOM      3  C   UNL     1       4.445   0.835  -4.348  0.00  0.00    +0.003 A 
ATOM      4  C   UNL     1       5.717   0.402  -4.022  0.00  0.00    +0.000 A 
ATOM      5  C   UNL     1       6.820   1.006  -4.596  0.00  0.00    +0.000 A 
ATOM      6  C   UNL     1       6.651   2.041  -5.497  0.00  0.00    +0.000 A 
ATOM      7  C   UNL     1       5.379   2.470  -5.825  0.00  0.00    +0.003 A 
ENDBRANCH   1   2
BRANCH   1   8
ATOM      8  N   UNL     1       2.930   3.771  -5.941  0.00  0.00    +0.392 N 
ATOM      9  H   UNL     1       3.271   4.295  -5.149  0.00  0.00    -0.088 HD
ATOM     10  H   UNL     1       3.545   3.913  -6.728  0.00  0.00    -0.088 HD
ATOM     11  H   UNL     1       2.001   4.086  -6.179  0.00  0.00    -0.088 HD
ENDBRANCH   1   8
BRANCH   1  12
ATOM     12  C   UNL     1       2.380   1.559  -6.785  0.00  0.00    +0.350 C 
ATOM     13  O   UNL     1       2.079   2.138  -7.815  0.00  0.00    -0.248 OA
ATOM     14  O   UNL     1       2.270   0.347  -6.712  0.00  0.00    -0.248 OA
ENDBRANCH   1  12
BRANCH   1  15
ATOM     15  C   UNL     1       1.957   2.127  -4.409  0.00  0.00    +0.080 C 
BRANCH  15  16
ATOM     16  S   UNL     1       0.259   2.556  -4.883  0.00  0.00    -0.088 S 
BRANCH  16  23
ATOM     17  C   UNL     1      -0.013   1.086   0.008  0.00  0.00    +0.066 C 
ATOM     18  C   UNL     1      -0.742   1.585  -1.213  0.00  0.00    +0.046 A 
ATOM     19  C   UNL     1      -2.090   1.794  -1.164  0.00  0.00    +0.093 A 
ATOM     20  C   UNL     1      -2.748   2.260  -2.315  0.00  0.00    +0.252 A 
ATOM     21  O   UNL     1      -3.952   2.457  -2.306  0.00  0.00    -0.268 OA
ATOM     22  N   UNL     1      -2.023   2.485  -3.431  0.00  0.00    -0.302 N 
ATOM     23  C   UNL     1      -0.680   2.259  -3.422  0.00  0.00    +0.169 A 
ATOM     24  N   UNL     1      -0.069   1.827  -2.335  0.00  0.00    -0.228 NA
ATOM     25  H   UNL     1      -2.457   2.806  -4.237  0.00  0.00    +0.171 HD
ENDBRANCH  16  23
ENDBRANCH  15  16
ENDBRANCH   1  15
TORSDOF 6
