REMARK  Name = ZINC36242556
REMARK  3 active torsions:
REMARK  status: ('A' for Active; 'I' for Inactive)
REMARK    1  A    between atoms: C_1  and  C_2
REMARK    2  A    between atoms: C_5  and  N_18
REMARK    3  A    between atoms: C_8  and  C_11
REMARK                            x       y       z     vdW  Elec       q    Type
REMARK                         _______ _______ _______ _____ _____    ______ ____
ROOT
ATOM      1  C   UNL     1      -2.027   1.174   1.038  0.00  0.00    +0.064 C 
ATOM      2  C   UNL     1      -1.662  -0.276   0.853  0.00  0.00    +0.024 A 
ATOM      3  C   UNL     1      -2.362  -1.036  -0.017  0.00  0.00    +0.023 A 
ATOM      4  C   UNL     1      -2.035  -2.389  -0.200  0.00  0.00    +0.028 A 
ATOM      5  C   UNL     1      -1.001  -2.938   0.506  0.00  0.00    +0.070 A 
ATOM      6  C   UNL     1      -0.280  -2.127   1.411  0.00  0.00    +0.182 A 
ATOM      7  N   UNL     1      -0.624  -0.807   1.562  0.00  0.00    -0.278 N 
ATOM      8  C   UNL     1       0.247  -0.296   2.485  0.00  0.00    +0.169 A 
ATOM      9  N   UNL     1       1.056  -1.274   2.843  0.00  0.00    -0.128 NA
ATOM     10  N   UNL     1       0.744  -2.356   2.220  0.00  0.00    -0.127 NA
ENDROOT
BRANCH   8  11
ATOM     11  C   UNL     1       0.277   1.093   2.987  0.00  0.00    +0.020 A 
ATOM     12  C   UNL     1       0.201   1.345   4.358  0.00  0.00    +0.012 A 
ATOM     13  C   UNL     1       0.229   2.644   4.820  0.00  0.00    +0.016 A 
ATOM     14  C   UNL     1       0.332   3.697   3.928  0.00  0.00    +0.018 A 
ATOM     15  C   UNL     1       0.407   3.455   2.567  0.00  0.00    +0.016 A 
ATOM     16  C   UNL     1       0.386   2.160   2.092  0.00  0.00    +0.012 A 
ATOM     17 BR   UNL     1       0.370   5.476   4.570  0.00  0.00    -0.050 Br
ENDBRANCH   8  11
BRANCH   5  18
ATOM     18  N   UNL     1      -0.663  -4.281   0.337  0.00  0.00    -0.355 N 
ATOM     19  H   UNL     1      -1.163  -4.832  -0.286  0.00  0.00    +0.142 HD
ATOM     20  H   UNL     1       0.072  -4.664   0.841  0.00  0.00    +0.142 HD
ENDBRANCH   5  18
TORSDOF 2
