REMARK  Name = ZINC24830159
REMARK  14 active torsions:
REMARK  status: ('A' for Active; 'I' for Inactive)
REMARK    1  A    between atoms: C_1  and  C_2
REMARK    2  A    between atoms: C_2  and  C_3
REMARK    3  A    between atoms: C_3  and  C_4
REMARK    4  A    between atoms: C_7  and  C_10
REMARK    5  A    between atoms: C_10  and  C_12
REMARK    6  A    between atoms: C_10  and  N_15
REMARK    7  A    between atoms: C_12  and  C_13
REMARK    8  A    between atoms: C_12  and  C_14
REMARK    9  A    between atoms: N_15  and  C_16
REMARK   10  A    between atoms: C_16  and  C_17
REMARK   11  A    between atoms: C_21  and  S_28
REMARK   12  A    between atoms: N_25  and  C_26
REMARK   13  A    between atoms: C_26  and  C_27
REMARK   14  A    between atoms: S_28  and  N_31
REMARK                            x       y       z     vdW  Elec       q    Type
REMARK                         _______ _______ _______ _____ _____    ______ ____
ROOT
ATOM      1  C   UNL     1      -4.795   6.070   6.694  0.00  0.00    +0.094 A 
ATOM      2  N   UNL     1      -4.200   6.842   7.554  0.00  0.00    -0.234 NA
ATOM      3  C   UNL     1      -4.781   8.069   7.545  0.00  0.00    +0.091 A 
ATOM      4  C   UNL     1      -4.546   9.252   8.251  0.00  0.00    +0.058 A 
ATOM      5  C   UNL     1      -5.325  10.350   8.018  0.00  0.00    +0.108 A 
ATOM      6  C   UNL     1      -6.352  10.304   7.086  0.00  0.00    +0.030 A 
ATOM      7  C   UNL     1      -6.603   9.148   6.379  0.00  0.00    +0.030 A 
ATOM      8  C   UNL     1      -5.821   8.023   6.601  0.00  0.00    +0.069 A 
ATOM      9  N   UNL     1      -5.805   6.744   6.080  0.00  0.00    -0.329 N 
ENDROOT
BRANCH   5  10
ATOM     10  S   UNL     1      -5.023  11.839   8.911  0.00  0.00    +0.061 S 
ATOM     11  O   UNL     1      -3.665  11.795   9.327  0.00  0.00    -0.153 OA
ATOM     12  O   UNL     1      -5.544  12.899   8.121  0.00  0.00    -0.153 OA
BRANCH  10  13
ATOM     13  N   UNL     1      -5.942  11.779  10.287  0.00  0.00    -0.172 NA
ATOM     14  C   UNL     1      -7.312  12.317  10.308  0.00  0.00    +0.137 C 
ATOM     15  C   UNL     1      -8.240  11.242  10.895  0.00  0.00    +0.177 C 
ATOM     16  O   UNL     1      -7.713  10.801  12.149  0.00  0.00    -0.377 OA
ATOM     17  C   UNL     1      -6.430  10.177  12.057  0.00  0.00    +0.177 C 
ATOM     18  C   UNL     1      -5.411  11.193  11.528  0.00  0.00    +0.137 C 
ENDBRANCH  10  13
ENDBRANCH   5  10
BRANCH   9  19
ATOM     19  C   UNL     1      -6.707   6.213   5.055  0.00  0.00    +0.120 C 
ATOM     20  C   UNL     1      -7.936   5.597   5.728  0.00  0.00    +0.027 C 
ENDBRANCH   9  19
BRANCH   1  21
ATOM     21  C   UNL     1      -4.426   4.634   6.421  0.00  0.00    -0.006 C 
BRANCH  21  22
ATOM     22  N   UNL     1      -3.428   4.582   5.344  0.00  0.00    +0.388 N 
ATOM     23  H   UNL     1      -2.508   5.075   5.691  0.00  0.00    -0.084 HD
ATOM     24  H   UNL     1      -3.825   5.117   4.469  0.00  0.00    -0.084 HD
BRANCH  22  25
ATOM     25  C   UNL     1      -3.128   3.192   4.973  0.00  0.00    -0.038 C 
BRANCH  25  29
ATOM     26  C   UNL     1      -1.635   3.081   0.972  0.00  0.00    -0.047 A 
ATOM     27  C   UNL     1      -1.241   4.091   1.828  0.00  0.00    +0.004 A 
ATOM     28  C   UNL     1      -1.728   4.130   3.122  0.00  0.00    +0.002 A 
ATOM     29  C   UNL     1      -2.601   3.153   3.561  0.00  0.00    -0.061 A 
ATOM     30  C   UNL     1      -2.991   2.139   2.706  0.00  0.00    +0.002 A 
ATOM     31  C   UNL     1      -2.508   2.103   1.411  0.00  0.00    +0.004 A 
BRANCH  26  32
ATOM     32  C   UNL     1      -1.108   3.041  -0.440  0.00  0.00    +0.035 C 
BRANCH  32  34
ATOM     33  C   UNL     1      -1.512   3.787  -2.790  0.00  0.00    +0.004 C 
ATOM     34  C   UNL     1      -2.047   3.827  -1.357  0.00  0.00    +0.001 C 
ENDBRANCH  32  34
ENDBRANCH  26  32
ENDBRANCH  25  29
BRANCH  25  35
ATOM     35  C   UNL     1      -2.074   2.626   5.926  0.00  0.00    -0.027 C 
ATOM     36  C   UNL     1      -1.863   1.140   5.629  0.00  0.00    +0.006 C 
ATOM     37  C   UNL     1      -0.755   3.377   5.733  0.00  0.00    +0.006 C 
ENDBRANCH  25  35
ENDBRANCH  22  25
ENDBRANCH  21  22
ENDBRANCH   1  21
TORSDOF 10
