REMARK  Name = ZINC08748694
REMARK  5 active torsions:
REMARK  status: ('A' for Active; 'I' for Inactive)
REMARK    1  A    between atoms: C_7  and  C_11
REMARK    2  A    between atoms: C_11  and  C_12
REMARK    3  A    between atoms: C_12  and  N_13
REMARK    4  A    between atoms: C_14  and  C_16
REMARK    5  A    between atoms: C_17  and  N_28
REMARK                            x       y       z     vdW  Elec       q    Type
REMARK                         _______ _______ _______ _____ _____    ______ ____
ROOT
ATOM      1  N   UNL     1      -1.978  -6.781   0.632  0.00  0.00    -0.311 N 
ATOM      2  C   UNL     1      -0.787  -6.277   0.251  0.00  0.00    +0.253 C 
ATOM      3  O   UNL     1       0.126  -7.027  -0.041  0.00  0.00    -0.270 OA
ATOM      4  H   UNL     1      -2.705  -6.183   0.866  0.00  0.00    +0.149 HD
ENDROOT
BRANCH   2   5
ATOM      5  C   UNL     1      -0.599  -4.873   0.191  0.00  0.00    +0.097 A 
ATOM      6  C   UNL     1       0.534  -4.179  -0.171  0.00  0.00    +0.053 A 
ATOM      7  C   UNL     1       0.488  -2.725  -0.155  0.00  0.00    +0.029 A 
ATOM      8  C   UNL     1       1.511  -1.803  -0.483  0.00  0.00    +0.017 A 
ATOM      9  C   UNL     1       1.253  -0.452  -0.400  0.00  0.00    -0.025 A 
ATOM     10  C   UNL     1       0.002  -0.004   0.002  0.00  0.00    +0.046 A 
ATOM     11  N   UNL     1      -0.949  -0.871   0.305  0.00  0.00    -0.244 NA
ATOM     12  C   UNL     1      -0.749  -2.168   0.241  0.00  0.00    +0.111 A 
ATOM     13  S   UNL     1      -1.770  -3.584   0.568  0.00  0.00    -0.062 S 
ATOM     14  C   UNL     1      -0.018   1.510   0.010  0.00  0.00    +0.056 C 
ATOM     15  C   UNL     1       1.465   1.935  -0.002  0.00  0.00    +0.011 C 
ATOM     16  C   UNL     1       2.150   0.734  -0.687  0.00  0.00    +0.037 C 
BRANCH   6  17
ATOM     17  N   UNL     1       1.692  -4.850  -0.542  0.00  0.00    -0.356 N 
ATOM     18  H   UNL     1       2.483  -4.349  -0.795  0.00  0.00    +0.142 HD
ATOM     19  H   UNL     1       1.709  -5.820  -0.548  0.00  0.00    +0.142 HD
ENDBRANCH   6  17
ENDBRANCH   2   5
BRANCH   1  20
ATOM     20  C   UNL     1      -2.173  -8.231   0.695  0.00  0.00    +0.109 C 
BRANCH  20  21
ATOM     21  C   UNL     1      -3.602  -8.534   1.152  0.00  0.00    +0.056 C 
BRANCH  21  28
ATOM     22  C   UNL     1      -2.709 -11.753   4.441  0.00  0.00    +0.001 A 
ATOM     23  C   UNL     1      -3.068 -13.036   4.053  0.00  0.00    +0.002 A 
ATOM     24  C   UNL     1      -3.625 -13.266   2.815  0.00  0.00    +0.026 A 
ATOM     25  C   UNL     1      -3.830 -12.203   1.941  0.00  0.00    +0.047 A 
ATOM     26  C   UNL     1      -3.464 -10.904   2.339  0.00  0.00    +0.003 A 
ATOM     27  C   UNL     1      -2.901 -10.694   3.599  0.00  0.00    +0.010 A 
ATOM     28  C   UNL     1      -3.803 -10.027   1.216  0.00  0.00    -0.021 A 
ATOM     29  C   UNL     1      -4.331 -10.803   0.257  0.00  0.00    +0.087 A 
ATOM     30  N   UNL     1      -4.351 -12.107   0.670  0.00  0.00    -0.360 N 
ATOM     31  H   UNL     1      -4.685 -12.852   0.147  0.00  0.00    +0.165 HD
ENDBRANCH  21  28
ENDBRANCH  20  21
ENDBRANCH   1  20
TORSDOF 5
