REMARK  Name = ZINC14239547
REMARK  6 active torsions:
REMARK  status: ('A' for Active; 'I' for Inactive)
REMARK    1  A    between atoms: N_10  and  S_11
REMARK    2  A    between atoms: S_11  and  C_14
REMARK    3  A    between atoms: C_17  and  C_20
REMARK    4  A    between atoms: N_22  and  C_23
REMARK    5  A    between atoms: C_28  and  C_29
REMARK    6  A    between atoms: C_28  and  N_60
REMARK                            x       y       z     vdW  Elec       q    Type
REMARK                         _______ _______ _______ _____ _____    ______ ____
ROOT
ATOM      1  C   UNL     1      -0.060  -0.959   0.111  0.00  0.00    +0.109 A 
ATOM      2  C   UNL     1       0.200   0.360  -0.215  0.00  0.00    +0.029 A 
ATOM      3  C   UNL     1       1.476   0.868  -0.081  0.00  0.00    +0.015 A 
ATOM      4  C   UNL     1       2.505   0.047   0.384  0.00  0.00    +0.037 A 
ATOM      5  C   UNL     1       2.235  -1.283   0.711  0.00  0.00    +0.015 A 
ATOM      6  C   UNL     1       0.955  -1.778   0.573  0.00  0.00    +0.029 A 
ENDROOT
BRANCH   4   7
ATOM      7  C   UNL     1       3.875   0.584   0.529  0.00  0.00    +0.244 C 
ATOM      8  O   UNL     1       4.769  -0.133   0.934  0.00  0.00    -0.270 OA
ATOM      9  N   UNL     1       4.132   1.869   0.212  0.00  0.00    -0.309 N 
ATOM     10  H   UNL     1       3.418   2.441  -0.111  0.00  0.00    +0.149 HD
BRANCH   9  11
ATOM     11  C   UNL     1       5.489   2.401   0.356  0.00  0.00    +0.070 C 
ATOM     12  C   UNL     1       5.703   2.874   1.797  0.00  0.00    +0.004 C 
ATOM     13  C   UNL     1       7.101   3.485   1.925  0.00  0.00    -0.076 C 
ATOM     14  C   UNL     1       7.076   4.175  -0.397  0.00  0.00    -0.076 C 
ATOM     15  C   UNL     1       5.678   3.585  -0.596  0.00  0.00    +0.004 C 
ATOM     16  N   UNL     1       7.210   4.634   1.002  0.00  0.00    +0.385 N 
ATOM     17  H   UNL     1       6.455   5.299   1.207  0.00  0.00    -0.081 HD
BRANCH  16  18
ATOM     18  C   UNL     1       8.510   5.310   1.189  0.00  0.00    +0.018 C 
BRANCH  18  19
ATOM     19  C   UNL     1       8.495   6.608   0.423  0.00  0.00    +0.194 C 
ATOM     20  O   UNL     1       7.476   6.982  -0.117  0.00  0.00    -0.278 OA
ATOM     21  N   UNL     1       9.616   7.353   0.339  0.00  0.00    -0.331 N 
ATOM     22  H   UNL     1      10.431   7.054   0.772  0.00  0.00    +0.145 HD
ATOM     23  H   UNL     1       9.606   8.188  -0.154  0.00  0.00    +0.145 HD
ENDBRANCH  18  19
ENDBRANCH  16  18
ENDBRANCH   9  11
ENDBRANCH   4   7
BRANCH   1  24
ATOM     24  S   UNL     1      -1.693  -1.600  -0.064  0.00  0.00    +0.075 S 
ATOM     25  O   UNL     1      -1.792  -2.706   0.822  0.00  0.00    -0.150 OA
ATOM     26  O   UNL     1      -2.575  -0.488   0.005  0.00  0.00    -0.150 OA
BRANCH  24  36
ATOM     27  C   UNL     1      -0.499  -6.076  -2.409  0.00  0.00    +0.000 A 
ATOM     28  C   UNL     1      -0.153  -5.459  -1.220  0.00  0.00    +0.002 A 
ATOM     29  C   UNL     1      -0.592  -4.177  -0.957  0.00  0.00    +0.025 A 
ATOM     30  C   UNL     1      -1.381  -3.507  -1.886  0.00  0.00    +0.054 A 
ATOM     31  C   UNL     1      -1.725  -4.125  -3.078  0.00  0.00    -0.025 A 
ATOM     32  C   UNL     1      -1.282  -5.412  -3.333  0.00  0.00    +0.005 A 
ATOM     33  C   UNL     1      -2.573  -3.428  -4.109  0.00  0.00    +0.038 C 
ATOM     34  C   UNL     1      -3.361  -2.284  -3.471  0.00  0.00    +0.025 C 
ATOM     35  C   UNL     1      -2.397  -1.398  -2.678  0.00  0.00    +0.132 C 
ATOM     36  N   UNL     1      -1.819  -2.209  -1.598  0.00  0.00    -0.203 N 
ENDBRANCH  24  36
ENDBRANCH   1  24
TORSDOF 6
