REMARK  Name = ZINC39690465
REMARK  7 active torsions:
REMARK  status: ('A' for Active; 'I' for Inactive)
REMARK    1  A    between atoms: C_1  and  C_2
REMARK    2  A    between atoms: C_2  and  C_3
REMARK    3  A    between atoms: C_3  and  C_4
REMARK    4  A    between atoms: C_4  and  C_5
REMARK    5  A    between atoms: C_9  and  C_18
REMARK    6  A    between atoms: N_20  and  C_21
REMARK    7  A    between atoms: C_21  and  C_22
REMARK                            x       y       z     vdW  Elec       q    Type
REMARK                         _______ _______ _______ _____ _____    ______ ____
ROOT
ATOM      1  C   UNL     1      -2.956  -2.602  -0.013  0.00  0.00    +0.216 C 
ATOM      2  O   UNL     1      -3.903  -1.847   0.045  0.00  0.00    -0.276 OA
ATOM      3  N   UNL     1      -3.155  -3.935   0.011  0.00  0.00    -0.300 N 
ATOM      4  C   UNL     1      -2.133  -5.007  -0.043  0.00  0.00    +0.121 C 
ATOM      5  C   UNL     1      -2.641  -6.080   0.946  0.00  0.00    +0.100 C 
ATOM      6  C   UNL     1      -4.159  -5.848   1.031  0.00  0.00    -0.004 C 
ATOM      7  C   UNL     1      -4.445  -4.660   0.102  0.00  0.00    +0.115 C 
ATOM      8  C   UNL     1      -4.561  -5.501   2.461  0.00  0.00    -0.010 C 
ATOM      9  C   UNL     1      -6.081  -5.331   2.532  0.00  0.00    -0.082 C 
ATOM     10  N   UNL     1      -6.734  -6.575   2.107  0.00  0.00    +0.379 N 
ATOM     11  C   UNL     1      -6.416  -6.853   0.702  0.00  0.00    -0.082 C 
ATOM     12  C   UNL     1      -4.910  -7.087   0.553  0.00  0.00    -0.010 C 
ATOM     13  H   UNL     1      -6.408  -7.338   2.682  0.00  0.00    -0.086 HD
ATOM     14  H   UNL     1      -7.733  -6.482   2.213  0.00  0.00    -0.086 HD
ENDROOT
BRANCH   5  15
ATOM     15  C   UNL     1      -2.347  -7.460   0.418  0.00  0.00    +0.218 C 
ATOM     16  O   UNL     1      -2.335  -7.663  -0.777  0.00  0.00    -0.275 OA
ATOM     17  N   UNL     1      -2.098  -8.471   1.275  0.00  0.00    -0.311 N 
ATOM     18  H   UNL     1      -2.108  -8.309   2.232  0.00  0.00    +0.149 HD
BRANCH  17  19
ATOM     19  C   UNL     1      -1.813  -9.813   0.762  0.00  0.00    +0.140 C 
BRANCH  19  20
ATOM     20  C   UNL     1      -1.572 -10.751   1.917  0.00  0.00    -0.016 A 
ATOM     21  C   UNL     1      -0.280 -11.076   2.285  0.00  0.00    +0.006 A 
ATOM     22  C   UNL     1      -0.059 -11.937   3.344  0.00  0.00    +0.000 A 
ATOM     23  C   UNL     1      -1.129 -12.472   4.036  0.00  0.00    +0.001 A 
ATOM     24  C   UNL     1      -2.421 -12.147   3.668  0.00  0.00    +0.015 A 
ATOM     25  C   UNL     1      -2.643 -11.282   2.612  0.00  0.00    +0.023 A 
ATOM     26 BR   UNL     1      -4.411 -10.832   2.113  0.00  0.00    -0.050 Br
ENDBRANCH  19  20
ENDBRANCH  17  19
ENDBRANCH   5  15
BRANCH   1  27
ATOM     27  C   UNL     1      -1.557  -2.050  -0.110  0.00  0.00    +0.096 C 
BRANCH  27  28
ATOM     28  C   UNL     1      -1.611  -0.521  -0.118  0.00  0.00    +0.009 C 
BRANCH  28  30
ATOM     29  C   UNL     1      -0.245   1.568  -0.225  0.00  0.00    +0.004 C 
ATOM     30  C   UNL     1      -0.191   0.039  -0.217  0.00  0.00    -0.003 C 
ENDBRANCH  28  30
ENDBRANCH  27  28
ENDBRANCH   1  27
TORSDOF 6
