REMARK  Name = ZINC17194671
REMARK  7 active torsions:
REMARK  status: ('A' for Active; 'I' for Inactive)
REMARK    1  A    between atoms: C_1  and  C_2
REMARK    2  A    between atoms: C_2  and  C_3
REMARK    3  A    between atoms: C_3  and  C_4
REMARK    4  A    between atoms: C_4  and  C_5
REMARK    5  A    between atoms: C_5  and  C_6
REMARK    6  A    between atoms: C_6  and  N_7
REMARK    7  A    between atoms: C_9  and  C_16
REMARK                            x       y       z     vdW  Elec       q    Type
REMARK                         _______ _______ _______ _____ _____    ______ ____
ROOT
ATOM      1  N   UNL     1      -4.202  -4.630   0.017  0.00  0.00    -0.261 N 
ATOM      2  C   UNL     1      -4.852  -4.859  -1.169  0.00  0.00    +0.262 A 
ATOM      3  C   UNL     1      -6.131  -5.332  -1.152  0.00  0.00    +0.073 A 
ATOM      4  C   UNL     1      -6.754  -5.573   0.086  0.00  0.00    +0.260 A 
ATOM      5  O   UNL     1      -7.897  -5.996   0.125  0.00  0.00    -0.267 OA
ATOM      6  N   UNL     1      -6.079  -5.334   1.228  0.00  0.00    -0.275 N 
ATOM      7  H   UNL     1      -6.506  -5.500   2.083  0.00  0.00    +0.173 HD
ATOM      8  C   UNL     1      -4.816  -4.873   1.190  0.00  0.00    +0.332 A 
ATOM      9  O   UNL     1      -4.221  -4.668   2.231  0.00  0.00    -0.246 OA
ATOM     10  O   UNL     1      -4.231  -4.619  -2.343  0.00  0.00    -0.267 OA
ENDROOT
BRANCH   3  11
ATOM     11  C   UNL     1      -6.867  -5.591  -2.441  0.00  0.00    +0.018 C 
ATOM     12  C   UNL     1      -7.157  -7.067  -2.571  0.00  0.00    +0.011 A 
ATOM     13  C   UNL     1      -8.344  -7.548  -3.006  0.00  0.00    -0.022 A 
ATOM     14  C   UNL     1      -8.253  -8.990  -2.994  0.00  0.00    +0.003 A 
ATOM     15  C   UNL     1      -9.155 -10.004  -3.333  0.00  0.00    +0.010 A 
ATOM     16  C   UNL     1      -8.716 -11.298  -3.194  0.00  0.00    +0.001 A 
ATOM     17  C   UNL     1      -7.442 -11.599  -2.741  0.00  0.00    +0.002 A 
ATOM     18  C   UNL     1      -6.529 -10.616  -2.400  0.00  0.00    +0.026 A 
ATOM     19  C   UNL     1      -6.946  -9.293  -2.530  0.00  0.00    +0.047 A 
ATOM     20  N   UNL     1      -6.314  -8.107  -2.286  0.00  0.00    -0.359 N 
ATOM     21  H   UNL     1      -5.405  -8.016  -1.960  0.00  0.00    +0.166 HD
ATOM     22  C   UNL     1      -9.495  -6.662  -3.411  0.00  0.00    +0.018 C 
ATOM     23  C   UNL     1      -8.948  -5.240  -3.605  0.00  0.00    -0.076 C 
ATOM     24  N   UNL     1      -8.142  -4.857  -2.438  0.00  0.00    +0.388 N 
ATOM     25  H   UNL     1      -8.651  -5.075  -1.596  0.00  0.00    -0.084 HD
ATOM     26  H   UNL     1      -7.956  -3.865  -2.468  0.00  0.00    -0.084 HD
ENDBRANCH   3  11
BRANCH   1  27
ATOM     27  C   UNL     1      -2.827  -4.123   0.007  0.00  0.00    +0.130 C 
BRANCH  27  28
ATOM     28  C   UNL     1      -2.848  -2.593   0.015  0.00  0.00    +0.022 C 
BRANCH  28  29
ATOM     29  C   UNL     1      -1.413  -2.063   0.004  0.00  0.00    +0.002 C 
BRANCH  29  30
ATOM     30  C   UNL     1      -1.433  -0.534   0.013  0.00  0.00    -0.000 C 
BRANCH  30  32
ATOM     31  C   UNL     1      -0.019   1.526   0.010  0.00  0.00    +0.004 C 
ATOM     32  C   UNL     1       0.002  -0.004   0.002  0.00  0.00    -0.003 C 
ENDBRANCH  30  32
ENDBRANCH  29  30
ENDBRANCH  28  29
ENDBRANCH  27  28
ENDBRANCH   1  27
TORSDOF 6
