REMARK  Name = ZINC39948742
REMARK  6 active torsions:
REMARK  status: ('A' for Active; 'I' for Inactive)
REMARK    1  A    between atoms: C_1  and  C_2
REMARK    2  A    between atoms: C_2  and  N_3
REMARK    3  A    between atoms: C_14  and  C_16
REMARK    4  A    between atoms: N_17  and  N_18
REMARK    5  A    between atoms: C_19  and  C_21
REMARK    6  A    between atoms: C_24  and  C_26
REMARK                            x       y       z     vdW  Elec       q    Type
REMARK                         _______ _______ _______ _____ _____    ______ ____
ROOT
ATOM      1  C   UNL     1       6.042  -1.687  -2.392  0.00  0.00    +0.138 C 
ATOM      2  N   UNL     1       6.993  -1.574  -1.516  0.00  0.00    -0.187 NA
ENDROOT
BRANCH   1  14
ATOM      3  N   UNL     1       0.688  -0.476  -1.203  0.00  0.00    -0.340 N 
ATOM      4  C   UNL     1       0.070  -0.736  -2.414  0.00  0.00    +0.050 A 
ATOM      5  C   UNL     1      -1.256  -0.642  -2.828  0.00  0.00    +0.026 A 
ATOM      6  C   UNL     1      -1.599  -0.972  -4.121  0.00  0.00    +0.002 A 
ATOM      7  C   UNL     1      -0.634  -1.399  -5.020  0.00  0.00    +0.001 A 
ATOM      8  C   UNL     1       0.683  -1.498  -4.629  0.00  0.00    +0.010 A 
ATOM      9  C   UNL     1       1.044  -1.168  -3.325  0.00  0.00    +0.008 A 
ATOM     10  C   UNL     1       2.328  -1.162  -2.598  0.00  0.00    +0.008 A 
ATOM     11  C   UNL     1       2.046  -0.721  -1.295  0.00  0.00    +0.050 A 
ATOM     12  C   UNL     1       3.080  -0.607  -0.369  0.00  0.00    +0.027 A 
ATOM     13  C   UNL     1       4.361  -0.917  -0.723  0.00  0.00    +0.011 A 
ATOM     14  C   UNL     1       4.655  -1.355  -2.021  0.00  0.00    -0.005 A 
ATOM     15  C   UNL     1       3.631  -1.484  -2.959  0.00  0.00    +0.020 A 
BRANCH   3  17
ATOM     16  C   UNL     1      -0.019   1.526   0.010  0.00  0.00    +0.027 C 
ATOM     17  C   UNL     1       0.002  -0.004   0.002  0.00  0.00    +0.119 C 
ENDBRANCH   3  17
ENDBRANCH   1  14
BRANCH   2  18
ATOM     18  N   UNL     1       8.312  -1.890  -1.868  0.00  0.00    -0.202 N 
ATOM     19  C   UNL     1       9.299  -1.773  -0.959  0.00  0.00    +0.280 C 
ATOM     20  O   UNL     1       9.045  -1.393   0.170  0.00  0.00    -0.267 OA
ATOM     21  H   UNL     1       8.514  -2.193  -2.768  0.00  0.00    +0.178 HD
BRANCH  19  22
ATOM     22  C   UNL     1      10.679  -2.104  -1.328  0.00  0.00    +0.132 C 
ATOM     23  N   UNL     1      11.116  -2.517  -2.489  0.00  0.00    -0.148 NA
ATOM     24  N   UNL     1      12.372  -2.731  -2.534  0.00  0.00    -0.153 NA
ATOM     25  C   UNL     1      12.999  -2.499  -1.405  0.00  0.00    +0.077 C 
ATOM     26  C   UNL     1      11.915  -2.035  -0.446  0.00  0.00    +0.120 C 
BRANCH  25  27
ATOM     27  C   UNL     1      14.433  -2.649  -1.130  0.00  0.00    -0.002 A 
ATOM     28  C   UNL     1      14.940  -2.361   0.143  0.00  0.00    +0.010 A 
ATOM     29  C   UNL     1      16.288  -2.504   0.392  0.00  0.00    +0.001 A 
ATOM     30  C   UNL     1      17.140  -2.931  -0.612  0.00  0.00    +0.000 A 
ATOM     31  C   UNL     1      16.648  -3.217  -1.874  0.00  0.00    +0.001 A 
ATOM     32  C   UNL     1      15.302  -3.086  -2.139  0.00  0.00    +0.010 A 
ENDBRANCH  25  27
ENDBRANCH  19  22
ENDBRANCH   2  18
TORSDOF 5
