REMARK  Name = ZINC12242577
REMARK  10 active torsions:
REMARK  status: ('A' for Active; 'I' for Inactive)
REMARK    1  A    between atoms: C_1  and  C_2
REMARK    2  A    between atoms: C_2  and  C_4
REMARK    3  A    between atoms: C_2  and  C_14
REMARK    4  A    between atoms: C_4  and  C_5
REMARK    5  A    between atoms: C_14  and  N_72
REMARK    6  A    between atoms: C_21  and  C_23
REMARK    7  A    between atoms: N_25  and  C_26
REMARK    8  A    between atoms: C_26  and  C_27
REMARK    9  A    between atoms: C_27  and  C_28
REMARK   10  A    between atoms: N_36  and  C_37
REMARK                            x       y       z     vdW  Elec       q    Type
REMARK                         _______ _______ _______ _____ _____    ______ ____
ROOT
ATOM      1  C   UNL     1       0.051   1.420  -0.338  0.00  0.00    -0.078 C 
ATOM      2  C   UNL     1       0.211  -0.093  -0.149  0.00  0.00    -0.011 C 
ATOM      3  C   UNL     1       1.323  -0.587  -1.081  0.00  0.00    -0.021 C 
ATOM      4  C   UNL     1       2.638   0.192  -0.980  0.00  0.00    -0.011 C 
ATOM      5  C   UNL     1       2.334   1.687  -1.119  0.00  0.00    -0.078 C 
ATOM      6  C   UNL     1       1.401  -2.086  -1.365  0.00  0.00    +0.020 C 
ATOM      7  C   UNL     1       0.916  -1.124  -2.452  0.00  0.00    +0.082 C 
ATOM      8  N   UNL     1       1.353   2.073  -0.080  0.00  0.00    +0.380 N 
ATOM      9  H   UNL     1       1.702   1.769   0.836  0.00  0.00    -0.082 HD
ENDROOT
BRANCH   7  10
ATOM     10  C   UNL     1       1.845  -0.854  -3.608  0.00  0.00    +0.217 C 
ATOM     11  O   UNL     1       2.733  -1.638  -3.868  0.00  0.00    -0.275 OA
ATOM     12  N   UNL     1       1.689   0.258  -4.353  0.00  0.00    -0.315 N 
ATOM     13  H   UNL     1       0.979   0.885  -4.145  0.00  0.00    +0.149 HD
BRANCH  12  14
ATOM     14  C   UNL     1       2.592   0.520  -5.477  0.00  0.00    +0.112 C 
BRANCH  14  15
ATOM     15  C   UNL     1       2.200   1.837  -6.150  0.00  0.00    +0.093 C 
BRANCH  15  16
ATOM     16  C   UNL     1       3.129   2.106  -7.305  0.00  0.00    +0.112 A 
ATOM     17  N   UNL     1       2.930   1.711  -8.529  0.00  0.00    -0.232 NA
ATOM     18  C   UNL     1       3.958   2.123  -9.314  0.00  0.00    +0.089 A 
ATOM     19  C   UNL     1       4.251   1.980 -10.673  0.00  0.00    +0.030 A 
ATOM     20  C   UNL     1       5.395   2.523 -11.184  0.00  0.00    +0.002 A 
ATOM     21  C   UNL     1       6.276   3.217 -10.367  0.00  0.00    +0.002 A 
ATOM     22  C   UNL     1       6.008   3.371  -9.023  0.00  0.00    +0.028 A 
ATOM     23  C   UNL     1       4.849   2.827  -8.486  0.00  0.00    +0.069 A 
ATOM     24  N   UNL     1       4.294   2.803  -7.223  0.00  0.00    -0.331 N 
ATOM     25  C   UNL     1       4.857   3.413  -6.015  0.00  0.00    +0.150 C 
ENDBRANCH  15  16
ENDBRANCH  14  15
ENDBRANCH  12  14
ENDBRANCH   7  10
BRANCH   8  26
ATOM     26  C   UNL     1       1.186   3.540  -0.066  0.00  0.00    -0.075 C 
BRANCH  26  28
ATOM     27  C   UNL     1       1.537   3.578   2.407  0.00  0.00    +0.006 C 
ATOM     28  C   UNL     1       0.575   3.948   1.277  0.00  0.00    -0.026 C 
BRANCH  28  29
ATOM     29  C   UNL     1       0.331   5.458   1.288  0.00  0.00    +0.036 C 
BRANCH  29  30
ATOM     30  C   UNL     1      -0.382   5.842   2.559  0.00  0.00    -0.043 A 
ATOM     31  C   UNL     1      -1.764   5.856   2.598  0.00  0.00    +0.007 A 
ATOM     32  C   UNL     1      -2.422   6.203   3.763  0.00  0.00    +0.050 A 
ATOM     33  C   UNL     1      -1.697   6.547   4.893  0.00  0.00    +0.166 A 
ATOM     34  C   UNL     1      -0.305   6.538   4.852  0.00  0.00    +0.166 A 
ATOM     35  C   UNL     1       0.348   6.184   3.683  0.00  0.00    +0.053 A 
ATOM     36  O   UNL     1       0.169   6.910   6.077  0.00  0.00    -0.453 OA
ATOM     37  C   UNL     1      -0.939   6.753   6.983  0.00  0.00    +0.466 C 
ATOM     38  O   UNL     1      -2.095   6.926   6.142  0.00  0.00    -0.453 OA
ENDBRANCH  29  30
ENDBRANCH  28  29
ENDBRANCH  26  28
ENDBRANCH   8  26
TORSDOF 8
