REMARK  Name = ZINC07775943
REMARK  4 active torsions:
REMARK  status: ('A' for Active; 'I' for Inactive)
REMARK    1  A    between atoms: C_4  and  C_7
REMARK    2  A    between atoms: C_9  and  C_13
REMARK    3  A    between atoms: N_15  and  N_16
REMARK    4  A    between atoms: C_17  and  C_19
REMARK                            x       y       z     vdW  Elec       q    Type
REMARK                         _______ _______ _______ _____ _____    ______ ____
ROOT
ATOM      1  C   UNL     1       5.945  -3.575  -0.084  0.00  0.00    +0.278 C 
ATOM      2  O   UNL     1       5.311  -4.613  -0.088  0.00  0.00    -0.267 OA
ATOM      3  N   UNL     1       7.292  -3.608  -0.095  0.00  0.00    -0.229 N 
ATOM      4  H   UNL     1       7.798  -2.780  -0.091  0.00  0.00    +0.173 HD
ENDROOT
BRANCH   1   7
ATOM      5  C   UNL     1       3.699  -0.689  -0.038  0.00  0.00    +0.093 A 
ATOM      6  C   UNL     1       3.873  -2.085  -0.053  0.00  0.00    +0.062 A 
ATOM      7  C   UNL     1       5.241  -2.282  -0.066  0.00  0.00    +0.122 A 
ATOM      8  N   UNL     1       5.811  -1.040  -0.059  0.00  0.00    -0.272 N 
ATOM      9  H   UNL     1       6.765  -0.865  -0.065  0.00  0.00    +0.189 HD
ATOM     10  N   UNL     1       4.895  -0.140  -0.048  0.00  0.00    -0.173 NA
BRANCH   5  14
ATOM     11  C   UNL     1      -0.017   1.379   0.010  0.00  0.00    +0.000 A 
ATOM     12  C   UNL     1       1.169   2.092   0.002  0.00  0.00    +0.001 A 
ATOM     13  C   UNL     1       2.377   1.425  -0.013  0.00  0.00    +0.010 A 
ATOM     14  C   UNL     1       2.402   0.033  -0.021  0.00  0.00    +0.002 A 
ATOM     15  C   UNL     1       1.205  -0.680  -0.013  0.00  0.00    +0.010 A 
ATOM     16  C   UNL     1       0.002  -0.004   0.002  0.00  0.00    +0.001 A 
ENDBRANCH   5  14
ENDBRANCH   1   7
BRANCH   3  17
ATOM     17  N   UNL     1       7.962  -4.838  -0.112  0.00  0.00    -0.229 N 
ATOM     18  C   UNL     1       9.309  -4.872  -0.123  0.00  0.00    +0.276 C 
ATOM     19  O   UNL     1       9.944  -3.833  -0.118  0.00  0.00    -0.267 OA
ATOM     20  H   UNL     1       7.457  -5.666  -0.115  0.00  0.00    +0.173 HD
BRANCH  18  21
ATOM     21  C   UNL     1      10.011  -6.160  -0.140  0.00  0.00    +0.104 A 
ATOM     22  C   UNL     1      11.378  -6.343  -0.147  0.00  0.00    +0.047 A 
ATOM     23  C   UNL     1      11.607  -7.723  -0.164  0.00  0.00    +0.036 A 
ATOM     24  C   UNL     1      10.403  -8.344  -0.168  0.00  0.00    +0.098 A 
ATOM     25  N   UNL     1       9.425  -7.405  -0.147  0.00  0.00    -0.356 N 
ATOM     26  H   UNL     1       8.471  -7.581  -0.141  0.00  0.00    +0.166 HD
ATOM     27 BR   UNL     1      13.298  -8.570  -0.180  0.00  0.00    -0.049 Br
ENDBRANCH  18  21
ENDBRANCH   3  17
TORSDOF 4
