REMARK  Name = ZINC39481517
REMARK  11 active torsions:
REMARK  status: ('A' for Active; 'I' for Inactive)
REMARK    1  A    between atoms: C_1  and  C_2
REMARK    2  A    between atoms: C_2  and  C_3
REMARK    3  A    between atoms: C_2  and  C_4
REMARK    4  A    between atoms: C_4  and  C_5
REMARK    5  A    between atoms: C_8  and  N_25
REMARK    6  A    between atoms: C_9  and  N_11
REMARK    7  A    between atoms: C_15  and  C_18
REMARK    8  A    between atoms: C_18  and  C_19
REMARK    9  A    between atoms: N_25  and  S_26
REMARK   10  A    between atoms: S_26  and  C_29
REMARK   11  A    between atoms: C_34  and  O_35
REMARK                            x       y       z     vdW  Elec       q    Type
REMARK                         _______ _______ _______ _____ _____    ______ ____
ROOT
ATOM      1  C   UNL     1      -0.184  -2.381   0.056  0.00  0.00    -0.045 A 
ATOM      2  C   UNL     1      -0.475  -2.828  -1.219  0.00  0.00    +0.005 A 
ATOM      3  C   UNL     1      -0.788  -4.158  -1.435  0.00  0.00    +0.026 A 
ATOM      4  C   UNL     1      -0.808  -5.047  -0.371  0.00  0.00    +0.069 A 
ATOM      5  C   UNL     1      -0.513  -4.596   0.915  0.00  0.00    +0.052 A 
ATOM      6  C   UNL     1      -0.197  -3.262   1.122  0.00  0.00    +0.028 A 
ENDROOT
BRANCH   5   7
ATOM      7  N   UNL     1      -0.533  -5.488   1.994  0.00  0.00    -0.332 N 
ATOM      8  C   UNL     1       0.679  -6.222   2.391  0.00  0.00    +0.086 C 
ATOM      9  C   UNL     1       0.329  -7.709   2.510  0.00  0.00    -0.063 C 
ATOM     10  N   UNL     1      -0.806  -7.872   3.428  0.00  0.00    +0.383 N 
ATOM     11  C   UNL     1      -2.000  -7.229   2.865  0.00  0.00    -0.050 C 
ATOM     12  C   UNL     1      -1.764  -5.714   2.767  0.00  0.00    +0.089 C 
ATOM     13  H   UNL     1      -0.987  -8.855   3.564  0.00  0.00    -0.085 HD
ATOM     14  H   UNL     1      -0.583  -7.447   4.315  0.00  0.00    -0.085 HD
BRANCH  11  15
ATOM     15  C   UNL     1      -3.201  -7.499   3.774  0.00  0.00    +0.021 C 
BRANCH  15  16
ATOM     16  C   UNL     1      -3.506  -8.975   3.777  0.00  0.00    -0.049 A 
ATOM     17  C   UNL     1      -4.380  -9.502   2.844  0.00  0.00    +0.003 A 
ATOM     18  C   UNL     1      -4.661 -10.855   2.847  0.00  0.00    +0.000 A 
ATOM     19  C   UNL     1      -4.067 -11.682   3.782  0.00  0.00    +0.000 A 
ATOM     20  C   UNL     1      -3.192 -11.155   4.714  0.00  0.00    +0.000 A 
ATOM     21  C   UNL     1      -2.909  -9.803   4.708  0.00  0.00    +0.003 A 
ENDBRANCH  15  16
ENDBRANCH  11  15
ENDBRANCH   5   7
BRANCH   4  22
ATOM     22  N   UNL     1      -1.125  -6.394  -0.587  0.00  0.00    -0.214 N 
ATOM     23  H   UNL     1      -1.625  -6.888   0.081  0.00  0.00    +0.174 HD
BRANCH  22  24
ATOM     24  S   UNL     1      -0.644  -7.143  -1.984  0.00  0.00    +0.076 S 
ATOM     25  O   UNL     1       0.718  -6.793  -2.184  0.00  0.00    -0.150 OA
ATOM     26  O   UNL     1      -1.078  -8.493  -1.890  0.00  0.00    -0.150 OA
BRANCH  24  27
ATOM     27  C   UNL     1      -1.552  -6.413  -3.306  0.00  0.00    +0.150 A 
ATOM     28  C   UNL     1      -0.888  -5.718  -4.299  0.00  0.00    +0.032 A 
ATOM     29  C   UNL     1      -1.600  -5.145  -5.336  0.00  0.00    +0.002 A 
ATOM     30  C   UNL     1      -2.977  -5.265  -5.383  0.00  0.00    +0.004 A 
ATOM     31  C   UNL     1      -3.644  -5.958  -4.392  0.00  0.00    +0.047 A 
ATOM     32  C   UNL     1      -2.932  -6.539  -3.353  0.00  0.00    +0.143 A 
BRANCH  32  33
ATOM     33  O   UNL     1      -3.587  -7.227  -2.381  0.00  0.00    -0.505 OA
ATOM     34  H   UNL     1      -3.877  -6.679  -1.639  0.00  0.00    +0.292 HD
ENDBRANCH  32  33
ENDBRANCH  24  27
ENDBRANCH  22  24
ENDBRANCH   4  22
BRANCH   1  35
ATOM     35  C   UNL     1       0.156  -0.930   0.284  0.00  0.00    +0.038 C 
BRANCH  35  37
ATOM     36  C   UNL     1       1.996   0.759   0.245  0.00  0.00    +0.007 C 
ATOM     37  C   UNL     1       1.666  -0.731   0.138  0.00  0.00    -0.013 C 
ATOM     38  C   UNL     1       2.391  -1.496   1.247  0.00  0.00    +0.007 C 
ENDBRANCH  35  37
ENDBRANCH   1  35
TORSDOF 9
