REMARK  Name = ZINC40850492
REMARK  10 active torsions:
REMARK  status: ('A' for Active; 'I' for Inactive)
REMARK    1  A    between atoms: C_1  and  C_2
REMARK    2  A    between atoms: C_4  and  C_36
REMARK    3  A    between atoms: C_9  and  C_30
REMARK    4  A    between atoms: C_11  and  S_13
REMARK    5  A    between atoms: S_13  and  C_14
REMARK    6  A    between atoms: C_14  and  C_15
REMARK    7  A    between atoms: C_15  and  C_16
REMARK    8  A    between atoms: N_18  and  C_19
REMARK    9  A    between atoms: C_19  and  C_20
REMARK   10  A    between atoms: C_25  and  C_26
REMARK                            x       y       z     vdW  Elec       q    Type
REMARK                         _______ _______ _______ _____ _____    ______ ____
ROOT
ATOM      1  C   UNL     1      -0.018   1.503   0.010  0.00  0.00    +0.067 C 
ATOM      2  C   UNL     1       0.002  -0.004   0.002  0.00  0.00    +0.061 A 
ATOM      3  C   UNL     1       0.008  -0.817  -1.138  0.00  0.00    +0.048 A 
ATOM      4  C   UNL     1       0.028  -2.106  -0.731  0.00  0.00    +0.045 A 
ATOM      5  N   UNL     1       0.035  -2.108   0.628  0.00  0.00    -0.202 N 
ATOM      6  N   UNL     1       0.023  -0.775   1.058  0.00  0.00    -0.169 NA
ATOM      7  C   UNL     1       0.055  -3.236   1.449  0.00  0.00    +0.253 A 
ATOM      8  N   UNL     1       0.053  -3.076   2.761  0.00  0.00    -0.211 NA
ATOM      9  C   UNL     1       0.072  -4.130   3.578  0.00  0.00    +0.077 A 
ATOM     10  C   UNL     1       0.093  -5.410   3.030  0.00  0.00    +0.063 A 
ATOM     11  C   UNL     1       0.094  -5.536   1.641  0.00  0.00    +0.103 A 
ATOM     12  N   UNL     1       0.069  -4.436   0.892  0.00  0.00    -0.204 NA
ATOM     13  C   UNL     1       0.041  -3.321  -1.622  0.00  0.00    +0.066 C 
ENDROOT
BRANCH   9  14
ATOM     14  C   UNL     1       0.071  -3.941   5.049  0.00  0.00    +0.001 A 
ATOM     15  C   UNL     1       0.096  -5.048   5.896  0.00  0.00    +0.010 A 
ATOM     16  C   UNL     1       0.095  -4.866   7.265  0.00  0.00    +0.001 A 
ATOM     17  C   UNL     1       0.069  -3.589   7.795  0.00  0.00    +0.000 A 
ATOM     18  C   UNL     1       0.044  -2.487   6.959  0.00  0.00    +0.001 A 
ATOM     19  C   UNL     1       0.050  -2.657   5.590  0.00  0.00    +0.010 A 
ENDBRANCH   9  14
BRANCH  11  20
ATOM     20  S   UNL     1       0.120  -7.129   0.888  0.00  0.00    -0.105 S 
BRANCH  20  21
ATOM     21  C   UNL     1       0.112  -6.774  -0.891  0.00  0.00    +0.085 C 
BRANCH  21  22
ATOM     22  C   UNL     1       0.133  -8.088  -1.673  0.00  0.00    +0.107 C 
BRANCH  22  23
ATOM     23  C   UNL     1       0.126  -7.793  -3.151  0.00  0.00    +0.214 C 
ATOM     24  O   UNL     1       0.107  -6.644  -3.540  0.00  0.00    -0.276 OA
ATOM     25  N   UNL     1       0.142  -8.806  -4.040  0.00  0.00    -0.311 N 
ATOM     26  H   UNL     1       0.158  -9.724  -3.729  0.00  0.00    +0.149 HD
BRANCH  25  27
ATOM     27  C   UNL     1       0.136  -8.519  -5.477  0.00  0.00    +0.140 C 
BRANCH  27  28
ATOM     28  C   UNL     1       0.157  -9.814  -6.248  0.00  0.00    -0.019 A 
ATOM     29  C   UNL     1       1.345 -10.284  -6.777  0.00  0.00    +0.006 A 
ATOM     30  C   UNL     1       1.364 -11.472  -7.484  0.00  0.00    +0.000 A 
ATOM     31  C   UNL     1       0.195 -12.189  -7.662  0.00  0.00    +0.001 A 
ATOM     32  C   UNL     1      -0.992 -11.719  -7.132  0.00  0.00    +0.013 A 
ATOM     33  C   UNL     1      -1.010 -10.533  -6.421  0.00  0.00    +0.059 A 
BRANCH  33  34
ATOM     34  C   UNL     1      -2.304 -10.024  -5.840  0.00  0.00    +0.418 C 
ATOM     35  F   UNL     1      -3.336 -10.917  -6.145  0.00  0.00    -0.166 F 
ATOM     36  F   UNL     1      -2.178  -9.912  -4.451  0.00  0.00    -0.166 F 
ATOM     37  F   UNL     1      -2.597  -8.768  -6.384  0.00  0.00    -0.166 F 
ENDBRANCH  33  34
ENDBRANCH  27  28
ENDBRANCH  25  27
ENDBRANCH  22  23
ENDBRANCH  21  22
ENDBRANCH  20  21
ENDBRANCH  11  20
TORSDOF 8
