REMARK  Name = ZINC13283486
REMARK  8 active torsions:
REMARK  status: ('A' for Active; 'I' for Inactive)
REMARK    1  A    between atoms: C_3  and  N_27
REMARK    2  A    between atoms: C_6  and  C_7
REMARK    3  A    between atoms: C_7  and  C_8
REMARK    4  A    between atoms: C_8  and  C_9
REMARK    5  A    between atoms: C_9  and  C_10
REMARK    6  A    between atoms: C_10  and  C_11
REMARK    7  A    between atoms: C_12  and  C_19
REMARK    8  A    between atoms: C_13  and  N_18
REMARK                            x       y       z     vdW  Elec       q    Type
REMARK                         _______ _______ _______ _____ _____    ______ ____
ROOT
ATOM      1  C   UNL     1      -1.223   2.177   0.020  0.00  0.00    +0.056 A 
ATOM      2  C   UNL     1      -0.018   1.479   0.010  0.00  0.00    +0.043 A 
ATOM      3  C   UNL     1       1.180   2.217   0.003  0.00  0.00    +0.129 A 
ATOM      4  N   UNL     1       1.115   3.544   0.010  0.00  0.00    -0.199 NA
ATOM      5  C   UNL     1      -0.054   4.165   0.024  0.00  0.00    +0.214 A 
ATOM      6  N   UNL     1      -1.201   3.500   0.031  0.00  0.00    -0.219 NA
ATOM      7  N   UNL     1      -0.080   5.548   0.031  0.00  0.00    -0.327 N 
ATOM      8  H   UNL     1       0.751   6.048   0.025  0.00  0.00    +0.145 HD
ATOM      9  H   UNL     1      -0.929   6.017   0.041  0.00  0.00    +0.145 HD
ENDROOT
BRANCH   2  10
ATOM     10  C   UNL     1       0.002  -0.004   0.002  0.00  0.00    -0.011 A 
ATOM     11  C   UNL     1      -0.514  -0.705  -1.087  0.00  0.00    +0.010 A 
ATOM     12  C   UNL     1      -0.489  -2.084  -1.093  0.00  0.00    +0.022 A 
ATOM     13  C   UNL     1       0.038  -2.774  -0.014  0.00  0.00    +0.059 A 
ATOM     14  C   UNL     1       0.547  -2.083   1.073  0.00  0.00    +0.060 A 
ATOM     15  C   UNL     1       0.531  -0.702   1.086  0.00  0.00    +0.030 A 
ATOM     16 CL   UNL     1       1.206  -2.955   2.422  0.00  0.00    -0.082 Cl
ATOM     17 CL   UNL     1       0.060  -4.510  -0.024  0.00  0.00    -0.082 Cl
ENDBRANCH   2  10
BRANCH   3  18
ATOM     18  N   UNL     1       2.404   1.572  -0.012  0.00  0.00    -0.343 N 
ATOM     19  H   UNL     1       2.441   0.603  -0.018  0.00  0.00    +0.144 HD
ATOM     20  H   UNL     1       3.224   2.089  -0.018  0.00  0.00    +0.144 HD
ENDBRANCH   3  18
BRANCH   1  21
ATOM     21  C   UNL     1      -2.535   1.436   0.022  0.00  0.00    +0.056 C 
BRANCH  21  22
ATOM     22  C   UNL     1      -2.973   1.177   1.465  0.00  0.00    +0.006 C 
BRANCH  22  23
ATOM     23  C   UNL     1      -4.305   0.424   1.467  0.00  0.00    +0.005 C 
BRANCH  23  24
ATOM     24  C   UNL     1      -4.742   0.166   2.910  0.00  0.00    +0.035 C 
BRANCH  24  30
ATOM     25  C   UNL     1      -7.244   0.128   2.927  0.00  0.00    +0.005 A 
ATOM     26  C   UNL     1      -8.448  -0.548   2.924  0.00  0.00    +0.023 A 
ATOM     27  C   UNL     1      -8.463  -1.937   2.916  0.00  0.00    +0.025 A 
ATOM     28  C   UNL     1      -7.266  -2.641   2.907  0.00  0.00    +0.023 A 
ATOM     29  C   UNL     1      -6.065  -1.958   2.905  0.00  0.00    +0.005 A 
ATOM     30  C   UNL     1      -6.054  -0.576   2.912  0.00  0.00    -0.047 A 
BRANCH  27  31
ATOM     31  N   UNL     1      -9.679  -2.624   2.917  0.00  0.00    -0.358 N 
ATOM     32  H   UNL     1      -9.688  -3.594   2.912  0.00  0.00    +0.142 HD
ATOM     33  H   UNL     1     -10.515  -2.131   2.924  0.00  0.00    +0.142 HD
ENDBRANCH  27  31
ENDBRANCH  24  30
ENDBRANCH  23  24
ENDBRANCH  22  23
ENDBRANCH  21  22
ENDBRANCH   1  21
TORSDOF 8
