REMARK  Name = ZINC39324838
REMARK  13 active torsions:
REMARK  status: ('A' for Active; 'I' for Inactive)
REMARK    1  A    between atoms: C_1  and  C_2
REMARK    2  A    between atoms: C_5  and  S_8
REMARK    3  A    between atoms: S_8  and  N_11
REMARK    4  A    between atoms: N_11  and  C_12
REMARK    5  A    between atoms: N_11  and  C_21
REMARK    6  A    between atoms: C_12  and  C_13
REMARK    7  A    between atoms: C_16  and  O_19
REMARK    8  A    between atoms: O_19  and  C_20
REMARK    9  A    between atoms: C_21  and  C_22
REMARK   10  A    between atoms: C_27  and  O_36
REMARK   11  A    between atoms: C_28  and  O_34
REMARK   12  A    between atoms: O_34  and  C_35
REMARK   13  A    between atoms: O_36  and  C_37
REMARK                            x       y       z     vdW  Elec       q    Type
REMARK                         _______ _______ _______ _____ _____    ______ ____
ROOT
ATOM      1  N   UNL     1       1.782  -5.076   0.022  0.00  0.00    -0.171 NA
ENDROOT
BRANCH   1   2
ATOM      2  S   UNL     1       0.445  -4.118   0.211  0.00  0.00    +0.061 S 
ATOM      3  O   UNL     1      -0.171  -4.516   1.429  0.00  0.00    -0.153 OA
ATOM      4  O   UNL     1      -0.245  -4.133  -1.031  0.00  0.00    -0.153 OA
BRANCH   2   9
ATOM      5  C   UNL     1       2.396   1.532   1.032  0.00  0.00    +0.044 C 
ATOM      6  C   UNL     1       1.909   0.121   0.827  0.00  0.00    -0.050 A 
ATOM      7  C   UNL     1       1.650  -0.343  -0.450  0.00  0.00    +0.005 A 
ATOM      8  C   UNL     1       1.204  -1.637  -0.638  0.00  0.00    +0.029 A 
ATOM      9  C   UNL     1       1.015  -2.469   0.451  0.00  0.00    +0.106 A 
ATOM     10  C   UNL     1       1.274  -2.005   1.727  0.00  0.00    +0.029 A 
ATOM     11  C   UNL     1       1.725  -0.712   1.915  0.00  0.00    +0.005 A 
ENDBRANCH   2   9
ENDBRANCH   1   2
BRANCH   1  12
ATOM     12  C   UNL     1       2.411  -5.695   1.191  0.00  0.00    +0.144 C 
BRANCH  12  13
ATOM     13  C   UNL     1       1.855  -7.082   1.386  0.00  0.00    -0.031 A 
ATOM     14  C   UNL     1       0.733  -7.271   2.172  0.00  0.00    +0.008 A 
ATOM     15  C   UNL     1       0.221  -8.541   2.353  0.00  0.00    +0.046 A 
ATOM     16  C   UNL     1       0.833  -9.627   1.745  0.00  0.00    +0.120 A 
ATOM     17  C   UNL     1       1.958  -9.435   0.957  0.00  0.00    +0.046 A 
ATOM     18  C   UNL     1       2.463  -8.162   0.775  0.00  0.00    +0.008 A 
BRANCH  16  19
ATOM     19  O   UNL     1       0.331 -10.878   1.922  0.00  0.00    -0.495 OA
ATOM     20  C   UNL     1       1.013 -11.949   1.266  0.00  0.00    +0.277 C 
ENDBRANCH  16  19
ENDBRANCH  12  13
ENDBRANCH   1  12
BRANCH   1  21
ATOM     21  C   UNL     1       2.336  -5.305  -1.315  0.00  0.00    +0.126 C 
BRANCH  21  22
ATOM     22  C   UNL     1       3.272  -4.153  -1.683  0.00  0.00    +0.114 C 
ATOM     23  C   UNL     1       3.611  -4.281  -3.155  0.00  0.00    -0.003 C 
ATOM     24  C   UNL     1       4.926  -4.392  -3.487  0.00  0.00    -0.003 A 
ATOM     25  C   UNL     1       5.334  -4.520  -4.888  0.00  0.00    +0.059 A 
ATOM     26  C   UNL     1       6.656  -4.629  -5.181  0.00  0.00    +0.162 A 
ATOM     27  C   UNL     1       7.631  -4.621  -4.167  0.00  0.00    +0.163 A 
ATOM     28  C   UNL     1       7.304  -4.503  -2.835  0.00  0.00    +0.073 A 
ATOM     29  C   UNL     1       5.965  -4.385  -2.440  0.00  0.00    +0.044 A 
ATOM     30  N   UNL     1       5.662  -4.272  -1.144  0.00  0.00    -0.284 N 
ATOM     31  C   UNL     1       4.423  -4.159  -0.702  0.00  0.00    +0.225 C 
ATOM     32  O   UNL     1       4.208  -4.059   0.492  0.00  0.00    -0.275 OA
ATOM     33  H   UNL     1       6.386  -4.274  -0.499  0.00  0.00    +0.155 HD
BRANCH  27  34
ATOM     34  O   UNL     1       8.937  -4.733  -4.512  0.00  0.00    -0.491 OA
ATOM     35  C   UNL     1       9.893  -4.720  -3.450  0.00  0.00    +0.277 C 
ENDBRANCH  27  34
BRANCH  26  36
ATOM     36  O   UNL     1       7.043  -4.749  -6.479  0.00  0.00    -0.491 OA
ATOM     37  C   UNL     1       6.011  -4.752  -7.467  0.00  0.00    +0.277 C 
ENDBRANCH  26  36
ENDBRANCH  21  22
ENDBRANCH   1  21
TORSDOF 9
