REMARK  Name = ZINC08767203
REMARK  11 active torsions:
REMARK  status: ('A' for Active; 'I' for Inactive)
REMARK    1  A    between atoms: C_1  and  C_2
REMARK    2  A    between atoms: C_3  and  C_34
REMARK    3  A    between atoms: C_4  and  C_25
REMARK    4  A    between atoms: C_10  and  C_11
REMARK    5  A    between atoms: C_14  and  N_16
REMARK    6  A    between atoms: C_21  and  N_69
REMARK    7  A    between atoms: C_28  and  C_31
REMARK    8  A    between atoms: C_31  and  C_32
REMARK    9  A    between atoms: C_31  and  C_33
REMARK   10  A    between atoms: C_34  and  O_36
REMARK   11  A    between atoms: O_36  and  C_37
REMARK                            x       y       z     vdW  Elec       q    Type
REMARK                         _______ _______ _______ _____ _____    ______ ____
ROOT
ATOM      1  C   UNL     1       6.607   4.843  -3.267  0.00  0.00    +0.066 C 
ATOM      2  C   UNL     1       6.200   4.573  -1.841  0.00  0.00    +0.053 C 
ATOM      3  C   UNL     1       5.808   3.315  -1.475  0.00  0.00    +0.085 C 
ATOM      4  C   UNL     1       5.409   3.086  -0.035  0.00  0.00    +0.162 C 
ATOM      5  N   UNL     1       5.472   4.258   0.881  0.00  0.00    -0.275 N 
ATOM      6  C   UNL     1       5.162   4.265   2.184  0.00  0.00    +0.268 A 
ATOM      7  O   UNL     1       4.785   3.250   2.744  0.00  0.00    -0.266 OA
ATOM      8  C   UNL     1       5.287   5.484   2.894  0.00  0.00    +0.084 A 
ATOM      9  C   UNL     1       5.035   5.751   4.223  0.00  0.00    +0.067 C 
ATOM     10  S   UNL     1       5.859   6.580   1.607  0.00  0.00    -0.046 S 
ATOM     11  C   UNL     1       5.893   5.435   0.309  0.00  0.00    +0.178 A 
ATOM     12  N   UNL     1       6.225   5.558  -0.953  0.00  0.00    -0.228 NA
ENDROOT
BRANCH   4  13
ATOM     13  C   UNL     1       3.995   2.564  -0.023  0.00  0.00    -0.020 A 
ATOM     14  C   UNL     1       3.761   1.202  -0.028  0.00  0.00    +0.006 A 
ATOM     15  C   UNL     1       2.464   0.724  -0.018  0.00  0.00    +0.004 A 
ATOM     16  C   UNL     1       1.401   1.607  -0.003  0.00  0.00    -0.045 A 
ATOM     17  C   UNL     1       1.635   2.970  -0.003  0.00  0.00    +0.004 A 
ATOM     18  C   UNL     1       2.932   3.448  -0.008  0.00  0.00    +0.006 A 
BRANCH  16  19
ATOM     19  C   UNL     1      -0.013   1.086   0.008  0.00  0.00    +0.013 C 
ATOM     20  C   UNL     1      -0.753   1.593  -1.232  0.00  0.00    +0.012 C 
ATOM     21  C   UNL     1      -0.729   1.579   1.267  0.00  0.00    +0.012 C 
ENDBRANCH  16  19
ENDBRANCH   4  13
BRANCH   9  22
ATOM     22  C   UNL     1       5.228   7.050   4.728  0.00  0.00    +0.131 A 
ATOM     23  C   UNL     1       5.014   7.457   6.035  0.00  0.00    +0.051 A 
ATOM     24  C   UNL     1       5.329   8.816   6.088  0.00  0.00    +0.066 A 
ATOM     25  C   UNL     1       5.718   9.190   4.834  0.00  0.00    +0.189 A 
ATOM     26  O   UNL     1       5.660   8.121   4.024  0.00  0.00    -0.442 OA
BRANCH  25  27
ATOM     27  N   UNL     1       6.113  10.459   4.460  0.00  0.00    -0.305 N 
ATOM     28  C   UNL     1       5.072  11.448   4.775  0.00  0.00    +0.089 C 
ATOM     29  C   UNL     1       5.578  12.848   4.420  0.00  0.00    -0.060 C 
ATOM     30  C   UNL     1       6.970  11.903   2.679  0.00  0.00    -0.060 C 
ATOM     31  C   UNL     1       6.463  10.503   3.034  0.00  0.00    +0.089 C 
ATOM     32  C   UNL     1       6.349  14.242   2.596  0.00  0.00    -0.096 C 
ATOM     33  N   UNL     1       5.906  12.884   2.979  0.00  0.00    +0.380 N 
ATOM     34  H   UNL     1       5.067  12.643   2.439  0.00  0.00    -0.082 HD
ENDBRANCH  25  27
ENDBRANCH   9  22
BRANCH   3  35
ATOM     35  C   UNL     1       5.779   2.267  -2.408  0.00  0.00    +0.339 C 
ATOM     36  O   UNL     1       6.105   2.471  -3.564  0.00  0.00    -0.245 OA
BRANCH  35  37
ATOM     37  O   UNL     1       5.390   1.032  -2.024  0.00  0.00    -0.465 OA
ATOM     38  C   UNL     1       5.385   0.013  -3.026  0.00  0.00    +0.280 C 
ENDBRANCH  35  37
ENDBRANCH   3  35
TORSDOF 6
