REMARK  Name = ZINC39448829
REMARK  5 active torsions:
REMARK  status: ('A' for Active; 'I' for Inactive)
REMARK    1  A    between atoms: C_1  and  C_2
REMARK    2  A    between atoms: C_5  and  C_8
REMARK    3  A    between atoms: C_11  and  S_16
REMARK    4  A    between atoms: S_16  and  C_17
REMARK    5  A    between atoms: C_17  and  C_18
REMARK                            x       y       z     vdW  Elec       q    Type
REMARK                         _______ _______ _______ _____ _____    ______ ____
ROOT
ATOM      1  S   UNL     1      -2.534  -5.803   2.676  0.00  0.00    -0.083 S 
ENDROOT
BRANCH   1   4
ATOM      2  C   UNL     1       0.059  -4.275  -0.021  0.00  0.00    +0.200 C 
ATOM      3  N   UNL     1      -0.615  -4.777   1.174  0.00  0.00    -0.346 N 
ATOM      4  C   UNL     1      -1.809  -5.279   1.158  0.00  0.00    +0.136 C 
ATOM      5  N   UNL     1      -2.532  -5.416  -0.012  0.00  0.00    -0.269 N 
ATOM      6  C   UNL     1      -2.022  -4.812  -1.158  0.00  0.00    +0.180 C 
ATOM      7  N   UNL     1      -0.633  -4.768  -1.223  0.00  0.00    -0.293 N 
ATOM      8  N   UNL     1      -2.785  -4.327  -2.095  0.00  0.00    -0.272 NA
ATOM      9  H   UNL     1      -3.749  -4.379  -2.010  0.00  0.00    +0.189 HD
ATOM     10  H   UNL     1      -0.149  -5.045  -2.016  0.00  0.00    +0.151 HD
ATOM     11  H   UNL     1      -3.363  -5.915  -0.034  0.00  0.00    +0.157 HD
ATOM     12  H   UNL     1      -0.145  -4.733   2.021  0.00  0.00    +0.163 HD
BRANCH   2  17
ATOM     13  C   UNL     1      -0.018   1.503   0.010  0.00  0.00    +0.044 C 
ATOM     14  C   UNL     1       0.002  -0.004   0.002  0.00  0.00    -0.050 A 
ATOM     15  C   UNL     1       0.006  -0.689  -1.199  0.00  0.00    +0.004 A 
ATOM     16  C   UNL     1       0.025  -2.071  -1.206  0.00  0.00    +0.007 A 
ATOM     17  C   UNL     1       0.040  -2.768  -0.013  0.00  0.00    -0.007 A 
ATOM     18  C   UNL     1       0.037  -2.084   1.188  0.00  0.00    +0.007 A 
ATOM     19  C   UNL     1       0.023  -0.702   1.195  0.00  0.00    +0.004 A 
ENDBRANCH   2  17
ENDBRANCH   1   4
BRANCH   1  20
ATOM     20  C   UNL     1      -4.168  -6.423   2.191  0.00  0.00    +0.173 C 
BRANCH  20  21
ATOM     21  C   UNL     1      -4.904  -6.909   3.413  0.00  0.00    +0.234 C 
ATOM     22  O   UNL     1      -4.378  -6.844   4.503  0.00  0.00    -0.274 OA
ATOM     23  N   UNL     1      -6.147  -7.417   3.293  0.00  0.00    -0.239 N 
ATOM     24  C   UNL     1      -6.774  -7.508   2.042  0.00  0.00    +0.044 A 
ATOM     25  C   UNL     1      -6.122  -8.215   1.037  0.00  0.00    +0.024 A 
ATOM     26  C   UNL     1      -6.707  -8.369  -0.202  0.00  0.00    +0.002 A 
ATOM     27  C   UNL     1      -7.953  -7.815  -0.433  0.00  0.00    +0.000 A 
ATOM     28  C   UNL     1      -8.591  -7.104   0.556  0.00  0.00    +0.005 A 
ATOM     29  C   UNL     1      -8.008  -6.919   1.812  0.00  0.00    -0.025 A 
ATOM     30  C   UNL     1      -8.800  -6.041   2.754  0.00  0.00    +0.042 C 
ATOM     31  C   UNL     1      -8.101  -5.797   4.080  0.00  0.00    +0.042 C 
ATOM     32  C   UNL     1      -7.894  -7.084   4.838  0.00  0.00    -0.025 A 
ATOM     33  C   UNL     1      -6.852  -7.875   4.414  0.00  0.00    +0.044 A 
ATOM     34  C   UNL     1      -6.542  -9.056   5.066  0.00  0.00    +0.024 A 
ATOM     35  C   UNL     1      -7.322  -9.444   6.144  0.00  0.00    +0.002 A 
ATOM     36  C   UNL     1      -8.387  -8.663   6.555  0.00  0.00    +0.000 A 
ATOM     37  C   UNL     1      -8.684  -7.462   5.898  0.00  0.00    +0.005 A 
ENDBRANCH  20  21
ENDBRANCH   1  20
TORSDOF 4
