REMARK  Name = ZINC39482829
REMARK  11 active torsions:
REMARK  status: ('A' for Active; 'I' for Inactive)
REMARK    1  A    between atoms: C_1  and  C_2
REMARK    2  A    between atoms: C_2  and  C_3
REMARK    3  A    between atoms: C_2  and  S_4
REMARK    4  A    between atoms: S_4  and  C_7
REMARK    5  A    between atoms: C_10  and  N_27
REMARK    6  A    between atoms: C_11  and  N_13
REMARK    7  A    between atoms: C_17  and  C_20
REMARK    8  A    between atoms: C_20  and  C_21
REMARK    9  A    between atoms: N_27  and  S_28
REMARK   10  A    between atoms: S_28  and  C_31
REMARK   11  A    between atoms: C_31  and  C_32
REMARK                            x       y       z     vdW  Elec       q    Type
REMARK                         _______ _______ _______ _____ _____    ______ ____
ROOT
ATOM      1  C   UNL     1      -1.020  -2.353   0.496  0.00  0.00    +0.090 A 
ATOM      2  C   UNL     1      -1.026  -3.037  -0.705  0.00  0.00    +0.029 A 
ATOM      3  C   UNL     1      -1.068  -4.419  -0.718  0.00  0.00    +0.028 A 
ATOM      4  C   UNL     1      -1.105  -5.123   0.476  0.00  0.00    +0.069 A 
ATOM      5  C   UNL     1      -1.099  -4.433   1.688  0.00  0.00    +0.054 A 
ATOM      6  C   UNL     1      -1.051  -3.047   1.692  0.00  0.00    +0.052 A 
ENDROOT
BRANCH   5   7
ATOM      7  N   UNL     1      -1.136  -5.138   2.897  0.00  0.00    -0.332 N 
ATOM      8  C   UNL     1       0.105  -5.552   3.570  0.00  0.00    +0.086 C 
ATOM      9  C   UNL     1       0.000  -7.043   3.907  0.00  0.00    -0.063 C 
ATOM     10  N   UNL     1      -1.221  -7.283   4.687  0.00  0.00    +0.383 N 
ATOM     11  C   UNL     1      -2.403  -6.978   3.871  0.00  0.00    -0.050 C 
ATOM     12  C   UNL     1      -2.417  -5.479   3.535  0.00  0.00    +0.089 C 
ATOM     13  H   UNL     1      -1.251  -8.250   4.973  0.00  0.00    -0.085 HD
ATOM     14  H   UNL     1      -1.217  -6.692   5.505  0.00  0.00    -0.085 HD
BRANCH  11  15
ATOM     15  C   UNL     1      -3.668  -7.336   4.653  0.00  0.00    +0.021 C 
BRANCH  15  16
ATOM     16  C   UNL     1      -3.714  -8.825   4.880  0.00  0.00    -0.049 A 
ATOM     17  C   UNL     1      -4.327  -9.647   3.953  0.00  0.00    +0.003 A 
ATOM     18  C   UNL     1      -4.368 -11.013   4.162  0.00  0.00    +0.000 A 
ATOM     19  C   UNL     1      -3.797 -11.557   5.297  0.00  0.00    +0.000 A 
ATOM     20  C   UNL     1      -3.184 -10.735   6.224  0.00  0.00    +0.000 A 
ATOM     21  C   UNL     1      -3.139  -9.369   6.013  0.00  0.00    +0.003 A 
ENDBRANCH  15  16
ENDBRANCH  11  15
ENDBRANCH   5   7
BRANCH   1  22
ATOM     22  S   UNL     1      -0.966  -0.592   0.504  0.00  0.00    -0.001 S 
ATOM     23  O   UNL     1      -1.568  -0.216   1.735  0.00  0.00    -0.169 OA
ATOM     24  O   UNL     1      -1.548  -0.206  -0.734  0.00  0.00    -0.169 OA
BRANCH  22  26
ATOM     25  C   UNL     1       0.969   1.335   0.653  0.00  0.00    +0.032 C 
ATOM     26  C   UNL     1       0.800  -0.180   0.520  0.00  0.00    +0.130 C 
ATOM     27  C   UNL     1       1.475  -0.875   1.704  0.00  0.00    +0.032 C 
ENDBRANCH  22  26
ENDBRANCH   1  22
BRANCH   4  28
ATOM     28  N   UNL     1      -1.148  -6.522   0.465  0.00  0.00    -0.219 N 
ATOM     29  H   UNL     1      -1.659  -6.997   1.139  0.00  0.00    +0.173 HD
BRANCH  28  30
ATOM     30  S   UNL     1      -0.327  -7.367  -0.699  0.00  0.00    +0.047 S 
ATOM     31  O   UNL     1      -0.515  -8.733  -0.356  0.00  0.00    -0.155 OA
ATOM     32  O   UNL     1      -0.817  -6.856  -1.931  0.00  0.00    -0.155 OA
BRANCH  30  33
ATOM     33  C   UNL     1       1.411  -6.900  -0.475  0.00  0.00    +0.223 C 
BRANCH  33  34
ATOM     34  C   UNL     1       2.259  -7.618  -1.493  0.00  0.00    -0.025 A 
ATOM     35  C   UNL     1       2.790  -8.860  -1.198  0.00  0.00    +0.005 A 
ATOM     36  C   UNL     1       3.568  -9.519  -2.132  0.00  0.00    +0.000 A 
ATOM     37  C   UNL     1       3.815  -8.935  -3.361  0.00  0.00    +0.000 A 
ATOM     38  C   UNL     1       3.284  -7.694  -3.656  0.00  0.00    +0.000 A 
ATOM     39  C   UNL     1       2.502  -7.037  -2.724  0.00  0.00    +0.005 A 
ENDBRANCH  33  34
ENDBRANCH  30  33
ENDBRANCH  28  30
ENDBRANCH   4  28
TORSDOF 9
