REMARK  Name = ZINC61106495
REMARK  8 active torsions:
REMARK  status: ('A' for Active; 'I' for Inactive)
REMARK    1  A    between atoms: C_1  and  C_2
REMARK    2  A    between atoms: C_2  and  C_3
REMARK    3  A    between atoms: C_2  and  N_16
REMARK    4  A    between atoms: C_6  and  N_9
REMARK    5  A    between atoms: N_12  and  C_13
REMARK    6  A    between atoms: N_19  and  C_20
REMARK    7  A    between atoms: C_23  and  C_26
REMARK    8  A    between atoms: C_26  and  C_27
REMARK                            x       y       z     vdW  Elec       q    Type
REMARK                         _______ _______ _______ _____ _____    ______ ____
ROOT
ATOM      1  C   UNL     1      -0.263   1.054  -1.377  0.00  0.00    +0.033 C 
ATOM      2  C   UNL     1      -0.069  -0.463  -1.420  0.00  0.00    +0.102 C 
ENDROOT
BRANCH   2   3
ATOM      3  C   UNL     1      -1.309  -1.143  -0.900  0.00  0.00    -0.027 A 
ATOM      4  C   UNL     1      -1.524  -1.237   0.462  0.00  0.00    +0.007 A 
ATOM      5  C   UNL     1      -2.660  -1.860   0.942  0.00  0.00    +0.023 A 
ATOM      6  C   UNL     1      -3.587  -2.391   0.054  0.00  0.00    +0.035 A 
ATOM      7  C   UNL     1      -3.368  -2.294  -1.314  0.00  0.00    +0.023 A 
ATOM      8  C   UNL     1      -2.232  -1.665  -1.787  0.00  0.00    +0.007 A 
BRANCH   6   9
ATOM      9  N   UNL     1      -4.738  -3.022   0.536  0.00  0.00    -0.269 N 
ATOM     10  C   UNL     1      -5.316  -2.592   1.675  0.00  0.00    +0.304 C 
ATOM     11  O   UNL     1      -4.896  -1.595   2.231  0.00  0.00    -0.253 OA
ATOM     12  N   UNL     1      -6.360  -3.265   2.198  0.00  0.00    -0.296 N 
ATOM     13  H   UNL     1      -5.121  -3.771   0.051  0.00  0.00    +0.156 HD
ATOM     14  H   UNL     1      -6.696  -4.060   1.754  0.00  0.00    +0.151 HD
BRANCH  12  15
ATOM     15  C   UNL     1      -6.989  -2.797   3.435  0.00  0.00    +0.075 C 
ATOM     16  C   UNL     1      -7.336  -3.847   4.492  0.00  0.00    +0.024 C 
ATOM     17  C   UNL     1      -8.449  -3.184   3.677  0.00  0.00    +0.024 C 
ENDBRANCH  12  15
ENDBRANCH   6   9
ENDBRANCH   2   3
BRANCH   2  18
ATOM     18  N   UNL     1       1.077  -0.833  -0.585  0.00  0.00    -0.293 N 
ATOM     19  C   UNL     1       2.324  -0.789  -1.095  0.00  0.00    +0.304 C 
ATOM     20  O   UNL     1       2.498  -0.442  -2.247  0.00  0.00    -0.252 OA
ATOM     21  N   UNL     1       3.378  -1.129  -0.327  0.00  0.00    -0.269 N 
ATOM     22  H   UNL     1       0.938  -1.109   0.334  0.00  0.00    +0.151 HD
ATOM     23  H   UNL     1       3.235  -1.477   0.567  0.00  0.00    +0.156 HD
BRANCH  21  24
ATOM     24  C   UNL     1       4.680  -0.979  -0.819  0.00  0.00    +0.035 A 
ATOM     25  C   UNL     1       5.672  -1.875  -0.444  0.00  0.00    +0.023 A 
ATOM     26  C   UNL     1       6.956  -1.725  -0.932  0.00  0.00    +0.006 A 
ATOM     27  C   UNL     1       7.253  -0.683  -1.792  0.00  0.00    -0.034 A 
ATOM     28  C   UNL     1       6.267   0.211  -2.166  0.00  0.00    +0.006 A 
ATOM     29  C   UNL     1       4.980   0.063  -1.686  0.00  0.00    +0.023 A 
BRANCH  27  30
ATOM     30  C   UNL     1       8.654  -0.522  -2.322  0.00  0.00    +0.153 C 
BRANCH  30  31
ATOM     31  C   UNL     1       8.793  -1.275  -3.579  0.00  0.00    +0.067 C 
ATOM     32  N   UNL     1       8.899  -1.855  -4.550  0.00  0.00    -0.196 NA
ENDBRANCH  30  31
ENDBRANCH  27  30
ENDBRANCH  21  24
ENDBRANCH   2  18
TORSDOF 7
