REMARK  Name = ZINC09796022
REMARK  11 active torsions:
REMARK  status: ('A' for Active; 'I' for Inactive)
REMARK    1  A    between atoms: C_1  and  C_2
REMARK    2  A    between atoms: C_5  and  C_8
REMARK    3  A    between atoms: C_11  and  C_14
REMARK    4  A    between atoms: C_19  and  C_21
REMARK    5  A    between atoms: C_21  and  N_66
REMARK    6  A    between atoms: C_22  and  C_23
REMARK    7  A    between atoms: C_22  and  N_66
REMARK    8  A    between atoms: C_23  and  O_24
REMARK    9  A    between atoms: O_24  and  C_25
REMARK   10  A    between atoms: C_26  and  C_27
REMARK   11  A    between atoms: C_26  and  N_66
REMARK                            x       y       z     vdW  Elec       q    Type
REMARK                         _______ _______ _______ _____ _____    ______ ____
ROOT
ATOM      1  C   UNL     1      -1.372   2.114   0.075  0.00  0.00    +0.021 C 
ENDROOT
BRANCH   1   7
ATOM      2  C   UNL     1       2.284   4.169   0.184  0.00  0.00    +0.069 C 
ATOM      3  N   UNL     1       1.105   3.651   0.157  0.00  0.00    -0.181 NA
ATOM      4  N   UNL     1       1.097   2.259   0.100  0.00  0.00    -0.184 N 
ATOM      5  C   UNL     1       2.487   1.774   0.093  0.00  0.00    +0.172 C 
ATOM      6  C   UNL     1       3.321   3.070   0.144  0.00  0.00    +0.090 C 
ATOM      7  C   UNL     1      -0.004   1.482   0.063  0.00  0.00    +0.219 C 
ATOM      8  O   UNL     1       0.106   0.275   0.014  0.00  0.00    -0.276 OA
BRANCH   2  13
ATOM      9  C   UNL     1       3.427   9.801   0.418  0.00  0.00    +0.044 C 
ATOM     10  C   UNL     1       3.128   8.325   0.356  0.00  0.00    -0.050 A 
ATOM     11  C   UNL     1       1.815   7.890   0.333  0.00  0.00    +0.004 A 
ATOM     12  C   UNL     1       1.533   6.541   0.277  0.00  0.00    +0.010 A 
ATOM     13  C   UNL     1       2.577   5.614   0.244  0.00  0.00    -0.002 A 
ATOM     14  C   UNL     1       3.901   6.060   0.274  0.00  0.00    +0.010 A 
ATOM     15  C   UNL     1       4.167   7.413   0.324  0.00  0.00    +0.004 A 
ENDBRANCH   2  13
BRANCH   5  16
ATOM     16  C   UNL     1       2.776   1.010  -1.173  0.00  0.00    +0.128 A 
ATOM     17  C   UNL     1       3.527  -0.102  -1.266  0.00  0.00    +0.046 A 
ATOM     18  C   UNL     1       3.531  -0.481  -2.628  0.00  0.00    +0.041 A 
ATOM     19  C   UNL     1       2.782   0.422  -3.286  0.00  0.00    +0.195 A 
ATOM     20  O   UNL     1       2.322   1.320  -2.398  0.00  0.00    -0.466 OA
ENDBRANCH   5  16
ENDBRANCH   1   7
BRANCH   1  21
ATOM     21  N   UNL     1      -2.385   1.052  -0.100  0.00  0.00    +0.392 N 
ATOM     22  H   UNL     1      -2.058   0.393  -0.816  0.00  0.00    -0.080 HD
BRANCH  21  23
ATOM     23  C   UNL     1      -3.666   1.643  -0.542  0.00  0.00    -0.049 C 
BRANCH  23  24
ATOM     24  C   UNL     1      -3.566   1.969  -2.033  0.00  0.00    +0.141 C 
BRANCH  24  25
ATOM     25  O   UNL     1      -3.385   0.760  -2.774  0.00  0.00    -0.385 OA
ATOM     26  C   UNL     1      -3.280   0.954  -4.186  0.00  0.00    +0.193 C 
ENDBRANCH  24  25
ENDBRANCH  23  24
ENDBRANCH  21  23
BRANCH  21  27
ATOM     27  C   UNL     1      -2.578   0.323   1.171  0.00  0.00    -0.002 C 
BRANCH  27  28
ATOM     28  C   UNL     1      -3.443  -0.884   0.913  0.00  0.00    +0.094 A 
ATOM     29  N   UNL     1      -3.728  -1.707   1.956  0.00  0.00    -0.312 N 
ATOM     30  H   UNL     1      -3.375  -1.507   2.837  0.00  0.00    +0.170 HD
ATOM     31  C   UNL     1      -4.501  -2.804   1.777  0.00  0.00    +0.259 A 
ATOM     32  O   UNL     1      -4.765  -3.550   2.702  0.00  0.00    -0.267 OA
ATOM     33  C   UNL     1      -5.009  -3.059   0.421  0.00  0.00    +0.065 A 
ATOM     34  C   UNL     1      -5.813  -4.160   0.130  0.00  0.00    +0.015 A 
ATOM     35  C   UNL     1      -6.262  -4.351  -1.159  0.00  0.00    +0.001 A 
ATOM     36  C   UNL     1      -5.921  -3.457  -2.165  0.00  0.00    +0.002 A 
ATOM     37  C   UNL     1      -5.128  -2.363  -1.899  0.00  0.00    +0.028 A 
ATOM     38  C   UNL     1      -4.660  -2.148  -0.601  0.00  0.00    +0.078 A 
ATOM     39  N   UNL     1      -3.881  -1.081  -0.293  0.00  0.00    -0.236 NA
ENDBRANCH  27  28
ENDBRANCH  21  27
ENDBRANCH   1  21
TORSDOF 9
