REMARK  Name = ZINC00632930
REMARK  5 active torsions:
REMARK  status: ('A' for Active; 'I' for Inactive)
REMARK    1  A    between atoms: C_1  and  C_2
REMARK    2  A    between atoms: C_2  and  C_4
REMARK    3  A    between atoms: C_2  and  O_19
REMARK    4  A    between atoms: C_7  and  C_12
REMARK    5  A    between atoms: O_19  and  C_20
REMARK                            x       y       z     vdW  Elec       q    Type
REMARK                         _______ _______ _______ _____ _____    ______ ____
ROOT
ATOM      1  C   UNL     1      -1.469  -0.316   0.137  0.00  0.00    +0.142 A 
ATOM      2  N   UNL     1      -2.285  -0.816  -0.743  0.00  0.00    -0.157 NA
ATOM      3  N   UNL     1      -3.624  -1.033  -0.447  0.00  0.00    -0.186 N 
ATOM      4  C   UNL     1      -4.778  -1.518  -1.047  0.00  0.00    +0.186 A 
ATOM      5  N   UNL     1      -5.748  -1.445  -0.165  0.00  0.00    -0.126 NA
ATOM      6  N   UNL     1      -5.302  -0.955   0.939  0.00  0.00    -0.120 NA
ATOM      7  C   UNL     1      -4.035  -0.693   0.819  0.00  0.00    +0.218 A 
ATOM      8  S   UNL     1      -2.535  -0.088   1.552  0.00  0.00    -0.027 S 
ENDROOT
BRANCH   4   9
ATOM      9  C   UNL     1      -4.893  -2.024  -2.430  0.00  0.00    +0.021 A 
ATOM     10  C   UNL     1      -3.886  -1.759  -3.360  0.00  0.00    +0.014 A 
ATOM     11  C   UNL     1      -3.997  -2.238  -4.649  0.00  0.00    +0.039 A 
ATOM     12  C   UNL     1      -5.110  -2.973  -5.024  0.00  0.00    +0.123 A 
ATOM     13  C   UNL     1      -6.115  -3.235  -4.107  0.00  0.00    +0.039 A 
ATOM     14  C   UNL     1      -6.013  -2.765  -2.814  0.00  0.00    +0.014 A 
ATOM     15  F   UNL     1      -5.216  -3.435  -6.289  0.00  0.00    -0.205 F 
ENDBRANCH   4   9
BRANCH   1  17
ATOM     16  C   UNL     1       0.198   1.499  -0.139  0.00  0.00    +0.059 C 
ATOM     17  C   UNL     1       0.000  -0.011   0.000  0.00  0.00    +0.227 C 
BRANCH  17  18
ATOM     18  O   UNL     1       0.693  -0.477   1.160  0.00  0.00    -0.482 OA
BRANCH  18  19
ATOM     19  C   UNL     1       2.014  -0.764   1.016  0.00  0.00    +0.122 A 
ATOM     20  C   UNL     1       2.655  -0.501  -0.186  0.00  0.00    +0.048 A 
ATOM     21  C   UNL     1       3.999  -0.787  -0.329  0.00  0.00    +0.042 A 
ATOM     22  C   UNL     1       4.704  -1.347   0.723  0.00  0.00    +0.124 A 
ATOM     23  C   UNL     1       4.064  -1.616   1.921  0.00  0.00    +0.042 A 
ATOM     24  C   UNL     1       2.722  -1.325   2.069  0.00  0.00    +0.048 A 
ATOM     25  F   UNL     1       6.017  -1.631   0.580  0.00  0.00    -0.205 F 
ENDBRANCH  18  19
ENDBRANCH  17  18
ENDBRANCH   1  17
TORSDOF 4
