REMARK  Name = ZINC45071256
REMARK  7 active torsions:
REMARK  status: ('A' for Active; 'I' for Inactive)
REMARK    1  A    between atoms: C_8  and  N_13
REMARK    2  A    between atoms: C_9  and  N_12
REMARK    3  A    between atoms: N_13  and  C_14
REMARK    4  A    between atoms: C_14  and  C_15
REMARK    5  A    between atoms: C_15  and  C_16
REMARK    6  A    between atoms: C_16  and  S_17
REMARK    7  A    between atoms: S_17  and  N_20
REMARK                            x       y       z     vdW  Elec       q    Type
REMARK                         _______ _______ _______ _____ _____    ______ ____
ROOT
ATOM      1  C   UNL     1       0.225  -3.582  -3.151  0.00  0.00    +0.017 A 
ATOM      2  C   UNL     1       0.100  -2.233  -3.020  0.00  0.00    +0.027 A 
ATOM      3  C   UNL     1       1.025  -1.518  -2.239  0.00  0.00    +0.048 A 
ATOM      4  C   UNL     1       2.075  -2.223  -1.600  0.00  0.00    +0.022 A 
ATOM      5  C   UNL     1       2.174  -3.613  -1.756  0.00  0.00    +0.027 A 
ATOM      6  C   UNL     1       1.260  -4.272  -2.521  0.00  0.00    +0.019 A 
ATOM      7 BR   UNL     1       1.395  -6.147  -2.731  0.00  0.00    -0.050 Br
ATOM      8  C   UNL     1       3.004  -1.503  -0.815  0.00  0.00    +0.059 A 
ATOM      9  C   UNL     1       2.837  -0.127  -0.709  0.00  0.00    +0.062 A 
ATOM     10  C   UNL     1       1.777   0.491  -1.369  0.00  0.00    +0.107 A 
ATOM     11  N   UNL     1       0.922  -0.193  -2.095  0.00  0.00    -0.359 N 
ATOM     12  H   UNL     1       0.198   0.276  -2.538  0.00  0.00    +0.165 HD
ENDROOT
BRANCH   9  13
ATOM     13  N   UNL     1       3.731   0.635   0.058  0.00  0.00    -0.355 N 
ATOM     14  H   UNL     1       4.388   0.193   0.619  0.00  0.00    +0.142 HD
ATOM     15  H   UNL     1       3.692   1.604   0.028  0.00  0.00    +0.142 HD
ENDBRANCH   9  13
BRANCH   8  16
ATOM     16  N   UNL     1       4.051  -2.151  -0.168  0.00  0.00    -0.342 N 
ATOM     17  H   UNL     1       3.952  -2.432   0.755  0.00  0.00    +0.146 HD
BRANCH  16  18
ATOM     18  C   UNL     1       5.304  -2.411  -0.882  0.00  0.00    +0.103 C 
BRANCH  18  19
ATOM     19  C   UNL     1       5.412  -3.904  -1.197  0.00  0.00    +0.043 C 
BRANCH  19  20
ATOM     20  C   UNL     1       6.720  -4.175  -1.942  0.00  0.00    +0.186 C 
BRANCH  20  21
ATOM     21  S   UNL     1       6.848  -5.946  -2.316  0.00  0.00    +0.027 S 
ATOM     22  O   UNL     1       7.011  -6.689  -1.116  0.00  0.00    -0.158 OA
ATOM     23  O   UNL     1       5.862  -6.317  -3.270  0.00  0.00    -0.158 OA
BRANCH  21  24
ATOM     24  N   UNL     1       8.290  -6.109  -3.114  0.00  0.00    -0.208 NA
ATOM     25  H   UNL     1       8.845  -5.331  -3.276  0.00  0.00    +0.144 HD
ATOM     26  H   UNL     1       8.579  -6.984  -3.419  0.00  0.00    +0.144 HD
ENDBRANCH  21  24
ENDBRANCH  20  21
ENDBRANCH  19  20
ENDBRANCH  18  19
ENDBRANCH  16  18
ENDBRANCH   8  16
TORSDOF 7
