REMARK  Name = ZINC45149505
REMARK  11 active torsions:
REMARK  status: ('A' for Active; 'I' for Inactive)
REMARK    1  A    between atoms: C_1  and  C_2
REMARK    2  A    between atoms: C_2  and  C_3
REMARK    3  A    between atoms: C_2  and  C_4
REMARK    4  A    between atoms: C_4  and  C_6
REMARK    5  A    between atoms: C_4  and  N_14
REMARK    6  A    between atoms: C_9  and  O_12
REMARK    7  A    between atoms: O_12  and  C_13
REMARK    8  A    between atoms: N_17  and  N_18
REMARK    9  A    between atoms: N_18  and  C_19
REMARK   10  A    between atoms: C_19  and  N_21
REMARK   11  A    between atoms: N_21  and  C_22
REMARK                            x       y       z     vdW  Elec       q    Type
REMARK                         _______ _______ _______ _____ _____    ______ ____
ROOT
ATOM      1  N   UNL     1      -2.142  -0.048  -1.174  0.00  0.00    -0.291 N 
ATOM      2  C   UNL     1      -2.727   1.166  -1.160  0.00  0.00    +0.316 C 
ATOM      3  O   UNL     1      -2.667   1.858  -0.163  0.00  0.00    -0.251 OA
ATOM      4  N   UNL     1      -3.379   1.612  -2.252  0.00  0.00    -0.219 N 
ATOM      5  H   UNL     1      -2.190  -0.601  -1.970  0.00  0.00    +0.151 HD
ATOM      6  H   UNL     1      -3.800   2.486  -2.242  0.00  0.00    +0.174 HD
ENDROOT
BRANCH   4   7
ATOM      7  N   UNL     1      -3.448   0.814  -3.401  0.00  0.00    -0.245 N 
ATOM      8  H   UNL     1      -3.027  -0.059  -3.411  0.00  0.00    +0.172 HD
BRANCH   7   9
ATOM      9  C   UNL     1      -4.100   1.261  -4.493  0.00  0.00    +0.147 C 
ATOM     10  S   UNL     1      -4.185   0.286  -5.898  0.00  0.00    -0.017 S 
BRANCH   9  11
ATOM     11  N   UNL     1      -4.685   2.475  -4.479  0.00  0.00    -0.323 N 
ATOM     12  H   UNL     1      -4.637   3.027  -3.684  0.00  0.00    +0.148 HD
BRANCH  11  13
ATOM     13  C   UNL     1      -5.394   2.960  -5.666  0.00  0.00    +0.072 C 
ATOM     14  C   UNL     1      -4.411   3.685  -6.609  0.00  0.00    +0.022 C 
ATOM     15  C   UNL     1      -5.236   4.863  -7.184  0.00  0.00    +0.002 C 
ATOM     16  C   UNL     1      -6.083   5.313  -5.968  0.00  0.00    +0.002 C 
ATOM     17  C   UNL     1      -6.457   3.995  -5.259  0.00  0.00    +0.022 C 
ENDBRANCH  11  13
ENDBRANCH   9  11
ENDBRANCH   7   9
ENDBRANCH   4   7
BRANCH   1  18
ATOM     18  C   UNL     1      -1.433  -0.534   0.013  0.00  0.00    +0.107 C 
BRANCH  18  19
ATOM     19  C   UNL     1      -1.413  -2.041   0.005  0.00  0.00    -0.027 A 
ATOM     20  C   UNL     1      -1.201  -2.721  -1.180  0.00  0.00    +0.009 A 
ATOM     21  C   UNL     1      -1.182  -4.103  -1.190  0.00  0.00    +0.046 A 
ATOM     22  C   UNL     1      -1.376  -4.807  -0.011  0.00  0.00    +0.120 A 
ATOM     23  C   UNL     1      -1.588  -4.121   1.177  0.00  0.00    +0.046 A 
ATOM     24  C   UNL     1      -1.600  -2.740   1.183  0.00  0.00    +0.009 A 
BRANCH  22  25
ATOM     25  O   UNL     1      -1.358  -6.165  -0.018  0.00  0.00    -0.495 OA
ATOM     26  C   UNL     1      -1.565  -6.824   1.233  0.00  0.00    +0.277 C 
ENDBRANCH  22  25
ENDBRANCH  18  19
BRANCH  18  28
ATOM     27  C   UNL     1      -0.019   1.526   0.010  0.00  0.00    +0.009 C 
ATOM     28  C   UNL     1       0.002  -0.004   0.002  0.00  0.00    +0.008 C 
ATOM     29  C   UNL     1       0.742  -0.511   1.242  0.00  0.00    +0.009 C 
ENDBRANCH  18  28
ENDBRANCH   1  18
TORSDOF 8
