REMARK  Name = ZINC23142369
REMARK  6 active torsions:
REMARK  status: ('A' for Active; 'I' for Inactive)
REMARK    1  A    between atoms: C_7  and  C_11
REMARK    2  A    between atoms: C_11  and  C_12
REMARK    3  A    between atoms: C_12  and  C_14
REMARK    4  A    between atoms: C_12  and  N_23
REMARK    5  A    between atoms: N_16  and  C_17
REMARK    6  A    between atoms: C_24  and  C_26
REMARK                            x       y       z     vdW  Elec       q    Type
REMARK                         _______ _______ _______ _____ _____    ______ ____
ROOT
ATOM      1  C   UNL     1       0.236  -3.589  -1.455  0.00  0.00    +0.168 C 
ENDROOT
BRANCH   1   2
ATOM      2  N   UNL     1       1.401  -4.022  -2.231  0.00  0.00    -0.299 N 
ATOM      3  C   UNL     1       1.412  -3.872  -3.571  0.00  0.00    +0.246 C 
ATOM      4  O   UNL     1       0.455  -3.379  -4.135  0.00  0.00    -0.270 OA
ATOM      5  H   UNL     1       2.165  -4.415  -1.781  0.00  0.00    +0.150 HD
BRANCH   3   6
ATOM      6  C   UNL     1       2.587  -4.308  -4.353  0.00  0.00    +0.055 A 
ATOM      7  C   UNL     1       3.686  -4.881  -3.709  0.00  0.00    +0.014 A 
ATOM      8  C   UNL     1       4.779  -5.287  -4.445  0.00  0.00    +0.001 A 
ATOM      9  C   UNL     1       4.790  -5.127  -5.820  0.00  0.00    +0.001 A 
ATOM     10  C   UNL     1       3.706  -4.560  -6.466  0.00  0.00    +0.021 A 
ATOM     11  C   UNL     1       2.602  -4.155  -5.742  0.00  0.00    +0.053 A 
ATOM     12 CL   UNL     1       1.239  -3.451  -6.554  0.00  0.00    -0.083 Cl
ENDBRANCH   3   6
ENDBRANCH   1   2
BRANCH   1  13
ATOM     13  C   UNL     1      -0.795  -4.689  -1.442  0.00  0.00    +0.270 C 
ATOM     14  O   UNL     1      -2.106  -4.382  -1.457  0.00  0.00    -0.269 OA
ATOM     15  N   UNL     1      -0.417  -5.934  -1.415  0.00  0.00    -0.174 NA
BRANCH  15  16
ATOM     16  C   UNL     1      -1.350  -6.929  -1.403  0.00  0.00    +0.249 A 
ATOM     17  N   UNL     1      -2.660  -6.768  -1.415  0.00  0.00    -0.198 NA
ATOM     18  H   UNL     1      -0.227  -8.687  -1.370  0.00  0.00    +0.192 HD
ATOM     19  C   UNL     1      -3.258  -7.957  -1.397  0.00  0.00    +0.247 A 
ATOM     20  N   UNL     1      -2.349  -8.897  -1.371  0.00  0.00    -0.159 NA
ATOM     21  N   UNL     1      -1.098  -8.260  -1.381  0.00  0.00    -0.243 N 
ENDBRANCH  15  16
ENDBRANCH   1  13
BRANCH   1  22
ATOM     22  C   UNL     1       0.666  -3.275  -0.021  0.00  0.00    +0.069 C 
BRANCH  22  29
ATOM     23  C   UNL     1      -0.017   1.362   0.009  0.00  0.00    +0.001 A 
ATOM     24  C   UNL     1       1.170   2.083   0.002  0.00  0.00    +0.002 A 
ATOM     25  C   UNL     1       2.386   1.436  -0.013  0.00  0.00    +0.026 A 
ATOM     26  C   UNL     1       2.428   0.046  -0.021  0.00  0.00    +0.047 A 
ATOM     27  C   UNL     1       1.223  -0.681  -0.013  0.00  0.00    +0.003 A 
ATOM     28  C   UNL     1       0.002  -0.004   0.002  0.00  0.00    +0.010 A 
ATOM     29  C   UNL     1       1.604  -2.095  -0.025  0.00  0.00    -0.020 A 
ATOM     30  C   UNL     1       2.945  -2.141  -0.038  0.00  0.00    +0.087 A 
ATOM     31  N   UNL     1       3.455  -0.871  -0.036  0.00  0.00    -0.360 N 
ATOM     32  H   UNL     1       4.399  -0.650  -0.044  0.00  0.00    +0.165 HD
ENDBRANCH  22  29
ENDBRANCH   1  22
TORSDOF 6
