REMARK  Name = ZINC43913733
REMARK  7 active torsions:
REMARK  status: ('A' for Active; 'I' for Inactive)
REMARK    1  A    between atoms: C_4  and  N_12
REMARK    2  A    between atoms: C_5  and  C_7
REMARK    3  A    between atoms: N_15  and  C_16
REMARK    4  A    between atoms: C_16  and  C_17
REMARK    5  A    between atoms: C_17  and  C_18
REMARK    6  A    between atoms: C_21  and  S_24
REMARK    7  A    between atoms: S_24  and  N_27
REMARK                            x       y       z     vdW  Elec       q    Type
REMARK                         _______ _______ _______ _____ _____    ______ ____
ROOT
ATOM      1  N   UNL     1       3.646  -0.627  -0.038  0.00  0.00    -0.269 N 
ATOM      2  C   UNL     1       4.793   0.070  -0.148  0.00  0.00    +0.304 C 
ATOM      3  O   UNL     1       4.769   1.286  -0.141  0.00  0.00    -0.253 OA
ATOM      4  N   UNL     1       5.968  -0.579  -0.266  0.00  0.00    -0.299 N 
ATOM      5  H   UNL     1       3.671  -1.595   0.022  0.00  0.00    +0.156 HD
ATOM      6  H   UNL     1       5.988  -1.549  -0.271  0.00  0.00    +0.150 HD
ENDROOT
BRANCH   1  10
ATOM      7  C   UNL     1      -0.015   1.378   0.042  0.00  0.00    +0.001 A 
ATOM      8  C   UNL     1       1.105   1.946   0.626  0.00  0.00    +0.002 A 
ATOM      9  C   UNL     1       2.317   1.283   0.601  0.00  0.00    +0.024 A 
ATOM     10  C   UNL     1       2.419   0.043  -0.011  0.00  0.00    +0.043 A 
ATOM     11  C   UNL     1       1.288  -0.534  -0.604  0.00  0.00    +0.010 A 
ATOM     12  C   UNL     1       0.070   0.145  -0.571  0.00  0.00    +0.011 A 
BRANCH  11  13
ATOM     13  C   UNL     1       1.385  -1.855  -1.259  0.00  0.00    +0.021 A 
ATOM     14  C   UNL     1       0.591  -2.958  -1.099  0.00  0.00    +0.016 A 
ATOM     15  C   UNL     1       0.878  -4.093  -1.827  0.00  0.00    +0.008 A 
ATOM     16  C   UNL     1       1.936  -4.082  -2.678  0.00  0.00    +0.046 A 
ATOM     17  S   UNL     1       2.565  -2.424  -2.473  0.00  0.00    -0.097 S 
ENDBRANCH  11  13
ENDBRANCH   1  10
BRANCH   4  18
ATOM     18  C   UNL     1       7.216   0.180  -0.385  0.00  0.00    +0.110 C 
BRANCH  18  19
ATOM     19  C   UNL     1       8.393  -0.790  -0.504  0.00  0.00    +0.054 C 
BRANCH  19  20
ATOM     20  C   UNL     1       9.677  -0.010  -0.627  0.00  0.00    -0.046 A 
ATOM     21  C   UNL     1      10.146   0.357  -1.874  0.00  0.00    +0.005 A 
ATOM     22  C   UNL     1      11.323   1.073  -1.987  0.00  0.00    +0.029 A 
ATOM     23  C   UNL     1      12.031   1.422  -0.852  0.00  0.00    +0.105 A 
ATOM     24  C   UNL     1      11.561   1.056   0.395  0.00  0.00    +0.029 A 
ATOM     25  C   UNL     1      10.382   0.344   0.508  0.00  0.00    +0.005 A 
BRANCH  23  26
ATOM     26  S   UNL     1      13.532   2.334  -0.996  0.00  0.00    +0.056 S 
ATOM     27  O   UNL     1      14.285   2.064   0.178  0.00  0.00    -0.153 OA
ATOM     28  O   UNL     1      14.037   2.081  -2.300  0.00  0.00    -0.153 OA
BRANCH  26  29
ATOM     29  N   UNL     1      13.136   3.941  -0.945  0.00  0.00    -0.204 NA
ATOM     30  H   UNL     1      12.208   4.209  -0.850  0.00  0.00    +0.144 HD
ATOM     31  H   UNL     1      13.831   4.614  -1.009  0.00  0.00    +0.144 HD
ENDBRANCH  26  29
ENDBRANCH  23  26
ENDBRANCH  19  20
ENDBRANCH  18  19
ENDBRANCH   4  18
TORSDOF 7
