REMARK  Name = ZINC22137878
REMARK  19 active torsions:
REMARK  status: ('A' for Active; 'I' for Inactive)
REMARK    1  A    between atoms: C_1  and  C_2
REMARK    2  A    between atoms: C_2  and  C_4
REMARK    3  A    between atoms: C_2  and  S_14
REMARK    4  A    between atoms: N_6  and  C_7
REMARK    5  A    between atoms: C_7  and  C_8
REMARK    6  A    between atoms: C_7  and  C_9
REMARK    7  A    between atoms: C_7  and  C_11
REMARK    8  A    between atoms: C_11  and  C_12
REMARK    9  A    between atoms: C_11  and  C_13
REMARK   10  A    between atoms: S_14  and  C_15
REMARK   11  A    between atoms: N_25  and  C_26
REMARK   12  A    between atoms: C_26  and  C_27
REMARK   13  A    between atoms: C_27  and  N_28
REMARK   14  A    between atoms: N_28  and  C_29
REMARK   15  A    between atoms: N_28  and  C_32
REMARK   16  A    between atoms: C_29  and  C_30
REMARK   17  A    between atoms: C_29  and  C_31
REMARK   18  A    between atoms: C_32  and  C_33
REMARK   19  A    between atoms: C_32  and  C_34
REMARK                            x       y       z     vdW  Elec       q    Type
REMARK                         _______ _______ _______ _____ _____    ______ ____
ROOT
ATOM      1  C   UNL     1      -0.035   0.566  -3.684  0.00  0.00    +0.173 A 
ATOM      2  N   UNL     1      -1.046   1.379  -3.508  0.00  0.00    -0.223 NA
ATOM      3  C   UNL     1      -1.883   1.696  -4.517  0.00  0.00    +0.079 A 
ATOM      4  C   UNL     1      -2.962   2.564  -4.329  0.00  0.00    +0.028 A 
ATOM      5  C   UNL     1      -3.785   2.858  -5.380  0.00  0.00    +0.002 A 
ATOM      6  C   UNL     1      -3.566   2.305  -6.635  0.00  0.00    +0.001 A 
ATOM      7  C   UNL     1      -2.518   1.452  -6.850  0.00  0.00    +0.015 A 
ATOM      8  C   UNL     1      -1.663   1.136  -5.796  0.00  0.00    +0.065 A 
ATOM      9  C   UNL     1      -0.522   0.226  -5.968  0.00  0.00    +0.262 A 
ATOM     10  O   UNL     1      -0.281  -0.287  -7.045  0.00  0.00    -0.267 OA
ATOM     11  N   UNL     1       0.254  -0.015  -4.886  0.00  0.00    -0.289 N 
ENDROOT
BRANCH   1  12
ATOM     12  S   UNL     1       1.006   0.209  -2.308  0.00  0.00    -0.075 S 
BRANCH  12  14
ATOM     13  C   UNL     1       0.400   2.659  -1.253  0.00  0.00    +0.029 C 
ATOM     14  C   UNL     1       0.278   1.165  -0.948  0.00  0.00    +0.137 C 
BRANCH  14  15
ATOM     15  C   UNL     1       1.008   0.852   0.333  0.00  0.00    +0.227 C 
ATOM     16  O   UNL     1       2.154   0.456   0.297  0.00  0.00    -0.275 OA
ATOM     17  N   UNL     1       0.388   1.013   1.518  0.00  0.00    -0.296 N 
ATOM     18  H   UNL     1      -0.529   1.330   1.547  0.00  0.00    +0.150 HD
BRANCH  17  19
ATOM     19  C   UNL     1       1.097   0.709   2.764  0.00  0.00    +0.121 C 
ATOM     20  C   UNL     1       1.520  -0.761   2.764  0.00  0.00    +0.048 C 
BRANCH  19  21
ATOM     21  C   UNL     1       0.174   0.974   3.954  0.00  0.00    +0.020 C 
ATOM     22  C   UNL     1      -1.005   0.001   3.912  0.00  0.00    +0.010 C 
ATOM     23  C   UNL     1       0.952   0.777   5.257  0.00  0.00    +0.010 C 
ENDBRANCH  19  21
BRANCH  19  24
ATOM     24  C   UNL     1       2.292   1.563   2.869  0.00  0.00    +0.088 C 
ATOM     25  N   UNL     1       3.213   2.222   2.950  0.00  0.00    -0.194 NA
ENDBRANCH  19  24
ENDBRANCH  17  19
ENDBRANCH  14  15
ENDBRANCH  12  14
ENDBRANCH   1  12
BRANCH  11  26
ATOM     26  C   UNL     1       1.408  -0.910  -5.003  0.00  0.00    +0.109 C 
BRANCH  26  27
ATOM     27  C   UNL     1       0.973  -2.345  -4.702  0.00  0.00    -0.056 C 
BRANCH  27  28
ATOM     28  N   UNL     1       2.094  -3.260  -4.957  0.00  0.00    +0.384 N 
ATOM     29  H   UNL     1       2.431  -3.124  -5.898  0.00  0.00    -0.081 HD
BRANCH  28  30
ATOM     30  C   UNL     1       3.178  -2.986  -4.004  0.00  0.00    -0.074 C 
ATOM     31  C   UNL     1       2.908  -3.733  -2.696  0.00  0.00    -0.014 C 
ATOM     32  C   UNL     1       4.508  -3.456  -4.595  0.00  0.00    -0.014 C 
ENDBRANCH  28  30
BRANCH  28  33
ATOM     33  C   UNL     1       1.640  -4.648  -4.796  0.00  0.00    -0.074 C 
ATOM     34  C   UNL     1       0.418  -4.891  -5.684  0.00  0.00    -0.014 C 
ATOM     35  C   UNL     1       2.764  -5.603  -5.201  0.00  0.00    -0.014 C 
ENDBRANCH  28  33
ENDBRANCH  27  28
ENDBRANCH  26  27
ENDBRANCH  11  26
TORSDOF 11
