REMARK  Name = ZINC05415156
REMARK  11 active torsions:
REMARK  status: ('A' for Active; 'I' for Inactive)
REMARK    1  A    between atoms: C_1  and  C_2
REMARK    2  A    between atoms: C_2  and  C_3
REMARK    3  A    between atoms: C_3  and  C_5
REMARK    4  A    between atoms: C_3  and  C_6
REMARK    5  A    between atoms: C_9  and  N_12
REMARK    6  A    between atoms: C_13  and  C_15
REMARK    7  A    between atoms: C_15  and  S_16
REMARK    8  A    between atoms: S_16  and  C_17
REMARK    9  A    between atoms: N_21  and  C_22
REMARK   10  A    between atoms: C_25  and  C_29
REMARK   11  A    between atoms: C_27  and  C_28
REMARK                            x       y       z     vdW  Elec       q    Type
REMARK                         _______ _______ _______ _____ _____    ______ ____
ROOT
ATOM      1  C   UNL     1      -4.148   4.200   8.607  0.00  0.00    +0.173 C 
ENDROOT
BRANCH   1   3
ATOM      2  N   UNL     1      -3.605   2.529   6.866  0.00  0.00    -0.285 N 
ATOM      3  C   UNL     1      -3.660   3.825   7.232  0.00  0.00    +0.227 C 
ATOM      4  O   UNL     1      -3.316   4.690   6.454  0.00  0.00    -0.275 OA
ATOM      5  H   UNL     1      -3.948   1.843   7.459  0.00  0.00    +0.155 HD
BRANCH   2   9
ATOM      6  C   UNL     1      -1.959   1.471   3.188  0.00  0.00    -0.044 A 
ATOM      7  C   UNL     1      -3.005   0.735   3.713  0.00  0.00    +0.006 A 
ATOM      8  C   UNL     1      -3.549   1.080   4.935  0.00  0.00    +0.023 A 
ATOM      9  C   UNL     1      -3.052   2.174   5.631  0.00  0.00    +0.033 A 
ATOM     10  C   UNL     1      -2.005   2.914   5.098  0.00  0.00    +0.023 A 
ATOM     11  C   UNL     1      -1.461   2.561   3.879  0.00  0.00    +0.006 A 
BRANCH   6  12
ATOM     12  C   UNL     1      -1.364   1.088   1.857  0.00  0.00    +0.016 C 
ATOM     13  C   UNL     1      -2.447   1.150   0.778  0.00  0.00    +0.012 C 
BRANCH  12  15
ATOM     14  C   UNL     1      -0.092  -0.677   0.629  0.00  0.00    +0.004 C 
ATOM     15  C   UNL     1      -0.806  -0.334   1.938  0.00  0.00    +0.004 C 
ENDBRANCH  12  15
ENDBRANCH   6  12
ENDBRANCH   2   9
ENDBRANCH   1   3
BRANCH   1  16
ATOM     16  S   UNL     1      -4.105   6.000   8.793  0.00  0.00    -0.075 S 
BRANCH  16  17
ATOM     17  C   UNL     1      -4.709   6.152  10.441  0.00  0.00    +0.214 A 
ATOM     18  N   UNL     1      -5.067   5.167  11.238  0.00  0.00    -0.101 NA
ATOM     19  N   UNL     1      -5.460   5.625  12.371  0.00  0.00    -0.022 NA
ATOM     20  N   UNL     1      -5.385   6.911  12.387  0.00  0.00    -0.038 NA
ATOM     21  N   UNL     1      -4.888   7.306  11.132  0.00  0.00    -0.187 N 
BRANCH  21  22
ATOM     22  C   UNL     1      -4.635   8.612  10.689  0.00  0.00    +0.073 A 
ATOM     23  C   UNL     1      -3.428   8.915  10.073  0.00  0.00    +0.028 A 
ATOM     24  C   UNL     1      -3.183  10.201   9.632  0.00  0.00    +0.005 A 
ATOM     25  C   UNL     1      -4.134  11.188   9.814  0.00  0.00    -0.050 A 
ATOM     26  C   UNL     1      -5.334  10.891  10.432  0.00  0.00    +0.008 A 
ATOM     27  C   UNL     1      -5.587   9.605  10.870  0.00  0.00    -0.025 A 
ATOM     28  C   UNL     1      -6.895   9.282  11.544  0.00  0.00    +0.046 C 
ATOM     29  C   UNL     1      -3.861  12.592   9.338  0.00  0.00    +0.044 C 
ENDBRANCH  21  22
ENDBRANCH  16  17
ENDBRANCH   1  16
TORSDOF 7
