REMARK  Name = ZINC36704451
REMARK  8 active torsions:
REMARK  status: ('A' for Active; 'I' for Inactive)
REMARK    1  A    between atoms: C_1  and  C_2
REMARK    2  A    between atoms: C_2  and  C_3
REMARK    3  A    between atoms: C_3  and  N_4
REMARK    4  A    between atoms: C_10  and  N_15
REMARK    5  A    between atoms: C_11  and  C_12
REMARK    6  A    between atoms: C_16  and  C_18
REMARK    7  A    between atoms: N_23  and  S_24
REMARK    8  A    between atoms: S_24  and  C_27
REMARK                            x       y       z     vdW  Elec       q    Type
REMARK                         _______ _______ _______ _____ _____    ______ ____
ROOT
ATOM      1  N   UNL     1       0.738  -1.966  -1.265  0.00  0.00    +0.383 N 
ATOM      2  C   UNL     1       1.532  -2.438  -2.407  0.00  0.00    -0.074 C 
ATOM      3  C   UNL     1       1.828  -3.935  -2.263  0.00  0.00    +0.018 C 
ATOM      4  C   UNL     1       0.507  -4.650  -2.013  0.00  0.00    -0.027 A 
ATOM      5  C   UNL     1      -0.580  -3.951  -1.616  0.00  0.00    -0.021 A 
ATOM      6  S   UNL     1      -1.856  -5.163  -1.454  0.00  0.00    -0.079 S 
ATOM      7  C   UNL     1      -0.998  -6.541  -1.888  0.00  0.00    +0.084 A 
ATOM      8  C   UNL     1       0.279  -6.074  -2.162  0.00  0.00    +0.068 A 
ATOM      9  C   UNL     1      -0.641  -2.475  -1.376  0.00  0.00    -0.035 C 
ATOM     10  H   UNL     1       1.152  -2.301  -0.408  0.00  0.00    -0.081 HD
ENDROOT
BRANCH   8  11
ATOM     11  C   UNL     1       1.351  -6.981  -2.583  0.00  0.00    +0.244 C 
ATOM     12  O   UNL     1       2.066  -7.506  -1.749  0.00  0.00    -0.270 OA
ATOM     13  N   UNL     1       1.545  -7.233  -3.892  0.00  0.00    -0.325 N 
ATOM     14  H   UNL     1       0.975  -6.814  -4.556  0.00  0.00    +0.145 HD
ATOM     15  H   UNL     1       2.255  -7.833  -4.171  0.00  0.00    +0.145 HD
ENDBRANCH   8  11
BRANCH   7  16
ATOM     16  N   UNL     1      -1.461  -7.846  -1.957  0.00  0.00    -0.278 N 
ATOM     17  C   UNL     1      -2.745  -8.123  -1.654  0.00  0.00    +0.236 C 
ATOM     18  O   UNL     1      -3.496  -7.230  -1.321  0.00  0.00    -0.274 OA
ATOM     19  H   UNL     1      -0.861  -8.560  -2.223  0.00  0.00    +0.155 HD
BRANCH  17  20
ATOM     20  C   UNL     1      -3.248  -9.541  -1.729  0.00  0.00    +0.166 C 
ATOM     21  C   UNL     1      -2.473 -10.426  -0.731  0.00  0.00    +0.031 C 
ATOM     22  C   UNL     1      -3.416 -10.472   0.500  0.00  0.00    +0.019 C 
ATOM     23  C   UNL     1      -4.810 -10.479  -0.177  0.00  0.00    +0.110 C 
ATOM     24  N   UNL     1      -4.668  -9.589  -1.348  0.00  0.00    -0.164 NA
BRANCH  24  25
ATOM     25  S   UNL     1      -5.898  -8.779  -2.105  0.00  0.00    +0.068 S 
ATOM     26  O   UNL     1      -6.939  -8.637  -1.149  0.00  0.00    -0.152 OA
ATOM     27  O   UNL     1      -5.308  -7.664  -2.759  0.00  0.00    -0.152 OA
BRANCH  25  28
ATOM     28  C   UNL     1      -6.516  -9.836  -3.371  0.00  0.00    +0.144 A 
ATOM     29  C   UNL     1      -7.510 -10.756  -3.305  0.00  0.00    +0.038 A 
ATOM     30  C   UNL     1      -7.830 -11.480  -4.439  0.00  0.00    +0.030 A 
ATOM     31  C   UNL     1      -7.139 -11.248  -5.583  0.00  0.00    +0.080 A 
ATOM     32  S   UNL     1      -6.003  -9.968  -5.076  0.00  0.00    -0.057 S 
ATOM     33 CL   UNL     1      -7.319 -11.996  -7.139  0.00  0.00    -0.076 Cl
ENDBRANCH  25  28
ENDBRANCH  24  25
ENDBRANCH  17  20
ENDBRANCH   7  16
BRANCH   1  34
ATOM     34  C   UNL     1       0.718  -0.497  -1.257  0.00  0.00    -0.079 C 
BRANCH  34  36
ATOM     35  C   UNL     1      -0.019   1.526   0.010  0.00  0.00    +0.002 C 
ATOM     36  C   UNL     1       0.002  -0.004   0.002  0.00  0.00    -0.022 C 
ENDBRANCH  34  36
ENDBRANCH   1  34
TORSDOF 7
