REMARK  Name = ZINC02255164
REMARK  9 active torsions:
REMARK  status: ('A' for Active; 'I' for Inactive)
REMARK    1  A    between atoms: C_1  and  C_2
REMARK    2  A    between atoms: C_3  and  C_13
REMARK    3  A    between atoms: C_4  and  C_7
REMARK    4  A    between atoms: N_15  and  C_16
REMARK    5  A    between atoms: C_16  and  N_18
REMARK    6  A    between atoms: N_18  and  N_19
REMARK    7  A    between atoms: C_20  and  C_22
REMARK    8  A    between atoms: C_25  and  O_29
REMARK    9  A    between atoms: C_27  and  O_28
REMARK                            x       y       z     vdW  Elec       q    Type
REMARK                         _______ _______ _______ _____ _____    ______ ____
ROOT
ATOM      1  C   UNL     1      -4.432   0.181   1.193  0.00  0.00    +0.153 C 
ATOM      2  S   UNL     1      -5.260   0.436  -0.283  0.00  0.00    -0.017 S 
ENDROOT
BRANCH   1   5
ATOM      3  C   UNL     1      -2.502  -0.395   0.013  0.00  0.00    +0.255 C 
ATOM      4  O   UNL     1      -3.090  -0.213  -1.036  0.00  0.00    -0.270 OA
ATOM      5  N   UNL     1      -3.142  -0.207   1.184  0.00  0.00    -0.263 N 
ATOM      6  H   UNL     1      -2.673  -0.352   2.021  0.00  0.00    +0.157 HD
BRANCH   3   9
ATOM      7  C   UNL     1      -0.018   1.503   0.010  0.00  0.00    +0.090 C 
ATOM      8  C   UNL     1       0.002  -0.004   0.002  0.00  0.00    +0.147 A 
ATOM      9  C   UNL     1      -1.093  -0.818   0.003  0.00  0.00    +0.106 A 
ATOM     10  C   UNL     1      -0.592  -2.202  -0.008  0.00  0.00    +0.126 A 
ATOM     11  N   UNL     1       0.715  -2.133  -0.014  0.00  0.00    -0.077 NA
ATOM     12  O   UNL     1       1.095  -0.772  -0.013  0.00  0.00    -0.359 OA
BRANCH  10  13
ATOM     13  C   UNL     1      -1.412  -3.438  -0.011  0.00  0.00    +0.004 A 
ATOM     14  C   UNL     1      -2.621  -3.477   0.681  0.00  0.00    +0.010 A 
ATOM     15  C   UNL     1      -3.380  -4.630   0.675  0.00  0.00    +0.001 A 
ATOM     16  C   UNL     1      -2.942  -5.745  -0.017  0.00  0.00    +0.000 A 
ATOM     17  C   UNL     1      -1.743  -5.712  -0.706  0.00  0.00    +0.001 A 
ATOM     18  C   UNL     1      -0.979  -4.562  -0.712  0.00  0.00    +0.010 A 
ENDBRANCH  10  13
ENDBRANCH   3   9
ENDBRANCH   1   5
BRANCH   1  19
ATOM     19  N   UNL     1      -5.071   0.368   2.365  0.00  0.00    -0.245 N 
ATOM     20  H   UNL     1      -6.000   0.647   2.372  0.00  0.00    +0.172 HD
BRANCH  19  21
ATOM     21  N   UNL     1      -4.394   0.159   3.574  0.00  0.00    -0.231 N 
ATOM     22  C   UNL     1      -5.033   0.346   4.745  0.00  0.00    +0.264 C 
ATOM     23  O   UNL     1      -6.198   0.696   4.753  0.00  0.00    -0.269 OA
ATOM     24  H   UNL     1      -3.465  -0.120   3.567  0.00  0.00    +0.173 HD
BRANCH  22  25
ATOM     25  C   UNL     1      -4.321   0.127   6.016  0.00  0.00    +0.080 A 
ATOM     26  C   UNL     1      -2.980  -0.270   6.010  0.00  0.00    +0.020 A 
ATOM     27  C   UNL     1      -2.318  -0.474   7.198  0.00  0.00    +0.046 A 
ATOM     28  C   UNL     1      -2.979  -0.286   8.409  0.00  0.00    +0.120 A 
ATOM     29  C   UNL     1      -4.309   0.107   8.427  0.00  0.00    +0.091 A 
ATOM     30  C   UNL     1      -4.984   0.321   7.237  0.00  0.00    +0.132 A 
BRANCH  30  31
ATOM     31  O   UNL     1      -6.283   0.711   7.253  0.00  0.00    -0.506 OA
ATOM     32  H   UNL     1      -6.914  -0.021   7.253  0.00  0.00    +0.292 HD
ENDBRANCH  30  31
BRANCH  28  33
ATOM     33  O   UNL     1      -2.318  -0.489   9.578  0.00  0.00    -0.507 OA
ATOM     34  H   UNL     1      -1.876   0.299   9.921  0.00  0.00    +0.292 HD
ENDBRANCH  28  33
ENDBRANCH  22  25
ENDBRANCH  19  21
ENDBRANCH   1  19
TORSDOF 8
