REMARK  Name = ZINC59170713
REMARK  6 active torsions:
REMARK  status: ('A' for Active; 'I' for Inactive)
REMARK    1  A    between atoms: C_12  and  C_26
REMARK    2  A    between atoms: N_14  and  C_15
REMARK    3  A    between atoms: C_18  and  S_21
REMARK    4  A    between atoms: S_21  and  N_24
REMARK    5  A    between atoms: N_28  and  C_29
REMARK    6  A    between atoms: C_33  and  N_35
REMARK                            x       y       z     vdW  Elec       q    Type
REMARK                         _______ _______ _______ _____ _____    ______ ____
ROOT
ATOM      1  C   UNL     1       0.111   0.793   1.718  0.00  0.00    +0.001 A 
ATOM      2  C   UNL     1       1.329   1.260   2.203  0.00  0.00    +0.001 A 
ATOM      3  C   UNL     1       2.503   0.676   1.825  0.00  0.00    +0.009 A 
ATOM      4  C   UNL     1       2.485  -0.406   0.940  0.00  0.00    -0.007 A 
ATOM      5  C   UNL     1       1.248  -0.885   0.446  0.00  0.00    -0.017 A 
ATOM      6  C   UNL     1       0.058  -0.260   0.854  0.00  0.00    +0.008 A 
ATOM      7  C   UNL     1       1.231  -1.978  -0.443  0.00  0.00    +0.012 A 
ATOM      8  C   UNL     1       2.383  -2.586  -0.827  0.00  0.00    +0.047 A 
ATOM      9  C   UNL     1       3.630  -2.155  -0.370  0.00  0.00    +0.138 A 
ATOM     10  C   UNL     1       3.718  -1.061   0.503  0.00  0.00    +0.026 A 
ATOM     11  C   UNL     1       4.977  -0.607   0.950  0.00  0.00    +0.030 A 
ATOM     12  C   UNL     1       6.116  -1.125   0.341  0.00  0.00    +0.098 A 
ATOM     13  C   UNL     1       5.910  -2.091  -0.756  0.00  0.00    +0.212 A 
ATOM     14  N   UNL     1       6.814  -2.254  -1.699  0.00  0.00    -0.325 N 
ATOM     15  O   UNL     1       4.755  -2.803  -0.757  0.00  0.00    -0.439 OA
ATOM     16  H   UNL     1       7.542  -1.619  -1.788  0.00  0.00    +0.169 HD
ENDROOT
BRANCH  14  17
ATOM     17  C   UNL     1       6.727  -3.319  -2.552  0.00  0.00    +0.042 A 
ATOM     18  C   UNL     1       6.441  -4.594  -2.057  0.00  0.00    +0.027 A 
ATOM     19  C   UNL     1       6.354  -5.663  -2.924  0.00  0.00    +0.030 A 
ATOM     20  C   UNL     1       6.550  -5.476  -4.281  0.00  0.00    +0.105 A 
ATOM     21  C   UNL     1       6.833  -4.216  -4.779  0.00  0.00    +0.030 A 
ATOM     22  C   UNL     1       6.917  -3.136  -3.924  0.00  0.00    +0.027 A 
BRANCH  20  23
ATOM     23  S   UNL     1       6.437  -6.848  -5.381  0.00  0.00    +0.056 S 
ATOM     24  O   UNL     1       7.198  -6.509  -6.532  0.00  0.00    -0.153 OA
ATOM     25  O   UNL     1       6.701  -8.010  -4.608  0.00  0.00    -0.153 OA
BRANCH  23  26
ATOM     26  N   UNL     1       4.859  -6.954  -5.871  0.00  0.00    -0.204 NA
ATOM     27  H   UNL     1       4.205  -6.317  -5.543  0.00  0.00    +0.144 HD
ATOM     28  H   UNL     1       4.588  -7.653  -6.487  0.00  0.00    +0.144 HD
ENDBRANCH  23  26
ENDBRANCH  20  23
ENDBRANCH  14  17
BRANCH  12  29
ATOM     29  C   UNL     1       7.465  -0.728   0.772  0.00  0.00    +0.253 C 
ATOM     30  O   UNL     1       7.605   0.149   1.603  0.00  0.00    -0.270 OA
ATOM     31  N   UNL     1       8.547  -1.337   0.246  0.00  0.00    -0.281 N 
ATOM     32  H   UNL     1       8.437  -2.018  -0.435  0.00  0.00    +0.155 HD
BRANCH  31  33
ATOM     33  C   UNL     1       9.828  -0.987   0.684  0.00  0.00    +0.036 A 
ATOM     34  C   UNL     1      10.083   0.305   1.128  0.00  0.00    +0.023 A 
ATOM     35  C   UNL     1      11.349   0.647   1.560  0.00  0.00    +0.004 A 
ATOM     36  C   UNL     1      12.362  -0.293   1.551  0.00  0.00    +0.033 A 
ATOM     37  C   UNL     1      12.112  -1.580   1.110  0.00  0.00    +0.128 A 
ATOM     38  C   UNL     1      10.846  -1.931   0.682  0.00  0.00    +0.056 A 
BRANCH  37  39
ATOM     39  N   UNL     1      13.200  -2.583   1.102  0.00  0.00    +0.056 N 
ATOM     40  O   UNL     1      14.306  -2.278   1.481  0.00  0.00    -0.126 OA
ATOM     41  O   UNL     1      12.981  -3.708   0.717  0.00  0.00    -0.126 OA
ENDBRANCH  37  39
ENDBRANCH  31  33
ENDBRANCH  12  29
TORSDOF 6
