REMARK  Name = ZINC45695297
REMARK  9 active torsions:
REMARK  status: ('A' for Active; 'I' for Inactive)
REMARK    1  A    between atoms: C_1  and  C_2
REMARK    2  A    between atoms: C_2  and  C_4
REMARK    3  A    between atoms: C_2  and  N_14
REMARK    4  A    between atoms: C_7  and  O_10
REMARK    5  A    between atoms: O_10  and  C_11
REMARK    6  A    between atoms: N_17  and  C_18
REMARK    7  A    between atoms: C_23  and  S_24
REMARK    8  A    between atoms: S_24  and  C_25
REMARK    9  A    between atoms: C_25  and  C_26
REMARK                            x       y       z     vdW  Elec       q    Type
REMARK                         _______ _______ _______ _____ _____    ______ ____
ROOT
ATOM      1  N   UNL     1       0.687  -0.492  -1.197  0.00  0.00    -0.293 N 
ATOM      2  C   UNL     1       2.031  -0.593  -1.212  0.00  0.00    +0.304 C 
ATOM      3  O   UNL     1       2.674  -0.297  -0.224  0.00  0.00    -0.252 OA
ATOM      4  N   UNL     1       2.662  -1.022  -2.324  0.00  0.00    -0.268 N 
ATOM      5  H   UNL     1       0.174  -0.729  -1.986  0.00  0.00    +0.151 HD
ATOM      6  H   UNL     1       2.147  -1.319  -3.090  0.00  0.00    +0.156 HD
ENDROOT
BRANCH   4   7
ATOM      7  C   UNL     1       4.063  -1.037  -2.373  0.00  0.00    +0.048 A 
ATOM      8  C   UNL     1       4.795  -1.326  -1.231  0.00  0.00    +0.024 A 
ATOM      9  C   UNL     1       6.177  -1.340  -1.281  0.00  0.00    +0.002 A 
ATOM     10  C   UNL     1       6.833  -1.067  -2.468  0.00  0.00    +0.001 A 
ATOM     11  C   UNL     1       6.111  -0.779  -3.611  0.00  0.00    +0.016 A 
ATOM     12  C   UNL     1       4.724  -0.768  -3.571  0.00  0.00    +0.030 A 
BRANCH  12  13
ATOM     13  S   UNL     1       3.801  -0.408  -5.028  0.00  0.00    -0.114 S 
BRANCH  13  14
ATOM     14  C   UNL     1       5.070  -0.135  -6.295  0.00  0.00    +0.169 C 
BRANCH  14  15
ATOM     15  C   UNL     1       4.407   0.186  -7.610  0.00  0.00    +0.221 C 
ATOM     16  O   UNL     1       3.197   0.227  -7.684  0.00  0.00    -0.275 OA
ATOM     17  N   UNL     1       5.158   0.429  -8.702  0.00  0.00    -0.329 N 
ATOM     18  H   UNL     1       6.125   0.396  -8.643  0.00  0.00    +0.145 HD
ATOM     19  H   UNL     1       4.731   0.636  -9.548  0.00  0.00    +0.145 HD
ENDBRANCH  14  15
ENDBRANCH  13  14
ENDBRANCH  12  13
ENDBRANCH   4   7
BRANCH   1  21
ATOM     20  C   UNL     1      -0.030   1.503   0.022  0.00  0.00    +0.033 C 
ATOM     21  C   UNL     1       0.001  -0.027   0.011  0.00  0.00    +0.102 C 
BRANCH  21  22
ATOM     22  C   UNL     1      -1.409  -0.559   0.025  0.00  0.00    -0.027 A 
ATOM     23  C   UNL     1      -2.140  -0.605  -1.147  0.00  0.00    +0.009 A 
ATOM     24  C   UNL     1      -3.433  -1.092  -1.137  0.00  0.00    +0.046 A 
ATOM     25  C   UNL     1      -3.997  -1.535   0.051  0.00  0.00    +0.127 A 
ATOM     26  C   UNL     1      -3.260  -1.488   1.226  0.00  0.00    +0.046 A 
ATOM     27  C   UNL     1      -1.966  -1.005   1.209  0.00  0.00    +0.009 A 
BRANCH  25  28
ATOM     28  O   UNL     1      -5.269  -2.014   0.064  0.00  0.00    -0.434 OA
BRANCH  28  29
ATOM     29  C   UNL     1      -5.784  -2.452   1.322  0.00  0.00    +0.541 C 
ATOM     30  F   UNL     1      -4.987  -3.490   1.817  0.00  0.00    -0.166 F 
ATOM     31  F   UNL     1      -5.775  -1.386   2.227  0.00  0.00    -0.166 F 
ENDBRANCH  28  29
ENDBRANCH  25  28
ENDBRANCH  21  22
ENDBRANCH   1  21
TORSDOF 8
