REMARK  Name = ZINC47878535
REMARK  6 active torsions:
REMARK  status: ('A' for Active; 'I' for Inactive)
REMARK    1  A    between atoms: C_4  and  O_23
REMARK    2  A    between atoms: C_5  and  N_7
REMARK    3  A    between atoms: N_10  and  C_11
REMARK    4  A    between atoms: O_23  and  C_24
REMARK    5  A    between atoms: C_24  and  C_25
REMARK    6  A    between atoms: C_25  and  C_26
REMARK                            x       y       z     vdW  Elec       q    Type
REMARK                         _______ _______ _______ _____ _____    ______ ____
ROOT
ATOM      1  N   UNL     1       1.256  -2.110  -0.058  0.00  0.00    -0.266 N 
ATOM      2  C   UNL     1       0.101  -2.793   0.064  0.00  0.00    +0.304 C 
ATOM      3  O   UNL     1      -0.958  -2.197   0.095  0.00  0.00    -0.252 OA
ATOM      4  N   UNL     1       0.120  -4.138   0.152  0.00  0.00    -0.296 N 
ATOM      5  H   UNL     1       2.096  -2.588  -0.142  0.00  0.00    +0.156 HD
ATOM      6  H   UNL     1       0.965  -4.614   0.128  0.00  0.00    +0.151 HD
ENDROOT
BRANCH   4   7
ATOM      7  C   UNL     1      -1.136  -4.881   0.285  0.00  0.00    +0.077 C 
ATOM      8  C   UNL     1      -1.543  -4.935   1.759  0.00  0.00    +0.041 C 
ATOM      9  C   UNL     1      -2.874  -5.682   1.890  0.00  0.00    +0.108 C 
ATOM     10  N   UNL     1      -2.741  -6.999   1.252  0.00  0.00    -0.317 N 
ATOM     11  C   UNL     1      -2.269  -7.066  -0.138  0.00  0.00    +0.108 C 
ATOM     12  C   UNL     1      -0.945  -6.303  -0.246  0.00  0.00    +0.041 C 
ATOM     13  C   UNL     1      -3.057  -8.159   1.950  0.00  0.00    +0.099 A 
ATOM     14  C   UNL     1      -2.803  -9.400   1.375  0.00  0.00    +0.042 A 
ATOM     15  C   UNL     1      -3.121 -10.546   2.080  0.00  0.00    +0.005 A 
ATOM     16  C   UNL     1      -3.685 -10.413   3.342  0.00  0.00    +0.018 A 
ATOM     17  C   UNL     1      -3.910  -9.150   3.852  0.00  0.00    +0.084 A 
ATOM     18  N   UNL     1      -3.591  -8.073   3.158  0.00  0.00    -0.350 N 
ATOM     19  H   UNL     1      -3.755  -7.198   3.541  0.00  0.00    +0.166 HD
ENDBRANCH   4   7
BRANCH   1  24
ATOM     20  C   UNL     1       0.175   1.358  -0.642  0.00  0.00    +0.002 A 
ATOM     21  C   UNL     1       1.220   2.062  -0.073  0.00  0.00    +0.004 A 
ATOM     22  C   UNL     1       2.280   1.387   0.503  0.00  0.00    +0.047 A 
ATOM     23  C   UNL     1       2.297   0.001   0.511  0.00  0.00    +0.142 A 
ATOM     24  C   UNL     1       1.244  -0.708  -0.062  0.00  0.00    +0.077 A 
ATOM     25  C   UNL     1       0.184  -0.024  -0.638  0.00  0.00    +0.027 A 
BRANCH  23  26
ATOM     26  O   UNL     1       3.340  -0.664   1.076  0.00  0.00    -0.490 OA
BRANCH  26  27
ATOM     27  C   UNL     1       4.384   0.128   1.644  0.00  0.00    +0.238 C 
BRANCH  27  28
ATOM     28  C   UNL     1       5.461  -0.789   2.228  0.00  0.00    +0.136 C 
BRANCH  28  29
ATOM     29  C   UNL     1       6.562   0.047   2.826  0.00  0.00    +0.214 C 
ATOM     30  O   UNL     1       6.493   1.257   2.790  0.00  0.00    -0.276 OA
ATOM     31  N   UNL     1       7.624  -0.550   3.402  0.00  0.00    -0.329 N 
ATOM     32  H   UNL     1       7.680  -1.518   3.432  0.00  0.00    +0.145 HD
ATOM     33  H   UNL     1       8.333  -0.012   3.788  0.00  0.00    +0.145 HD
ENDBRANCH  28  29
ENDBRANCH  27  28
ENDBRANCH  26  27
ENDBRANCH  23  26
ENDBRANCH   1  24
TORSDOF 6
