REMARK  Name = ZINC66922004
REMARK  7 active torsions:
REMARK  status: ('A' for Active; 'I' for Inactive)
REMARK    1  A    between atoms: C_2  and  C_3
REMARK    2  A    between atoms: C_3  and  N_4
REMARK    3  A    between atoms: C_7  and  C_10
REMARK    4  A    between atoms: N_12  and  C_13
REMARK    5  A    between atoms: C_17  and  C_19
REMARK    6  A    between atoms: C_19  and  N_20
REMARK    7  A    between atoms: C_24  and  C_26
REMARK                            x       y       z     vdW  Elec       q    Type
REMARK                         _______ _______ _______ _____ _____    ______ ____
ROOT
ATOM      1  C   UNL     1       6.675   5.665  -0.317  0.00  0.00    +0.034 A 
ATOM      2  C   UNL     1       7.718   4.754  -0.429  0.00  0.00    +0.023 A 
ATOM      3  C   UNL     1       9.017   5.164  -0.204  0.00  0.00    +0.002 A 
ATOM      4  C   UNL     1       9.281   6.479   0.134  0.00  0.00    +0.002 A 
ATOM      5  C   UNL     1       8.245   7.388   0.247  0.00  0.00    -0.062 A 
ATOM      6  C   UNL     1       6.944   6.986   0.017  0.00  0.00    +0.025 A 
ENDROOT
BRANCH   1   9
ATOM      7  C   UNL     1       4.965   4.016  -0.179  0.00  0.00    +0.220 C 
ATOM      8  O   UNL     1       5.774   3.232   0.270  0.00  0.00    -0.275 OA
ATOM      9  N   UNL     1       5.357   5.253  -0.544  0.00  0.00    -0.285 N 
ATOM     10  H   UNL     1       4.726   5.857  -0.965  0.00  0.00    +0.155 HD
BRANCH   7  14
ATOM     11  N   UNL     1       1.066   2.693   0.884  0.00  0.00    -0.291 NA
ATOM     12  C   UNL     1       1.867   1.780   0.059  0.00  0.00    +0.086 C 
ATOM     13  C   UNL     1       3.345   2.167   0.156  0.00  0.00    +0.028 C 
ATOM     14  C   UNL     1       3.522   3.609  -0.328  0.00  0.00    +0.078 C 
ATOM     15  C   UNL     1       2.640   4.534   0.515  0.00  0.00    +0.028 C 
ATOM     16  C   UNL     1       1.183   4.078   0.409  0.00  0.00    +0.086 C 
BRANCH  11  17
ATOM     17  C   UNL     1      -0.340   2.268   0.926  0.00  0.00    +0.173 C 
BRANCH  17  19
ATOM     18  C   UNL     1      -0.522  -0.053   2.183  0.00  0.00    +0.005 C 
ATOM     19  C   UNL     1      -0.441   0.977   1.625  0.00  0.00    -0.090 C 
ENDBRANCH  17  19
ENDBRANCH  11  17
ENDBRANCH   7  14
ENDBRANCH   1   9
BRANCH   5  20
ATOM     20  C   UNL     1       8.536   8.819   0.616  0.00  0.00    -0.042 C 
BRANCH  20  21
ATOM     21  N   UNL     1       8.764   9.603  -0.605  0.00  0.00    +0.390 N 
ATOM     22  C   UNL     1       9.996   9.134  -1.275  0.00  0.00    -0.077 C 
ATOM     23  C   UNL     1      10.638  10.415  -1.864  0.00  0.00    -0.020 C 
ATOM     24  C   UNL     1      10.324  11.459  -0.760  0.00  0.00    -0.008 C 
ATOM     25  C   UNL     1       8.931  11.026  -0.258  0.00  0.00    +0.019 C 
ATOM     26  H   UNL     1       7.979   9.496  -1.230  0.00  0.00    -0.080 HD
BRANCH  25  27
ATOM     27  C   UNL     1       7.864  11.848  -0.935  0.00  0.00    +0.197 C 
ATOM     28  O   UNL     1       7.039  11.307  -1.641  0.00  0.00    -0.278 OA
ATOM     29  N   UNL     1       7.826  13.183  -0.755  0.00  0.00    -0.331 N 
ATOM     30  H   UNL     1       8.485  13.615  -0.191  0.00  0.00    +0.145 HD
ATOM     31  H   UNL     1       7.139  13.711  -1.191  0.00  0.00    +0.145 HD
ENDBRANCH  25  27
ENDBRANCH  20  21
ENDBRANCH   5  20
TORSDOF 7
