REMARK  Name = ZINC12483312
REMARK  10 active torsions:
REMARK  status: ('A' for Active; 'I' for Inactive)
REMARK    1  A    between atoms: C_4  and  C_7
REMARK    2  A    between atoms: C_7  and  C_8
REMARK    3  A    between atoms: C_8  and  N_9
REMARK    4  A    between atoms: N_9  and  C_10
REMARK    5  A    between atoms: C_10  and  C_12
REMARK    6  A    between atoms: C_10  and  C_19
REMARK    7  A    between atoms: N_21  and  C_22
REMARK    8  A    between atoms: C_22  and  C_23
REMARK    9  A    between atoms: C_29  and  C_31
REMARK   10  A    between atoms: C_31  and  N_32
REMARK                            x       y       z     vdW  Elec       q    Type
REMARK                         _______ _______ _______ _____ _____    ______ ____
ROOT
ATOM      1  N   UNL     1      -0.052   4.063   0.723  0.00  0.00    -0.284 N 
ATOM      2  C   UNL     1       0.061   4.951   1.731  0.00  0.00    +0.238 C 
ATOM      3  O   UNL     1       1.154   5.218   2.184  0.00  0.00    -0.274 OA
ENDROOT
BRANCH   1   4
ATOM      4  C   UNL     1      -1.377   3.675   0.234  0.00  0.00    +0.113 C 
BRANCH   4   5
ATOM      5  C   UNL     1      -1.869   2.451   1.009  0.00  0.00    +0.054 C 
BRANCH   5   9
ATOM      6  C   UNL     1      -5.584   1.126  -0.629  0.00  0.00    +0.000 A 
ATOM      7  C   UNL     1      -4.394   0.624  -1.121  0.00  0.00    +0.000 A 
ATOM      8  C   UNL     1      -3.192   1.053  -0.591  0.00  0.00    +0.004 A 
ATOM      9  C   UNL     1      -3.179   1.984   0.431  0.00  0.00    -0.046 A 
ATOM     10  C   UNL     1      -4.370   2.482   0.927  0.00  0.00    +0.004 A 
ATOM     11  C   UNL     1      -5.572   2.056   0.394  0.00  0.00    +0.000 A 
ENDBRANCH   5   9
ENDBRANCH   4   5
ENDBRANCH   1   4
BRANCH   1  12
ATOM     12  C   UNL     1       1.151   3.487   0.117  0.00  0.00    +0.195 C 
BRANCH  12  13
ATOM     13  C   UNL     1       1.913   4.565  -0.611  0.00  0.00    +0.017 A 
ATOM     14  C   UNL     1       1.679   5.895  -0.317  0.00  0.00    +0.009 A 
ATOM     15  C   UNL     1       2.377   6.884  -0.985  0.00  0.00    +0.001 A 
ATOM     16  C   UNL     1       3.309   6.543  -1.948  0.00  0.00    +0.003 A 
ATOM     17  C   UNL     1       3.544   5.214  -2.243  0.00  0.00    +0.039 A 
ATOM     18  C   UNL     1       2.846   4.223  -1.575  0.00  0.00    +0.129 A 
ATOM     19  F   UNL     1       3.074   2.923  -1.863  0.00  0.00    -0.205 F 
ENDBRANCH  12  13
BRANCH  12  20
ATOM     20  C   UNL     1       2.023   2.896   1.195  0.00  0.00    +0.238 C 
ATOM     21  O   UNL     1       1.675   2.951   2.355  0.00  0.00    -0.273 OA
ATOM     22  N   UNL     1       3.191   2.307   0.869  0.00  0.00    -0.311 N 
ATOM     23  H   UNL     1       3.470   2.263  -0.059  0.00  0.00    +0.149 HD
BRANCH  22  24
ATOM     24  C   UNL     1       4.039   1.733   1.917  0.00  0.00    +0.135 C 
BRANCH  24  25
ATOM     25  C   UNL     1       5.295   1.131   1.284  0.00  0.00    +0.135 C 
ATOM     26  C   UNL     1       6.163   0.443   2.361  0.00  0.00    +0.035 C 
ATOM     27  C   UNL     1       7.613   0.750   1.926  0.00  0.00    +0.031 C 
ATOM     28  C   UNL     1       7.450   1.587   0.638  0.00  0.00    +0.160 C 
ATOM     29  O   UNL     1       6.133   2.174   0.741  0.00  0.00    -0.375 OA
ENDBRANCH  24  25
ENDBRANCH  22  24
ENDBRANCH  12  20
ENDBRANCH   1  12
BRANCH   2  30
ATOM     30  C   UNL     1      -1.171   5.610   2.296  0.00  0.00    +0.241 C 
BRANCH  30  31
ATOM     31  N   UNL     1      -0.785   6.525   3.373  0.00  0.00    -0.235 N 
ATOM     32  C   UNL     1      -0.676   6.223   4.709  0.00  0.00    +0.090 A 
ATOM     33  C   UNL     1      -0.870   5.066   5.457  0.00  0.00    +0.029 A 
ATOM     34  C   UNL     1      -0.675   5.092   6.810  0.00  0.00    +0.002 A 
ATOM     35  C   UNL     1      -0.284   6.263   7.446  0.00  0.00    +0.002 A 
ATOM     36  C   UNL     1      -0.080   7.409   6.734  0.00  0.00    +0.032 A 
ATOM     37  C   UNL     1      -0.278   7.411   5.346  0.00  0.00    +0.113 A 
ATOM     38  N   UNL     1      -0.172   8.366   4.401  0.00  0.00    -0.129 NA
ATOM     39  N   UNL     1      -0.460   7.884   3.244  0.00  0.00    -0.064 NA
ENDBRANCH  30  31
ENDBRANCH   2  30
TORSDOF 10
