REMARK  Name = ZINC41964026
REMARK  9 active torsions:
REMARK  status: ('A' for Active; 'I' for Inactive)
REMARK    1  A    between atoms: C_1  and  O_2
REMARK    2  A    between atoms: O_2  and  C_3
REMARK    3  A    between atoms: C_8  and  N_9
REMARK    4  A    between atoms: N_9  and  C_10
REMARK    5  A    between atoms: C_10  and  N_12
REMARK    6  A    between atoms: N_12  and  N_13
REMARK    7  A    between atoms: C_14  and  C_16
REMARK    8  A    between atoms: C_16  and  C_17
REMARK    9  A    between atoms: C_17  and  C_18
REMARK                            x       y       z     vdW  Elec       q    Type
REMARK                         _______ _______ _______ _____ _____    ______ ____
ROOT
ATOM      1  N   UNL     1      -0.879  -4.216  -2.011  0.00  0.00    -0.235 N 
ATOM      2  C   UNL     1      -1.356  -4.946  -3.039  0.00  0.00    +0.229 C 
ATOM      3  O   UNL     1      -1.228  -6.152  -3.036  0.00  0.00    -0.274 OA
ATOM      4  H   UNL     1      -0.982  -3.251  -2.013  0.00  0.00    +0.173 HD
ENDROOT
BRANCH   1   5
ATOM      5  N   UNL     1      -0.236  -4.849  -0.940  0.00  0.00    -0.246 N 
ATOM      6  H   UNL     1      -0.134  -5.814  -0.938  0.00  0.00    +0.172 HD
BRANCH   5   7
ATOM      7  C   UNL     1       0.240  -4.119   0.088  0.00  0.00    +0.151 C 
ATOM      8  S   UNL     1       1.026  -4.893   1.397  0.00  0.00    -0.017 S 
BRANCH   7   9
ATOM      9  N   UNL     1       0.098  -2.779   0.085  0.00  0.00    -0.293 N 
ATOM     10  H   UNL     1      -0.416  -2.347  -0.616  0.00  0.00    +0.154 HD
BRANCH   9  16
ATOM     11  C   UNL     1      -0.023  -0.976   1.696  0.00  0.00    +0.141 A 
ATOM     12  C   UNL     1       0.567  -0.222   2.697  0.00  0.00    +0.047 A 
ATOM     13  C   UNL     1       1.865  -0.490   3.091  0.00  0.00    +0.004 A 
ATOM     14  C   UNL     1       2.577  -1.511   2.489  0.00  0.00    +0.002 A 
ATOM     15  C   UNL     1       1.995  -2.268   1.490  0.00  0.00    +0.027 A 
ATOM     16  C   UNL     1       0.692  -2.009   1.093  0.00  0.00    +0.075 A 
BRANCH  11  18
ATOM     17  C   UNL     1      -1.971   0.360   1.970  0.00  0.00    +0.277 C 
ATOM     18  O   UNL     1      -1.299  -0.713   1.308  0.00  0.00    -0.493 OA
ENDBRANCH  11  18
ENDBRANCH   9  16
ENDBRANCH   7   9
ENDBRANCH   5   7
ENDBRANCH   1   5
BRANCH   2  19
ATOM     19  C   UNL     1      -2.047  -4.265  -4.191  0.00  0.00    +0.102 C 
BRANCH  19  20
ATOM     20  C   UNL     1      -2.488  -5.314  -5.214  0.00  0.00    +0.046 C 
BRANCH  20  21
ATOM     21  C   UNL     1      -3.179  -4.632  -6.367  0.00  0.00    -0.022 A 
ATOM     22  C   UNL     1      -4.502  -4.448  -6.508  0.00  0.00    +0.087 A 
ATOM     23  N   UNL     1      -4.758  -3.791  -7.681  0.00  0.00    -0.360 N 
ATOM     24  H   UNL     1      -5.641  -3.546  -8.001  0.00  0.00    +0.165 HD
ATOM     25  C   UNL     1      -3.577  -3.529  -8.339  0.00  0.00    +0.047 A 
ATOM     26  C   UNL     1      -2.536  -4.039  -7.541  0.00  0.00    +0.003 A 
ATOM     27  C   UNL     1      -1.211  -3.910  -7.960  0.00  0.00    +0.010 A 
ATOM     28  C   UNL     1      -0.931  -3.285  -9.143  0.00  0.00    +0.001 A 
ATOM     29  C   UNL     1      -1.954  -2.777  -9.931  0.00  0.00    +0.002 A 
ATOM     30  C   UNL     1      -3.270  -2.901  -9.541  0.00  0.00    +0.026 A 
ENDBRANCH  20  21
ENDBRANCH  19  20
ENDBRANCH   2  19
TORSDOF 8
