REMARK  Name = ZINC53044081
REMARK  5 active torsions:
REMARK  status: ('A' for Active; 'I' for Inactive)
REMARK    1  A    between atoms: C_2  and  C_10
REMARK    2  A    between atoms: C_6  and  N_7
REMARK    3  A    between atoms: N_12  and  C_13
REMARK    4  A    between atoms: C_13  and  C_18
REMARK    5  A    between atoms: C_18  and  O_19
REMARK                            x       y       z     vdW  Elec       q    Type
REMARK                         _______ _______ _______ _____ _____    ______ ____
ROOT
ATOM      1  C   UNL     1       3.147   3.691   1.062  0.00  0.00    +0.245 C 
ATOM      2  O   UNL     1       3.675   4.383   1.910  0.00  0.00    -0.270 OA
ATOM      3  N   UNL     1       2.446   4.265   0.064  0.00  0.00    -0.304 N 
ATOM      4  H   UNL     1       2.088   3.719  -0.654  0.00  0.00    +0.150 HD
ENDROOT
BRANCH   1   6
ATOM      5  C   UNL     1       4.000   1.623   2.156  0.00  0.00    +0.037 A 
ATOM      6  C   UNL     1       3.274   2.220   1.124  0.00  0.00    +0.040 A 
ATOM      7  C   UNL     1       2.668   1.423   0.151  0.00  0.00    +0.034 A 
ATOM      8  C   UNL     1       2.788   0.048   0.211  0.00  0.00    +0.062 A 
ATOM      9  C   UNL     1       3.507  -0.543   1.235  0.00  0.00    +0.080 A 
ATOM     10  C   UNL     1       4.115   0.243   2.209  0.00  0.00    +0.045 A 
ATOM     11 CL   UNL     1       3.652  -2.272   1.305  0.00  0.00    -0.080 Cl
ATOM     12 CL   UNL     1       2.034  -0.940  -1.000  0.00  0.00    -0.082 Cl
BRANCH  10  13
ATOM     13  N   UNL     1       4.841  -0.358   3.241  0.00  0.00    -0.357 N 
ATOM     14  H   UNL     1       5.264   0.190   3.920  0.00  0.00    +0.142 HD
ATOM     15  H   UNL     1       4.921  -1.324   3.278  0.00  0.00    +0.142 HD
ENDBRANCH  10  13
ENDBRANCH   1   6
BRANCH   3  16
ATOM     16  C   UNL     1       2.224   5.713   0.064  0.00  0.00    +0.058 C 
ATOM     17  C   UNL     1       1.436   6.141  -1.199  0.00  0.00    +0.028 C 
ATOM     18  C   UNL     1       2.537   6.199  -2.286  0.00  0.00    +0.002 C 
ATOM     19  C   UNL     1       3.765   6.774  -1.550  0.00  0.00    +0.002 C 
ATOM     20  C   UNL     1       3.566   6.465  -0.056  0.00  0.00    +0.028 C 
BRANCH  16  21
ATOM     21  C   UNL     1       1.482   6.140   1.332  0.00  0.00    +0.181 C 
BRANCH  21  22
ATOM     22  O   UNL     1       0.275   5.386   1.454  0.00  0.00    -0.393 OA
ATOM     23  H   UNL     1      -0.248   5.604   2.238  0.00  0.00    +0.209 HD
ENDBRANCH  21  22
ENDBRANCH  16  21
ENDBRANCH   3  16
TORSDOF 5
