REMARK  Name = ZINC12170624
REMARK  9 active torsions:
REMARK  status: ('A' for Active; 'I' for Inactive)
REMARK    1  A    between atoms: C_9  and  C_12
REMARK    2  A    between atoms: C_12  and  O_13
REMARK    3  A    between atoms: O_13  and  C_14
REMARK    4  A    between atoms: C_14  and  C_15
REMARK    5  A    between atoms: C_15  and  C_17
REMARK    6  A    between atoms: C_15  and  O_39
REMARK    7  A    between atoms: C_17  and  N_70
REMARK    8  A    between atoms: C_20  and  C_23
REMARK    9  A    between atoms: C_23  and  N_24
REMARK                            x       y       z     vdW  Elec       q    Type
REMARK                         _______ _______ _______ _____ _____    ______ ____
ROOT
ATOM      1  C   UNL     1      -1.193  10.020  -3.128  0.00  0.00    -0.078 C 
ATOM      2  C   UNL     1      -2.470  10.305  -3.922  0.00  0.00    -0.014 C 
ATOM      3  C   UNL     1      -3.008  11.685  -3.535  0.00  0.00    +0.003 C 
ATOM      4  C   UNL     1      -3.262  11.720  -2.025  0.00  0.00    -0.014 C 
ATOM      5  C   UNL     1      -1.962  11.394  -1.286  0.00  0.00    -0.078 C 
ATOM      6  N   UNL     1      -1.510  10.044  -1.684  0.00  0.00    +0.381 N 
ATOM      7  H   UNL     1      -2.264   9.372  -1.498  0.00  0.00    -0.082 HD
ENDROOT
BRANCH   6   8
ATOM      8  C   UNL     1      -0.319   9.659  -0.900  0.00  0.00    -0.045 C 
BRANCH   8   9
ATOM      9  C   UNL     1      -0.771   9.235   0.499  0.00  0.00    +0.124 C 
BRANCH   9  10
ATOM     10  O   UNL     1      -1.669   8.129   0.394  0.00  0.00    -0.391 OA
ATOM     11  H   UNL     1      -1.285   7.349  -0.030  0.00  0.00    +0.210 HD
ENDBRANCH   9  10
BRANCH   9  12
ATOM     12  C   UNL     1       0.449   8.825   1.327  0.00  0.00    +0.189 C 
BRANCH  12  13
ATOM     13  O   UNL     1       0.042   8.540   2.667  0.00  0.00    -0.374 OA
BRANCH  13  14
ATOM     14  C   UNL     1       1.112   8.145   3.528  0.00  0.00    +0.207 C 
BRANCH  14  23
ATOM     15  C   UNL     1      -0.682   9.076   9.568  0.00  0.00    +0.004 A 
ATOM     16  C   UNL     1      -1.216  10.063   8.761  0.00  0.00    +0.004 A 
ATOM     17  C   UNL     1      -0.963  10.061   7.403  0.00  0.00    +0.049 A 
ATOM     18  C   UNL     1      -0.171   9.069   6.845  0.00  0.00    +0.163 A 
ATOM     19  C   UNL     1       0.365   8.075   7.656  0.00  0.00    +0.162 A 
ATOM     20  C   UNL     1       0.107   8.083   9.019  0.00  0.00    +0.049 A 
ATOM     21  O   UNL     1       1.140   7.088   7.129  0.00  0.00    -0.485 OA
ATOM     22  C   UNL     1       1.683   7.324   5.825  0.00  0.00    +0.276 C 
ATOM     23  C   UNL     1       0.563   7.867   4.929  0.00  0.00    +0.236 C 
ATOM     24  O   UNL     1       0.077   9.084   5.507  0.00  0.00    -0.479 OA
ENDBRANCH  14  23
ENDBRANCH  13  14
ENDBRANCH  12  13
ENDBRANCH   9  12
ENDBRANCH   8   9
ENDBRANCH   6   8
BRANCH   3  25
ATOM     25  C   UNL     1      -4.318  11.951  -4.280  0.00  0.00    +0.120 C 
BRANCH  25  26
ATOM     26  N   UNL     1      -4.053  12.036  -5.718  0.00  0.00    -0.234 N 
ATOM     27  C   UNL     1      -3.763  13.237  -6.254  0.00  0.00    +0.254 C 
ATOM     28  O   UNL     1      -3.725  14.223  -5.544  0.00  0.00    -0.270 OA
ATOM     29  C   UNL     1      -3.487  13.361  -7.693  0.00  0.00    +0.046 A 
ATOM     30  C   UNL     1      -3.178  14.576  -8.286  0.00  0.00    +0.014 A 
ATOM     31  C   UNL     1      -2.928  14.644  -9.651  0.00  0.00    +0.001 A 
ATOM     32  C   UNL     1      -2.978  13.533 -10.444  0.00  0.00    +0.008 A 
ATOM     33  C   UNL     1      -3.286  12.282  -9.882  0.00  0.00    -0.016 A 
ATOM     34  C   UNL     1      -3.542  12.200  -8.497  0.00  0.00    +0.006 A 
ATOM     35  C   UNL     1      -3.854  10.956  -7.902  0.00  0.00    +0.046 A 
ATOM     36  C   UNL     1      -3.905   9.823  -8.700  0.00  0.00    +0.014 A 
ATOM     37  C   UNL     1      -3.652   9.916 -10.063  0.00  0.00    +0.001 A 
ATOM     38  C   UNL     1      -3.349  11.109 -10.655  0.00  0.00    +0.008 A 
ATOM     39  C   UNL     1      -4.113  10.911  -6.456  0.00  0.00    +0.254 C 
ATOM     40  O   UNL     1      -4.385   9.852  -5.923  0.00  0.00    -0.270 OA
ENDBRANCH  25  26
ENDBRANCH   3  25
TORSDOF 9
