REMARK  Name = ZINC39237398
REMARK  8 active torsions:
REMARK  status: ('A' for Active; 'I' for Inactive)
REMARK    1  A    between atoms: C_1  and  C_2
REMARK    2  A    between atoms: C_3  and  C_23
REMARK    3  A    between atoms: C_5  and  C_7
REMARK    4  A    between atoms: C_15  and  C_16
REMARK    5  A    between atoms: C_18  and  N_22
REMARK    6  A    between atoms: C_19  and  C_20
REMARK    7  A    between atoms: C_23  and  O_24
REMARK    8  A    between atoms: O_24  and  C_25
REMARK                            x       y       z     vdW  Elec       q    Type
REMARK                         _______ _______ _______ _____ _____    ______ ____
ROOT
ATOM      1  C   UNL     1       1.043  -4.062  -0.027  0.00  0.00    +0.085 C 
ATOM      2  C   UNL     1       1.921  -4.277  -1.247  0.00  0.00    +0.108 C 
ATOM      3  C   UNL     1       2.583  -5.680  -1.038  0.00  0.00    +0.286 C 
ATOM      4  N   UNL     1       2.982  -5.921  -2.426  0.00  0.00    -0.230 N 
ATOM      5  N   UNL     1       1.884  -5.433  -3.180  0.00  0.00    -0.193 NA
ATOM      6  C   UNL     1       1.232  -4.488  -2.563  0.00  0.00    +0.043 C 
ATOM      7  C   UNL     1       0.016  -3.752  -3.062  0.00  0.00    +0.063 C 
ATOM      8  O   UNL     1       3.581  -5.483  -0.056  0.00  0.00    -0.455 OA
ATOM      9  C   UNL     1       3.099  -4.947   1.100  0.00  0.00    +0.194 C 
ATOM     10  C   UNL     1       1.932  -4.291   1.182  0.00  0.00    +0.094 C 
ATOM     11  H   UNL     1       3.805  -6.319  -2.752  0.00  0.00    +0.172 HD
ENDROOT
BRANCH   1  16
ATOM     12  C   UNL     1      -0.018   1.503   0.010  0.00  0.00    +0.052 C 
ATOM     13  C   UNL     1       0.002  -0.004   0.002  0.00  0.00    -0.007 A 
ATOM     14  C   UNL     1      -1.039  -0.872   0.002  0.00  0.00    -0.000 A 
ATOM     15  C   UNL     1      -0.780  -2.230  -0.007  0.00  0.00    +0.019 A 
ATOM     16  C   UNL     1       0.507  -2.653  -0.016  0.00  0.00    -0.001 A 
ATOM     17  S   UNL     1       1.404  -1.109  -0.018  0.00  0.00    -0.097 S 
BRANCH  14  18
ATOM     18  C   UNL     1      -2.458  -0.364   0.012  0.00  0.00    +0.265 C 
BRANCH  18  19
ATOM     19  O   UNL     1      -3.361  -1.472   0.009  0.00  0.00    -0.487 OA
BRANCH  19  20
ATOM     20  C   UNL     1      -4.689  -1.185   0.018  0.00  0.00    +0.121 A 
ATOM     21  C   UNL     1      -5.115   0.135   0.022  0.00  0.00    +0.047 A 
ATOM     22  C   UNL     1      -6.466   0.424   0.031  0.00  0.00    +0.019 A 
ATOM     23  C   UNL     1      -7.394  -0.602   0.035  0.00  0.00    +0.018 A 
ATOM     24  C   UNL     1      -6.971  -1.920   0.031  0.00  0.00    +0.019 A 
ATOM     25  C   UNL     1      -5.621  -2.213   0.016  0.00  0.00    +0.047 A 
ATOM     26 BR   UNL     1      -9.242  -0.204   0.046  0.00  0.00    -0.050 Br
ENDBRANCH  19  20
ENDBRANCH  18  19
ENDBRANCH  14  18
ENDBRANCH   1  16
BRANCH   9  27
ATOM     27  N   UNL     1       3.855  -5.067   2.240  0.00  0.00    -0.329 N 
ATOM     28  H   UNL     1       4.709  -5.525   2.209  0.00  0.00    +0.145 HD
ATOM     29  H   UNL     1       3.534  -4.695   3.076  0.00  0.00    +0.145 HD
ENDBRANCH   9  27
BRANCH  10  30
ATOM     30  C   UNL     1       1.501  -3.806   2.459  0.00  0.00    +0.100 C 
ATOM     31  N   UNL     1       1.159  -3.421   3.471  0.00  0.00    -0.191 NA
ENDBRANCH  10  30
TORSDOF 6
