REMARK  Name = ZINC35695479
REMARK  14 active torsions:
REMARK  status: ('A' for Active; 'I' for Inactive)
REMARK    1  A    between atoms: C_1  and  C_2
REMARK    2  A    between atoms: C_5  and  N_9
REMARK    3  A    between atoms: C_11  and  C_30
REMARK    4  A    between atoms: C_15  and  C_17
REMARK    5  A    between atoms: C_17  and  N_18
REMARK    6  A    between atoms: N_18  and  C_19
REMARK    7  A    between atoms: C_19  and  C_20
REMARK    8  A    between atoms: C_20  and  N_21
REMARK    9  A    between atoms: N_21  and  C_22
REMARK   10  A    between atoms: N_21  and  C_23
REMARK   11  A    between atoms: C_24  and  C_26
REMARK   12  A    between atoms: C_26  and  C_27
REMARK   13  A    between atoms: C_27  and  C_28
REMARK   14  A    between atoms: C_27  and  C_29
REMARK                            x       y       z     vdW  Elec       q    Type
REMARK                         _______ _______ _______ _____ _____    ______ ____
ROOT
ATOM      1  N   UNL     1       0.059  -4.174  -0.023  0.00  0.00    -0.287 N 
ATOM      2  C   UNL     1      -0.777  -4.995  -0.740  0.00  0.00    +0.122 A 
ATOM      3  C   UNL     1      -0.412  -6.271  -0.456  0.00  0.00    +0.091 A 
ATOM      4  N   UNL     1       0.622  -6.226   0.412  0.00  0.00    -0.214 NA
ATOM      5  C   UNL     1       0.914  -4.976   0.672  0.00  0.00    +0.207 A 
ATOM      6  N   UNL     1       1.924  -4.541   1.519  0.00  0.00    -0.254 N 
ATOM      7  C   UNL     1       2.706  -5.438   2.152  0.00  0.00    +0.237 C 
ATOM      8  O   UNL     1       2.527  -6.625   1.982  0.00  0.00    -0.274 OA
ATOM      9  H   UNL     1       2.067  -3.591   1.655  0.00  0.00    +0.158 HD
ENDROOT
BRANCH   1  14
ATOM     10  C   UNL     1      -0.018   1.503   0.010  0.00  0.00    +0.047 C 
ATOM     11  C   UNL     1       0.002  -0.004   0.002  0.00  0.00    -0.015 A 
ATOM     12  C   UNL     1       0.006  -0.688  -1.200  0.00  0.00    +0.008 A 
ATOM     13  C   UNL     1       0.025  -2.069  -1.211  0.00  0.00    +0.026 A 
ATOM     14  C   UNL     1       0.040  -2.772  -0.014  0.00  0.00    +0.052 A 
ATOM     15  C   UNL     1       0.037  -2.085   1.192  0.00  0.00    +0.064 A 
ATOM     16  C   UNL     1       0.023  -0.702   1.198  0.00  0.00    +0.128 A 
ATOM     17  F   UNL     1       0.025  -0.031   2.371  0.00  0.00    -0.205 F 
ENDBRANCH   1  14
BRANCH   3  18
ATOM     18  C   UNL     1      -1.038  -7.499  -1.004  0.00  0.00    +0.002 A 
ATOM     19  C   UNL     1      -2.101  -7.402  -1.900  0.00  0.00    +0.010 A 
ATOM     20  C   UNL     1      -2.680  -8.549  -2.406  0.00  0.00    +0.001 A 
ATOM     21  C   UNL     1      -2.207  -9.791  -2.025  0.00  0.00    +0.000 A 
ATOM     22  C   UNL     1      -1.153  -9.893  -1.135  0.00  0.00    +0.001 A 
ATOM     23  C   UNL     1      -0.562  -8.754  -0.628  0.00  0.00    +0.010 A 
ENDBRANCH   3  18
BRANCH   7  24
ATOM     24  C   UNL     1       3.803  -4.965   3.072  0.00  0.00    +0.203 C 
BRANCH  24  25
ATOM     25  N   UNL     1       4.503  -6.123   3.632  0.00  0.00    -0.294 N 
ATOM     26  C   UNL     1       4.080  -6.673   4.788  0.00  0.00    +0.216 C 
ATOM     27  O   UNL     1       4.659  -7.631   5.252  0.00  0.00    -0.276 OA
BRANCH  25  28
ATOM     28  C   UNL     1       5.664  -6.685   2.936  0.00  0.00    +0.090 C 
BRANCH  28  29
ATOM     29  C   UNL     1       6.937  -5.997   3.432  0.00  0.00    -0.060 C 
BRANCH  29  30
ATOM     30  N   UNL     1       8.101  -6.560   2.735  0.00  0.00    +0.377 N 
ATOM     31  C   UNL     1       9.309  -5.820   3.122  0.00  0.00    -0.097 C 
ATOM     32  C   UNL     1       8.255  -7.974   3.101  0.00  0.00    -0.097 C 
ATOM     33  H   UNL     1       7.965  -6.484   1.738  0.00  0.00    -0.083 HD
ENDBRANCH  29  30
ENDBRANCH  28  29
ENDBRANCH  25  28
BRANCH  26  34
ATOM     34  C   UNL     1       2.886  -6.095   5.503  0.00  0.00    +0.099 C 
BRANCH  34  35
ATOM     35  C   UNL     1       2.618  -6.897   6.778  0.00  0.00    -0.008 C 
ATOM     36  C   UNL     1       1.486  -6.237   7.568  0.00  0.00    +0.008 C 
ATOM     37  C   UNL     1       2.215  -8.326   6.407  0.00  0.00    +0.008 C 
ENDBRANCH  34  35
ENDBRANCH  26  34
ENDBRANCH  24  25
ENDBRANCH   7  24
TORSDOF 9
