REMARK  Name = ZINC37744360
REMARK  4 active torsions:
REMARK  status: ('A' for Active; 'I' for Inactive)
REMARK    1  A    between atoms: C_6  and  N_7
REMARK    2  A    between atoms: C_9  and  N_11
REMARK    3  A    between atoms: N_11  and  S_12
REMARK    4  A    between atoms: S_12  and  C_15
REMARK                            x       y       z     vdW  Elec       q    Type
REMARK                         _______ _______ _______ _____ _____    ______ ____
ROOT
ATOM      1  C   UNL     1      -0.017   1.388   0.010  0.00  0.00    +0.025 A 
ATOM      2  C   UNL     1       1.143   2.119   0.003  0.00  0.00    +0.031 A 
ATOM      3  C   UNL     1       2.402   1.478  -0.013  0.00  0.00    +0.080 A 
ATOM      4  C   UNL     1       2.386   0.064  -0.021  0.00  0.00    +0.043 A 
ATOM      5  C   UNL     1       1.224  -0.664  -0.013  0.00  0.00    +0.040 A 
ATOM      6  C   UNL     1       0.002  -0.004   0.002  0.00  0.00    +0.026 A 
ATOM      7  S   UNL     1       4.118  -0.334  -0.039  0.00  0.00    -0.049 S 
ATOM      8  C   UNL     1       4.735   1.343  -0.036  0.00  0.00    +0.202 A 
ATOM      9  N   UNL     1       3.629   2.049  -0.022  0.00  0.00    -0.222 NA
ENDROOT
BRANCH   6  10
ATOM     10  N   UNL     1      -1.195  -0.729   0.009  0.00  0.00    -0.358 N 
ATOM     11  H   UNL     1      -2.045  -0.262   0.019  0.00  0.00    +0.142 HD
ATOM     12  H   UNL     1      -1.175  -1.699   0.004  0.00  0.00    +0.142 HD
ENDBRANCH   6  10
BRANCH   8  13
ATOM     13  N   UNL     1       6.044   1.784  -0.046  0.00  0.00    -0.070 NA
BRANCH  13  14
ATOM     14  S   UNL     1       6.371   3.407  -0.041  0.00  0.00    +0.096 S 
ATOM     15  O   UNL     1       5.900   3.920  -1.279  0.00  0.00    -0.148 OA
ATOM     16  O   UNL     1       5.922   3.908   1.212  0.00  0.00    -0.148 OA
BRANCH  14  17
ATOM     17  C   UNL     1       8.124   3.586  -0.055  0.00  0.00    +0.147 A 
ATOM     18  C   UNL     1       8.926   3.656   1.032  0.00  0.00    +0.133 A 
ATOM     19  N   UNL     1      10.197   3.790   0.598  0.00  0.00    -0.283 N 
ATOM     20  H   UNL     1      10.986   3.864   1.157  0.00  0.00    +0.188 HD
ATOM     21  N   UNL     1      10.174   3.803  -0.803  0.00  0.00    -0.180 NA
ATOM     22  C   UNL     1       8.932   3.675  -1.193  0.00  0.00    +0.163 A 
ENDBRANCH  14  17
ENDBRANCH  13  14
ENDBRANCH   8  13
TORSDOF 4
