REMARK  Name = ZINC18199196
REMARK  5 active torsions:
REMARK  status: ('A' for Active; 'I' for Inactive)
REMARK    1  A    between atoms: C_1  and  C_2
REMARK    2  A    between atoms: C_3  and  C_10
REMARK    3  A    between atoms: C_15  and  N_24
REMARK    4  A    between atoms: C_19  and  N_23
REMARK    5  A    between atoms: C_20  and  C_21
REMARK                            x       y       z     vdW  Elec       q    Type
REMARK                         _______ _______ _______ _____ _____    ______ ____
ROOT
ATOM      1  C   UNL     1       1.126   3.595   0.010  0.00  0.00    +0.117 C 
ATOM      2  C   UNL     1       1.169   2.090   0.002  0.00  0.00    +0.009 A 
ATOM      3  C   UNL     1      -0.017   1.376   0.010  0.00  0.00    +0.010 A 
ATOM      4  C   UNL     1       0.002  -0.004   0.002  0.00  0.00    +0.023 A 
ATOM      5  C   UNL     1       1.215  -0.682  -0.013  0.00  0.00    +0.028 A 
ATOM      6  C   UNL     1       2.405   0.032  -0.021  0.00  0.00    +0.069 A 
ATOM      7  C   UNL     1       2.382   1.420  -0.014  0.00  0.00    +0.136 A 
ATOM      8  O   UNL     1       3.554   2.103  -0.021  0.00  0.00    -0.441 OA
ATOM      9  C   UNL     1       3.583   3.388   0.369  0.00  0.00    +0.199 C 
ATOM     10  C   UNL     1       2.465   4.151   0.406  0.00  0.00    +0.099 C 
ENDROOT
BRANCH   1  13
ATOM     11  C   UNL     1       2.757   3.094  -2.595  0.00  0.00    +0.067 C 
ATOM     12  C   UNL     1       1.471   3.874  -2.494  0.00  0.00    +0.062 A 
ATOM     13  C   UNL     1       0.769   4.089  -1.369  0.00  0.00    +0.059 A 
ATOM     14  N   UNL     1      -0.350   4.845  -1.706  0.00  0.00    -0.296 N 
ATOM     15  C   UNL     1      -1.440   5.406  -1.077  0.00  0.00    +0.100 A 
ATOM     16  C   UNL     1      -2.342   6.104  -1.766  0.00  0.00    +0.067 A 
ATOM     17  S   UNL     1      -1.683   6.020  -3.424  0.00  0.00    -0.058 S 
ATOM     18  C   UNL     1      -0.240   5.050  -3.056  0.00  0.00    +0.178 A 
ATOM     19  N   UNL     1       0.833   4.471  -3.512  0.00  0.00    -0.226 NA
ENDBRANCH   1  13
BRANCH   9  20
ATOM     20  N   UNL     1       4.782   3.944   0.740  0.00  0.00    -0.328 N 
ATOM     21  H   UNL     1       5.591   3.411   0.719  0.00  0.00    +0.145 HD
ATOM     22  H   UNL     1       4.819   4.871   1.024  0.00  0.00    +0.145 HD
ENDBRANCH   9  20
BRANCH   5  23
ATOM     23  N   UNL     1       1.237  -2.078  -0.021  0.00  0.00    -0.358 N 
ATOM     24  H   UNL     1       0.405  -2.576  -0.016  0.00  0.00    +0.142 HD
ATOM     25  H   UNL     1       2.084  -2.550  -0.032  0.00  0.00    +0.142 HD
ENDBRANCH   5  23
BRANCH  10  26
ATOM     26  C   UNL     1       2.560   5.515   0.833  0.00  0.00    +0.101 C 
ATOM     27  N   UNL     1       2.636   6.597   1.171  0.00  0.00    -0.191 NA
ENDBRANCH  10  26
TORSDOF 4
