REMARK  Name = ZINC64790727
REMARK  3 active torsions:
REMARK  status: ('A' for Active; 'I' for Inactive)
REMARK    1  A    between atoms: C_4  and  C_7
REMARK    2  A    between atoms: C_9  and  C_25
REMARK    3  A    between atoms: C_17  and  C_19
REMARK                            x       y       z     vdW  Elec       q    Type
REMARK                         _______ _______ _______ _____ _____    ______ ____
ROOT
ATOM      1  C   UNL     1       3.691  -0.679  -0.037  0.00  0.00    +0.055 C 
ATOM      2  C   UNL     1       3.681  -2.182  -0.051  0.00  0.00    +0.088 C 
ATOM      3  C   UNL     1       4.863  -2.736  -0.854  0.00  0.00    +0.151 C 
ATOM      4  N   UNL     1       6.050  -1.950  -0.516  0.00  0.00    -0.220 N 
ATOM      5  C   UNL     1       5.982  -0.636  -0.143  0.00  0.00    +0.251 A 
ATOM      6  N   UNL     1       7.207  -0.222   0.074  0.00  0.00    -0.176 NA
ATOM      7  C   UNL     1       8.064  -1.227  -0.137  0.00  0.00    +0.243 A 
ATOM      8  N   UNL     1       7.395  -2.303  -0.497  0.00  0.00    -0.131 NA
ATOM      9  N   UNL     1       9.452  -1.148   0.003  0.00  0.00    -0.247 N 
ATOM     10  C   UNL     1      10.027   0.012   0.378  0.00  0.00    +0.286 C 
ATOM     11  O   UNL     1       9.336   0.991   0.596  0.00  0.00    -0.266 OA
ATOM     12  N   UNL     1       4.795   0.018  -0.044  0.00  0.00    -0.215 NA
ATOM     13  H   UNL     1      10.003  -1.927  -0.171  0.00  0.00    +0.158 HD
ENDROOT
BRANCH   3  14
ATOM     14  C   UNL     1       5.089  -4.182  -0.494  0.00  0.00    +0.031 A 
ATOM     15  C   UNL     1       5.378  -4.533   0.814  0.00  0.00    +0.130 A 
ATOM     16  C   UNL     1       5.586  -5.862   1.143  0.00  0.00    +0.039 A 
ATOM     17  C   UNL     1       5.505  -6.837   0.167  0.00  0.00    +0.004 A 
ATOM     18  C   UNL     1       5.216  -6.487  -1.138  0.00  0.00    +0.020 A 
ATOM     19  C   UNL     1       5.003  -5.160  -1.468  0.00  0.00    +0.049 A 
ATOM     20 CL   UNL     1       4.633  -4.721  -3.107  0.00  0.00    -0.083 Cl
ATOM     21  F   UNL     1       5.458  -3.580   1.768  0.00  0.00    -0.205 F 
ENDBRANCH   3  14
BRANCH   1  25
ATOM     22  C   UNL     1      -0.017   1.380   0.010  0.00  0.00    +0.000 A 
ATOM     23  C   UNL     1       1.168   2.095   0.002  0.00  0.00    +0.001 A 
ATOM     24  C   UNL     1       2.377   1.433  -0.013  0.00  0.00    +0.010 A 
ATOM     25  C   UNL     1       2.405   0.035  -0.021  0.00  0.00    -0.004 A 
ATOM     26  C   UNL     1       1.203  -0.681  -0.013  0.00  0.00    +0.010 A 
ATOM     27  C   UNL     1       0.002  -0.004   0.002  0.00  0.00    +0.001 A 
ENDBRANCH   1  25
BRANCH  10  28
ATOM     28  C   UNL     1      11.483   0.096   0.525  0.00  0.00    +0.189 A 
ATOM     29  C   UNL     1      12.190   1.202   0.902  0.00  0.00    +0.054 A 
ATOM     30  C   UNL     1      13.543   0.832   0.911  0.00  0.00    +0.042 A 
ATOM     31  C   UNL     1      13.604  -0.467   0.543  0.00  0.00    +0.196 A 
ATOM     32  O   UNL     1      12.360  -0.908   0.316  0.00  0.00    -0.458 OA
ENDBRANCH  10  28
TORSDOF 3
