REMARK  Name = ZINC11867304
REMARK  10 active torsions:
REMARK  status: ('A' for Active; 'I' for Inactive)
REMARK    1  A    between atoms: C_1  and  C_2
REMARK    2  A    between atoms: C_2  and  C_3
REMARK    3  A    between atoms: C_5  and  C_19
REMARK    4  A    between atoms: C_6  and  O_18
REMARK    5  A    between atoms: C_8  and  O_9
REMARK    6  A    between atoms: O_9  and  C_10
REMARK    7  A    between atoms: C_10  and  C_11
REMARK    8  A    between atoms: C_20  and  C_26
REMARK    9  A    between atoms: C_21  and  N_25
REMARK   10  A    between atoms: C_28  and  C_31
REMARK                            x       y       z     vdW  Elec       q    Type
REMARK                         _______ _______ _______ _____ _____    ______ ____
ROOT
ATOM      1  C   UNL     1      -1.718  -0.952  -0.828  0.00  0.00    -0.005 A 
ATOM      2  C   UNL     1      -1.544  -2.311  -0.668  0.00  0.00    +0.021 A 
ATOM      3  C   UNL     1      -0.281  -2.820  -0.369  0.00  0.00    +0.045 A 
ATOM      4  C   UNL     1       0.806  -1.950  -0.237  0.00  0.00    +0.130 A 
ATOM      5  C   UNL     1       0.622  -0.589  -0.404  0.00  0.00    +0.092 A 
ATOM      6  C   UNL     1      -0.637  -0.090  -0.702  0.00  0.00    +0.128 A 
ENDROOT
BRANCH   3   7
ATOM      7  C   UNL     1      -0.091  -4.280  -0.192  0.00  0.00    +0.108 A 
ATOM      8  C   UNL     1      -0.835  -5.148   0.723  0.00  0.00    +0.074 A 
ATOM      9  C   UNL     1      -0.323  -6.426   0.551  0.00  0.00    +0.122 A 
ATOM     10  N   UNL     1       0.648  -6.356  -0.383  0.00  0.00    -0.263 N 
ATOM     11  H   UNL     1       1.195  -7.128  -0.706  0.00  0.00    +0.190 HD
ATOM     12  N   UNL     1       0.772  -5.037  -0.831  0.00  0.00    -0.171 NA
BRANCH   8  13
ATOM     13  C   UNL     1      -1.914  -4.745   1.644  0.00  0.00    +0.114 A 
ATOM     14  N   UNL     1      -2.689  -5.498   2.415  0.00  0.00    -0.244 NA
ATOM     15  C   UNL     1      -3.609  -4.960   3.186  0.00  0.00    +0.046 A 
ATOM     16  C   UNL     1      -3.786  -3.615   3.192  0.00  0.00    +0.070 A 
ATOM     17  S   UNL     1      -2.536  -3.111   2.016  0.00  0.00    -0.075 S 
ATOM     18  C   UNL     1      -4.471  -5.838   4.056  0.00  0.00    +0.066 C 
ENDBRANCH   8  13
BRANCH   9  19
ATOM     19  N   UNL     1      -0.735  -7.569   1.219  0.00  0.00    -0.343 N 
ATOM     20  H   UNL     1      -1.446  -7.516   1.877  0.00  0.00    +0.144 HD
ATOM     21  H   UNL     1      -0.313  -8.421   1.028  0.00  0.00    +0.144 HD
ENDBRANCH   9  19
ENDBRANCH   3   7
BRANCH   1  23
ATOM     22  C   UNL     1      -3.228  -0.236  -2.660  0.00  0.00    +0.009 C 
ATOM     23  C   UNL     1      -3.085  -0.403  -1.145  0.00  0.00    +0.035 C 
ENDBRANCH   1  23
BRANCH   4  24
ATOM     24  O   UNL     1       2.039  -2.440   0.054  0.00  0.00    -0.506 OA
ATOM     25  H   UNL     1       2.257  -2.424   0.996  0.00  0.00    +0.292 HD
ENDBRANCH   4  24
BRANCH   6  26
ATOM     26  O   UNL     1      -0.815   1.247  -0.865  0.00  0.00    -0.487 OA
BRANCH  26  27
ATOM     27  C   UNL     1       0.338   2.078  -0.716  0.00  0.00    +0.264 C 
BRANCH  27  28
ATOM     28  C   UNL     1      -0.050   3.519  -0.931  0.00  0.00    -0.010 A 
ATOM     29  C   UNL     1       0.010   4.068  -2.198  0.00  0.00    +0.010 A 
ATOM     30  C   UNL     1      -0.350   5.388  -2.397  0.00  0.00    +0.039 A 
ATOM     31  C   UNL     1      -0.760   6.162  -1.325  0.00  0.00    +0.123 A 
ATOM     32  C   UNL     1      -0.815   5.612  -0.056  0.00  0.00    +0.039 A 
ATOM     33  C   UNL     1      -0.460   4.291   0.140  0.00  0.00    +0.010 A 
ATOM     34  F   UNL     1      -1.108   7.453  -1.518  0.00  0.00    -0.205 F 
ENDBRANCH  27  28
ENDBRANCH  26  27
ENDBRANCH   6  26
TORSDOF 8
