REMARK  Name = ZINC04213688
REMARK  13 active torsions:
REMARK  status: ('A' for Active; 'I' for Inactive)
REMARK    1  A    between atoms: C_1  and  C_2
REMARK    2  A    between atoms: C_2  and  C_3
REMARK    3  A    between atoms: C_6  and  N_9
REMARK    4  A    between atoms: N_9  and  C_10
REMARK    5  A    between atoms: C_10  and  C_11
REMARK    6  A    between atoms: N_13  and  C_14
REMARK    7  A    between atoms: C_14  and  C_15
REMARK    8  A    between atoms: C_14  and  C_16
REMARK    9  A    between atoms: C_14  and  C_17
REMARK   10  A    between atoms: C_17  and  C_18
REMARK   11  A    between atoms: C_19  and  C_21
REMARK   12  A    between atoms: C_22  and  N_29
REMARK   13  A    between atoms: C_23  and  C_26
REMARK                            x       y       z     vdW  Elec       q    Type
REMARK                         _______ _______ _______ _____ _____    ______ ____
ROOT
ATOM      1  N   UNL     1      -2.701   2.899   4.720  0.00  0.00    -0.258 N 
ATOM      2  C   UNL     1      -3.745   2.128   5.083  0.00  0.00    +0.261 C 
ATOM      3  O   UNL     1      -3.970   1.089   4.490  0.00  0.00    -0.269 OA
ENDROOT
BRANCH   1   7
ATOM      4  C   UNL     1      -0.470   1.925   1.340  0.00  0.00    -0.048 A 
ATOM      5  C   UNL     1      -0.231   3.114   2.006  0.00  0.00    +0.005 A 
ATOM      6  C   UNL     1      -0.972   3.442   3.124  0.00  0.00    +0.024 A 
ATOM      7  C   UNL     1      -1.952   2.572   3.586  0.00  0.00    +0.037 A 
ATOM      8  C   UNL     1      -2.185   1.376   2.918  0.00  0.00    +0.024 A 
ATOM      9  C   UNL     1      -1.444   1.057   1.798  0.00  0.00    +0.005 A 
BRANCH   4  11
ATOM     10  C   UNL     1      -0.366   2.110  -1.131  0.00  0.00    +0.009 C 
ATOM     11  C   UNL     1       0.337   1.573   0.117  0.00  0.00    +0.032 C 
ENDBRANCH   4  11
ENDBRANCH   1   7
BRANCH   2  12
ATOM     12  C   UNL     1      -4.608   2.539   6.192  0.00  0.00    +0.116 A 
ATOM     13  C   UNL     1      -5.777   1.945   6.671  0.00  0.00    +0.076 A 
ATOM     14  C   UNL     1      -6.320   2.633   7.756  0.00  0.00    +0.155 A 
ATOM     15  N   UNL     1      -5.721   3.719   8.194  0.00  0.00    -0.203 NA
ATOM     16  S   UNL     1      -4.451   3.935   7.286  0.00  0.00    +0.019 S 
BRANCH  14  17
ATOM     17  C   UNL     1      -7.555   2.152   8.402  0.00  0.00    +0.262 C 
ATOM     18  O   UNL     1      -8.104   1.147   7.991  0.00  0.00    -0.269 OA
ATOM     19  N   UNL     1      -8.076   2.825   9.446  0.00  0.00    -0.324 N 
ATOM     20  H   UNL     1      -7.638   3.626   9.774  0.00  0.00    +0.145 HD
ATOM     21  H   UNL     1      -8.889   2.508   9.871  0.00  0.00    +0.145 HD
ENDBRANCH  14  17
BRANCH  13  22
ATOM     22  N   UNL     1      -6.336   0.795   6.130  0.00  0.00    -0.355 N 
ATOM     23  H   UNL     1      -5.910   0.358   5.375  0.00  0.00    +0.142 HD
ATOM     24  H   UNL     1      -7.151   0.428   6.506  0.00  0.00    +0.142 HD
ENDBRANCH  13  22
ENDBRANCH   2  12
BRANCH   1  25
ATOM     25  C   UNL     1      -2.351   4.080   5.513  0.00  0.00    +0.209 C 
BRANCH  25  26
ATOM     26  C   UNL     1      -3.207   5.244   5.086  0.00  0.00    +0.231 C 
ATOM     27  O   UNL     1      -4.029   5.101   4.205  0.00  0.00    -0.274 OA
ATOM     28  N   UNL     1      -3.060   6.444   5.682  0.00  0.00    -0.309 N 
ATOM     29  H   UNL     1      -2.403   6.558   6.386  0.00  0.00    +0.149 HD
BRANCH  28  30
ATOM     30  C   UNL     1      -3.892   7.575   5.266  0.00  0.00    +0.029 C 
ATOM     31  C   UNL     1      -3.652   7.867   3.784  0.00  0.00    +0.031 C 
ATOM     32  C   UNL     1      -5.367   7.232   5.486  0.00  0.00    +0.031 C 
BRANCH  30  33
ATOM     33  C   UNL     1      -3.527   8.808   6.095  0.00  0.00    +0.022 C 
ATOM     34  C   UNL     1      -4.396   9.990   5.660  0.00  0.00    +0.006 C 
ENDBRANCH  30  33
ENDBRANCH  28  30
ENDBRANCH  25  26
ENDBRANCH   1  25
TORSDOF 9
