REMARK  Name = ZINC00931096
REMARK  9 active torsions:
REMARK  status: ('A' for Active; 'I' for Inactive)
REMARK    1  A    between atoms: C_1  and  C_2
REMARK    2  A    between atoms: C_5  and  C_7
REMARK    3  A    between atoms: C_7  and  C_9
REMARK    4  A    between atoms: C_7  and  N_18
REMARK    5  A    between atoms: N_11  and  C_12
REMARK    6  A    between atoms: N_18  and  C_19
REMARK    7  A    between atoms: C_23  and  N_25
REMARK    8  A    between atoms: C_26  and  C_28
REMARK    9  A    between atoms: C_29  and  C_31
REMARK                            x       y       z     vdW  Elec       q    Type
REMARK                         _______ _______ _______ _____ _____    ______ ____
ROOT
ATOM      1  N   UNL     1      -2.210   8.229   1.006  0.00  0.00    -0.249 N 
ATOM      2  C   UNL     1      -1.139   7.484   0.669  0.00  0.00    +0.265 C 
ATOM      3  O   UNL     1      -1.136   6.291   0.890  0.00  0.00    -0.271 OA
ENDROOT
BRANCH   2   4
ATOM      4  C   UNL     1       0.056   8.132   0.018  0.00  0.00    +0.296 C 
ATOM      5  C   UNL     1       0.787   9.013   1.040  0.00  0.00    +0.283 C 
ATOM      6  O   UNL     1       1.921   9.602   0.394  0.00  0.00    -0.484 OA
ATOM      7  C   UNL     1       2.696   8.772  -0.357  0.00  0.00    +0.162 A 
ATOM      8  C   UNL     1       3.980   9.166  -0.702  0.00  0.00    +0.049 A 
ATOM      9  C   UNL     1       4.776   8.338  -1.471  0.00  0.00    +0.004 A 
ATOM     10  C   UNL     1       4.298   7.110  -1.889  0.00  0.00    +0.004 A 
ATOM     11  C   UNL     1       3.022   6.708  -1.543  0.00  0.00    +0.049 A 
ATOM     12  C   UNL     1       2.217   7.536  -0.775  0.00  0.00    +0.163 A 
ATOM     13  O   UNL     1       0.965   7.124  -0.436  0.00  0.00    -0.472 OA
ENDBRANCH   2   4
BRANCH   1  14
ATOM     14  C   UNL     1      -3.276   7.647   1.701  0.00  0.00    +0.039 A 
ATOM     15  C   UNL     1      -4.309   8.443   2.183  0.00  0.00    +0.023 A 
ATOM     16  C   UNL     1      -5.361   7.870   2.870  0.00  0.00    +0.004 A 
ATOM     17  C   UNL     1      -5.391   6.504   3.081  0.00  0.00    +0.023 A 
ATOM     18  C   UNL     1      -4.362   5.704   2.602  0.00  0.00    +0.035 A 
ATOM     19  C   UNL     1      -3.305   6.276   1.907  0.00  0.00    +0.046 A 
BRANCH  18  20
ATOM     20  N   UNL     1      -4.393   4.321   2.815  0.00  0.00    -0.286 N 
ATOM     21  C   UNL     1      -4.919   3.826   3.952  0.00  0.00    +0.214 C 
ATOM     22  O   UNL     1      -5.442   4.572   4.753  0.00  0.00    -0.276 OA
ATOM     23  C   UNL     1      -4.859   2.346   4.229  0.00  0.00    +0.109 C 
ATOM     24  H   UNL     1      -4.035   3.719   2.144  0.00  0.00    +0.155 HD
ENDBRANCH  18  20
ENDBRANCH   1  14
BRANCH   1  25
ATOM     25  C   UNL     1      -2.259   9.648   0.644  0.00  0.00    +0.233 C 
BRANCH  25  30
ATOM     26  C   UNL     1      -6.956   9.442  -1.181  0.00  0.00    +0.086 C 
ATOM     27  C   UNL     1      -5.505   9.814  -1.020  0.00  0.00    +0.102 A 
ATOM     28  C   UNL     1      -4.816  10.655  -1.812  0.00  0.00    +0.045 A 
ATOM     29  C   UNL     1      -3.500  10.716  -1.298  0.00  0.00    +0.047 A 
ATOM     30  C   UNL     1      -3.462   9.903  -0.227  0.00  0.00    +0.135 A 
ATOM     31  O   UNL     1      -4.680   9.361  -0.061  0.00  0.00    -0.462 OA
ENDBRANCH  25  30
BRANCH  25  32
ATOM     32  C   UNL     1      -2.357  10.482   1.895  0.00  0.00    +0.242 C 
ATOM     33  O   UNL     1      -2.384   9.945   2.982  0.00  0.00    -0.273 OA
ATOM     34  N   UNL     1      -2.415  11.826   1.805  0.00  0.00    -0.311 N 
ATOM     35  H   UNL     1      -2.394  12.255   0.936  0.00  0.00    +0.149 HD
BRANCH  34  36
ATOM     36  C   UNL     1      -2.511  12.637   3.021  0.00  0.00    +0.073 C 
ATOM     37  C   UNL     1      -3.977  12.748   3.446  0.00  0.00    +0.022 C 
ATOM     38  C   UNL     1      -4.077  13.596   4.716  0.00  0.00    +0.002 C 
ATOM     39  C   UNL     1      -3.518  14.993   4.442  0.00  0.00    +0.000 C 
ATOM     40  C   UNL     1      -2.052  14.882   4.017  0.00  0.00    +0.002 C 
ATOM     41  C   UNL     1      -1.952  14.035   2.747  0.00  0.00    +0.022 C 
ENDBRANCH  34  36
ENDBRANCH  25  32
ENDBRANCH   1  25
TORSDOF 7
