REMARK  Name = ZINC21163020
REMARK  8 active torsions:
REMARK  status: ('A' for Active; 'I' for Inactive)
REMARK    1  A    between atoms: C_1  and  C_2
REMARK    2  A    between atoms: C_2  and  C_3
REMARK    3  A    between atoms: C_6  and  C_9
REMARK    4  A    between atoms: C_9  and  N_10
REMARK    5  A    between atoms: C_11  and  C_13
REMARK    6  A    between atoms: N_27  and  C_28
REMARK    7  A    between atoms: C_28  and  C_29
REMARK    8  A    between atoms: C_34  and  C_35
REMARK                            x       y       z     vdW  Elec       q    Type
REMARK                         _______ _______ _______ _____ _____    ______ ____
ROOT
ATOM      1  C   UNL     1       2.276   8.917   1.231  0.00  0.00    +0.078 C 
ATOM      2  C   UNL     1       1.222   8.680   0.146  0.00  0.00    +0.032 C 
ATOM      3  C   UNL     1       0.706   7.243   0.249  0.00  0.00    +0.108 C 
ATOM      4  N   UNL     1       1.825   6.307   0.082  0.00  0.00    -0.302 N 
ATOM      5  C   UNL     1       2.828   6.484   1.139  0.00  0.00    +0.108 C 
ATOM      6  C   UNL     1       3.407   7.898   1.063  0.00  0.00    +0.032 C 
ATOM      7  C   UNL     1       1.376   5.003   0.039  0.00  0.00    +0.177 A 
ATOM      8  N   UNL     1       0.188   4.604   0.419  0.00  0.00    -0.327 N 
ATOM      9  C   UNL     1       0.081   3.260   0.242  0.00  0.00    +0.065 A 
ATOM     10  C   UNL     1      -0.944   2.340   0.478  0.00  0.00    +0.028 A 
ATOM     11  C   UNL     1      -0.749   1.009   0.184  0.00  0.00    +0.002 A 
ATOM     12  C   UNL     1       0.462   0.573  -0.333  0.00  0.00    +0.002 A 
ATOM     13  C   UNL     1       1.484   1.469  -0.571  0.00  0.00    +0.028 A 
ATOM     14  C   UNL     1       1.303   2.814  -0.287  0.00  0.00    +0.068 A 
ATOM     15  N   UNL     1       2.104   3.938  -0.406  0.00  0.00    -0.309 N 
ATOM     16  H   UNL     1      -0.539   5.332   0.808  0.00  0.00    +0.169 HD
ENDROOT
BRANCH   1  18
ATOM     17  N   UNL     1       3.781  10.744   1.951  0.00  0.00    -0.311 N 
ATOM     18  C   UNL     1       2.832  10.312   1.097  0.00  0.00    +0.216 C 
ATOM     19  O   UNL     1       2.425  11.045   0.221  0.00  0.00    -0.276 OA
ATOM     20  H   UNL     1       4.150  10.079   2.746  0.00  0.00    +0.149 HD
BRANCH  17  21
ATOM     21  C   UNL     1       4.320  12.100   1.821  0.00  0.00    +0.139 C 
BRANCH  21  25
ATOM     22  C   UNL     1       7.262  12.757   4.848  0.00  0.00    -0.048 A 
ATOM     23  C   UNL     1       7.636  12.242   3.621  0.00  0.00    +0.004 A 
ATOM     24  C   UNL     1       6.684  12.029   2.641  0.00  0.00    +0.005 A 
ATOM     25  C   UNL     1       5.358  12.332   2.889  0.00  0.00    -0.030 A 
ATOM     26  C   UNL     1       4.985  12.852   4.114  0.00  0.00    +0.005 A 
ATOM     27  C   UNL     1       5.937  13.061   5.095  0.00  0.00    +0.004 A 
BRANCH  22  29
ATOM     28  C   UNL     1       8.865  14.404   5.780  0.00  0.00    +0.009 C 
ATOM     29  C   UNL     1       8.300  12.988   5.916  0.00  0.00    +0.032 C 
ENDBRANCH  22  29
ENDBRANCH  21  25
ENDBRANCH  17  21
ENDBRANCH   1  18
BRANCH  15  30
ATOM     30  C   UNL     1       3.478   3.975  -0.913  0.00  0.00    +0.160 C 
BRANCH  30  31
ATOM     31  C   UNL     1       3.455   4.048  -2.418  0.00  0.00    -0.025 A 
ATOM     32  C   UNL     1       3.267   2.899  -3.164  0.00  0.00    +0.005 A 
ATOM     33  C   UNL     1       3.247   2.967  -4.544  0.00  0.00    +0.000 A 
ATOM     34  C   UNL     1       3.413   4.183  -5.180  0.00  0.00    +0.000 A 
ATOM     35  C   UNL     1       3.600   5.332  -4.434  0.00  0.00    +0.004 A 
ATOM     36  C   UNL     1       3.617   5.265  -3.054  0.00  0.00    -0.046 A 
ATOM     37  C   UNL     1       3.816   6.519  -2.241  0.00  0.00    +0.044 C 
ENDBRANCH  30  31
ENDBRANCH  15  30
TORSDOF 6
