REMARK  Name = ZINC40611600
REMARK  8 active torsions:
REMARK  status: ('A' for Active; 'I' for Inactive)
REMARK    1  A    between atoms: C_1  and  C_2
REMARK    2  A    between atoms: C_5  and  S_8
REMARK    3  A    between atoms: S_8  and  N_11
REMARK    4  A    between atoms: N_11  and  N_12
REMARK    5  A    between atoms: C_14  and  N_32
REMARK    6  A    between atoms: C_15  and  N_19
REMARK    7  A    between atoms: N_22  and  C_25
REMARK    8  A    between atoms: C_25  and  C_26
REMARK                            x       y       z     vdW  Elec       q    Type
REMARK                         _______ _______ _______ _____ _____    ______ ____
ROOT
ATOM      1  N   UNL     1       2.479  -4.642   1.007  0.00  0.00    -0.244 N 
ATOM      2  C   UNL     1       3.193  -5.597   1.715  0.00  0.00    +0.169 A 
ATOM      3  C   UNL     1       3.951  -5.233   2.824  0.00  0.00    +0.206 A 
ATOM      4  C   UNL     1       4.648  -6.229   3.501  0.00  0.00    +0.157 A 
ATOM      5  N   UNL     1       4.567  -7.485   3.065  0.00  0.00    -0.218 NA
ATOM      6  C   UNL     1       3.839  -7.789   2.010  0.00  0.00    +0.225 A 
ATOM      7  N   UNL     1       3.160  -6.876   1.346  0.00  0.00    -0.217 NA
ATOM      8  H   UNL     1       2.509  -3.712   1.282  0.00  0.00    +0.169 HD
ENDROOT
BRANCH   4   9
ATOM      9  N   UNL     1       5.417  -5.918   4.612  0.00  0.00    -0.317 N 
ATOM     10  C   UNL     1       4.838  -5.940   5.963  0.00  0.00    +0.088 C 
ATOM     11  C   UNL     1       5.748  -6.776   6.869  0.00  0.00    -0.059 C 
ATOM     12  N   UNL     1       7.117  -6.248   6.805  0.00  0.00    +0.384 N 
ATOM     13  C   UNL     1       7.653  -6.411   5.448  0.00  0.00    -0.059 C 
ATOM     14  C   UNL     1       6.838  -5.563   4.472  0.00  0.00    +0.088 C 
ATOM     15  H   UNL     1       7.111  -5.269   7.048  0.00  0.00    -0.081 HD
BRANCH  12  16
ATOM     16  C   UNL     1       7.966  -6.979   7.756  0.00  0.00    -0.043 C 
BRANCH  16  17
ATOM     17  C   UNL     1       9.340  -6.359   7.782  0.00  0.00    -0.064 A 
ATOM     18  C   UNL     1      10.317  -6.807   6.912  0.00  0.00    +0.002 A 
ATOM     19  C   UNL     1      11.576  -6.239   6.936  0.00  0.00    +0.000 A 
ATOM     20  C   UNL     1      11.859  -5.222   7.828  0.00  0.00    +0.000 A 
ATOM     21  C   UNL     1      10.882  -4.773   8.697  0.00  0.00    +0.000 A 
ATOM     22  C   UNL     1       9.621  -5.338   8.670  0.00  0.00    +0.002 A 
ENDBRANCH  16  17
ENDBRANCH  12  16
ENDBRANCH   4   9
BRANCH   3  23
ATOM     23  N   UNL     1       4.013  -3.824   3.273  0.00  0.00    +0.063 N 
ATOM     24  O   UNL     1       3.206  -3.408   4.071  0.00  0.00    -0.126 OA
ATOM     25  O   UNL     1       4.870  -3.089   2.840  0.00  0.00    -0.126 OA
ENDBRANCH   3  23
BRANCH   1  26
ATOM     26  N   UNL     1       1.716  -5.020  -0.105  0.00  0.00    -0.109 NA
ATOM     27  H   UNL     1       2.130  -5.506  -0.835  0.00  0.00    +0.172 HD
BRANCH  26  28
ATOM     28  S   UNL     1       0.106  -4.638  -0.172  0.00  0.00    +0.074 S 
ATOM     29  O   UNL     1      -0.481  -5.139   1.021  0.00  0.00    -0.152 OA
ATOM     30  O   UNL     1      -0.349  -5.021  -1.463  0.00  0.00    -0.152 OA
BRANCH  28  35
ATOM     31  C   UNL     1      -0.317   1.375   0.091  0.00  0.00    +0.044 C 
ATOM     32  C   UNL     1      -0.211  -0.127   0.025  0.00  0.00    -0.050 A 
ATOM     33  C   UNL     1      -0.098  -0.759  -1.199  0.00  0.00    +0.005 A 
ATOM     34  C   UNL     1      -0.001  -2.137  -1.259  0.00  0.00    +0.029 A 
ATOM     35  C   UNL     1      -0.017  -2.882  -0.095  0.00  0.00    +0.107 A 
ATOM     36  C   UNL     1      -0.129  -2.250   1.129  0.00  0.00    +0.029 A 
ATOM     37  C   UNL     1      -0.221  -0.872   1.190  0.00  0.00    +0.005 A 
ENDBRANCH  28  35
ENDBRANCH  26  28
ENDBRANCH   1  26
TORSDOF 7
