REMARK  Name = ZINC05426412
REMARK  5 active torsions:
REMARK  status: ('A' for Active; 'I' for Inactive)
REMARK    1  A    between atoms: C_2  and  C_22
REMARK    2  A    between atoms: C_4  and  O_21
REMARK    3  A    between atoms: C_6  and  O_20
REMARK    4  A    between atoms: C_8  and  N_10
REMARK    5  A    between atoms: C_22  and  O_23
REMARK                            x       y       z     vdW  Elec       q    Type
REMARK                         _______ _______ _______ _____ _____    ______ ____
ROOT
ATOM      1  N   UNL     1       2.244   0.190  -1.832  0.00  0.00    -0.221 N 
ATOM      2  C   UNL     1       3.465  -0.192  -2.316  0.00  0.00    +0.185 A 
ATOM      3  C   UNL     1       3.398  -1.586  -2.481  0.00  0.00    +0.164 A 
ATOM      4  C   UNL     1       4.540  -2.252  -2.975  0.00  0.00    +0.142 A 
ATOM      5  N   UNL     1       5.620  -1.534  -3.260  0.00  0.00    -0.205 NA
ATOM      6  C   UNL     1       5.636  -0.218  -3.088  0.00  0.00    +0.216 A 
ATOM      7  N   UNL     1       4.590   0.447  -2.627  0.00  0.00    -0.193 NA
ATOM      8  N   UNL     1       6.788   0.483  -3.400  0.00  0.00    -0.327 N 
ATOM      9  N   UNL     1       2.173  -1.988  -2.102  0.00  0.00    -0.125 NA
ATOM     10  N   UNL     1       1.476  -0.978  -1.713  0.00  0.00    -0.063 NA
ATOM     11  H   UNL     1       7.566   0.012  -3.739  0.00  0.00    +0.145 HD
ATOM     12  H   UNL     1       6.818   1.445  -3.281  0.00  0.00    +0.145 HD
ATOM     13  S   UNL     1       4.533  -3.998  -3.208  0.00  0.00    -0.028 SA
ENDROOT
BRANCH   1  18
ATOM     14  C   UNL     1       1.431   1.648  -0.003  0.00  0.00    +0.038 C 
ATOM     15  C   UNL     1      -0.013   1.086   0.008  0.00  0.00    +0.048 C 
ATOM     16  C   UNL     1      -0.638   1.625  -1.295  0.00  0.00    +0.150 C 
ATOM     17  C   UNL     1       0.529   1.921  -2.253  0.00  0.00    +0.168 C 
ATOM     18  C   UNL     1       1.823   1.553  -1.498  0.00  0.00    +0.142 C 
BRANCH  17  19
ATOM     19  O   UNL     1       0.409   1.127  -3.434  0.00  0.00    -0.387 OA
ATOM     20  H   UNL     1      -0.386   1.312  -3.953  0.00  0.00    +0.210 HD
ENDBRANCH  17  19
BRANCH  16  21
ATOM     21  O   UNL     1      -1.369   2.823  -1.028  0.00  0.00    -0.389 OA
ATOM     22  H   UNL     1      -1.787   3.211  -1.810  0.00  0.00    +0.210 HD
ENDBRANCH  16  21
BRANCH  15  23
ATOM     23  C   UNL     1      -0.779   1.603   1.227  0.00  0.00    +0.162 C 
BRANCH  23  24
ATOM     24  O   UNL     1      -2.082   1.015   1.255  0.00  0.00    -0.395 OA
ATOM     25  H   UNL     1      -2.625   1.298   2.003  0.00  0.00    +0.209 HD
ENDBRANCH  23  24
ENDBRANCH  15  23
ENDBRANCH   1  18
TORSDOF 5
