REMARK  Name = ZINC08916378
REMARK  16 active torsions:
REMARK  status: ('A' for Active; 'I' for Inactive)
REMARK    1  A    between atoms: C_1  and  C_2
REMARK    2  A    between atoms: C_2  and  O_3
REMARK    3  A    between atoms: O_3  and  C_4
REMARK    4  A    between atoms: C_7  and  C_12
REMARK    5  A    between atoms: C_9  and  O_10
REMARK    6  A    between atoms: O_10  and  C_11
REMARK    7  A    between atoms: C_17  and  C_31
REMARK    8  A    between atoms: C_19  and  C_23
REMARK    9  A    between atoms: C_20  and  C_22
REMARK   10  A    between atoms: C_23  and  O_25
REMARK   11  A    between atoms: O_25  and  C_26
REMARK   12  A    between atoms: C_26  and  C_27
REMARK   13  A    between atoms: C_27  and  S_28
REMARK   14  A    between atoms: S_28  and  C_29
REMARK   15  A    between atoms: C_29  and  C_30
REMARK   16  A    between atoms: C_34  and  C_36
REMARK                            x       y       z     vdW  Elec       q    Type
REMARK                         _______ _______ _______ _____ _____    ______ ____
ROOT
ATOM      1  C   UNL     1      -4.070   2.962   7.188  0.00  0.00    +0.032 C 
ATOM      2  C   UNL     1      -3.091   1.789   7.109  0.00  0.00    +0.059 C 
ATOM      3  C   UNL     1      -2.231   1.928   5.877  0.00  0.00    +0.016 C 
ATOM      4  C   UNL     1      -2.703   2.529   4.764  0.00  0.00    +0.027 C 
ATOM      5  C   UNL     1      -1.833   2.670   3.538  0.00  0.00    +0.128 C 
ATOM      6  C   UNL     1      -0.672   1.721   3.592  0.00  0.00    +0.068 C 
ATOM      7  C   UNL     1      -0.287   1.156   4.749  0.00  0.00    +0.016 C 
ATOM      8  N   UNL     1      -0.958   1.427   5.909  0.00  0.00    -0.321 N 
ATOM      9  C   UNL     1       0.893   0.218   4.768  0.00  0.00    +0.061 C 
ATOM     10  C   UNL     1      -4.008   3.049   4.718  0.00  0.00    +0.162 C 
ATOM     11  O   UNL     1      -4.408   3.568   3.695  0.00  0.00    -0.292 OA
ATOM     12  C   UNL     1      -4.920   2.972   5.912  0.00  0.00    +0.088 C 
ATOM     13  H   UNL     1      -0.465   1.238   6.874  0.00  0.00    +0.152 HD
ENDROOT
BRANCH   1  17
ATOM     14  C   UNL     1      -6.597   2.495  10.606  0.00  0.00    +0.162 A 
ATOM     15  C   UNL     1      -6.586   1.530   9.611  0.00  0.00    +0.050 A 
ATOM     16  C   UNL     1      -5.768   1.684   8.508  0.00  0.00    +0.008 A 
ATOM     17  C   UNL     1      -4.960   2.800   8.393  0.00  0.00    -0.040 A 
ATOM     18  C   UNL     1      -4.962   3.764   9.384  0.00  0.00    +0.053 A 
ATOM     19  C   UNL     1      -5.783   3.618  10.490  0.00  0.00    +0.162 A 
BRANCH  19  20
ATOM     20  O   UNL     1      -5.791   4.567  11.463  0.00  0.00    -0.491 OA
ATOM     21  C   UNL     1      -4.930   5.693  11.278  0.00  0.00    +0.277 C 
ENDBRANCH  19  20
BRANCH  14  22
ATOM     22  O   UNL     1      -7.401   2.345  11.692  0.00  0.00    -0.489 OA
BRANCH  22  24
ATOM     23  C   UNL     1      -9.039   1.173  13.029  0.00  0.00    +0.048 C 
ATOM     24  C   UNL     1      -8.209   1.167  11.744  0.00  0.00    +0.226 C 
ENDBRANCH  22  24
ENDBRANCH  14  22
ENDBRANCH   1  17
BRANCH   5  25
ATOM     25  C   UNL     1      -1.315   4.082   3.451  0.00  0.00    +0.117 A 
ATOM     26  C   UNL     1      -1.554   4.948   2.451  0.00  0.00    +0.046 A 
ATOM     27  C   UNL     1      -0.881   6.148   2.778  0.00  0.00    +0.044 A 
ATOM     28  C   UNL     1      -0.264   5.940   3.955  0.00  0.00    +0.102 A 
ATOM     29  O   UNL     1      -0.530   4.687   4.358  0.00  0.00    -0.464 OA
ATOM     30  C   UNL     1       0.582   6.944   4.696  0.00  0.00    +0.086 C 
ENDBRANCH   5  25
BRANCH   6  31
ATOM     31  C   UNL     1       0.034   1.419   2.404  0.00  0.00    +0.338 C 
ATOM     32  O   UNL     1      -0.461   0.681   1.573  0.00  0.00    -0.245 OA
BRANCH  31  33
ATOM     33  O   UNL     1       1.256   1.951   2.192  0.00  0.00    -0.460 OA
BRANCH  33  34
ATOM     34  C   UNL     1       1.911   1.604   0.970  0.00  0.00    +0.243 C 
BRANCH  34  35
ATOM     35  C   UNL     1       3.274   2.296   0.908  0.00  0.00    +0.110 C 
BRANCH  35  36
ATOM     36  S   UNL     1       4.106   1.856  -0.642  0.00  0.00    -0.158 S 
BRANCH  36  37
ATOM     37  C   UNL     1       5.685   2.745  -0.561  0.00  0.00    +0.066 C 
ATOM     38  C   UNL     1       6.498   2.458  -1.825  0.00  0.00    +0.015 C 
ENDBRANCH  36  37
ENDBRANCH  35  36
ENDBRANCH  34  35
ENDBRANCH  33  34
ENDBRANCH  31  33
ENDBRANCH   6  31
TORSDOF 11
