REMARK  Name = ZINC13596117
REMARK  11 active torsions:
REMARK  status: ('A' for Active; 'I' for Inactive)
REMARK    1  A    between atoms: C_1  and  N_63
REMARK    2  A    between atoms: C_12  and  C_15
REMARK    3  A    between atoms: C_20  and  O_21
REMARK    4  A    between atoms: O_21  and  C_22
REMARK    5  A    between atoms: C_22  and  C_24
REMARK    6  A    between atoms: C_26  and  O_34
REMARK    7  A    between atoms: C_27  and  O_32
REMARK    8  A    between atoms: C_28  and  O_30
REMARK    9  A    between atoms: O_30  and  C_31
REMARK   10  A    between atoms: O_32  and  C_33
REMARK   11  A    between atoms: O_34  and  C_35
REMARK                            x       y       z     vdW  Elec       q    Type
REMARK                         _______ _______ _______ _____ _____    ______ ____
ROOT
ATOM      1  C   UNL     1      -3.991   1.050  -5.621  0.00  0.00    +0.033 A 
ATOM      2  C   UNL     1      -3.288  -0.049  -6.077  0.00  0.00    +0.011 A 
ATOM      3  C   UNL     1      -3.954  -1.224  -6.370  0.00  0.00    +0.001 A 
ATOM      4  C   UNL     1      -5.327  -1.300  -6.217  0.00  0.00    +0.004 A 
ATOM      5  C   UNL     1      -6.034  -0.203  -5.767  0.00  0.00    +0.047 A 
ATOM      6  C   UNL     1      -5.367   0.977  -5.468  0.00  0.00    +0.138 A 
ENDROOT
BRANCH   1  18
ATOM      7  C   UNL     1      -0.187  -0.075   2.233  0.00  0.00    -0.096 C 
ATOM      8  C   UNL     1      -2.158   0.584   0.987  0.00  0.00    -0.074 C 
ATOM      9  C   UNL     1      -2.675   1.614  -0.021  0.00  0.00    +0.018 C 
ATOM     10  C   UNL     1      -1.937   1.401  -1.339  0.00  0.00    -0.027 A 
ATOM     11  C   UNL     1      -0.785   0.692  -1.362  0.00  0.00    -0.021 A 
ATOM     12  S   UNL     1      -0.284   0.689  -3.062  0.00  0.00    -0.080 S 
ATOM     13  C   UNL     1      -1.571   1.607  -3.721  0.00  0.00    +0.080 A 
ATOM     14  C   UNL     1      -2.388   1.912  -2.621  0.00  0.00    +0.068 A 
ATOM     15  C   UNL     1      -3.609   2.711  -2.877  0.00  0.00    +0.248 C 
ATOM     16  O   UNL     1      -4.307   3.111  -1.963  0.00  0.00    -0.270 OA
ATOM     17  N   UNL     1      -3.916   2.976  -4.163  0.00  0.00    -0.289 N 
ATOM     18  C   UNL     1      -3.263   2.329  -5.297  0.00  0.00    +0.194 C 
ATOM     19  N   UNL     1      -1.853   2.021  -4.997  0.00  0.00    -0.316 N 
ATOM     20  C   UNL     1      -0.105   0.061  -0.188  0.00  0.00    -0.036 C 
ATOM     21  H   UNL     1      -4.607   3.632  -4.345  0.00  0.00    +0.151 HD
ATOM     22  H   UNL     1      -1.159   2.106  -5.670  0.00  0.00    +0.149 HD
ATOM     23  N   UNL     1      -0.683   0.651   1.044  0.00  0.00    +0.381 N 
ATOM     24  H   UNL     1      -0.396   1.635   1.109  0.00  0.00    -0.082 HD
ENDBRANCH   1  18
BRANCH   6  25
ATOM     25  O   UNL     1      -6.062   2.058  -5.026  0.00  0.00    -0.422 OA
BRANCH  25  26
ATOM     26  C   UNL     1      -6.461   2.950  -5.954  0.00  0.00    +0.345 C 
ATOM     27  O   UNL     1      -6.117   2.817  -7.112  0.00  0.00    -0.245 OA
BRANCH  26  28
ATOM     28  C   UNL     1      -7.314   4.088  -5.564  0.00  0.00    +0.067 A 
ATOM     29  C   UNL     1      -7.715   4.239  -4.233  0.00  0.00    +0.064 A 
ATOM     30  C   UNL     1      -8.510   5.309  -3.869  0.00  0.00    +0.166 A 
ATOM     31  C   UNL     1      -8.921   6.230  -4.829  0.00  0.00    +0.204 A 
ATOM     32  C   UNL     1      -8.528   6.080  -6.156  0.00  0.00    +0.166 A 
ATOM     33  C   UNL     1      -7.728   5.014  -6.525  0.00  0.00    +0.064 A 
BRANCH  32  34
ATOM     34  O   UNL     1      -8.931   6.981  -7.091  0.00  0.00    -0.491 OA
ATOM     35  C   UNL     1      -8.490   6.766  -8.433  0.00  0.00    +0.277 C 
ENDBRANCH  32  34
BRANCH  31  36
ATOM     36  O   UNL     1      -9.708   7.278  -4.470  0.00  0.00    -0.488 OA
ATOM     37  C   UNL     1     -11.122   7.078  -4.526  0.00  0.00    +0.277 C 
ENDBRANCH  31  36
BRANCH  30  38
ATOM     38  O   UNL     1      -8.896   5.460  -2.574  0.00  0.00    -0.491 OA
ATOM     39  C   UNL     1      -8.437   4.478  -1.642  0.00  0.00    +0.277 C 
ENDBRANCH  30  38
ENDBRANCH  26  28
ENDBRANCH  25  26
ENDBRANCH   6  25
TORSDOF 7
