REMARK  Name = ZINC37263697
REMARK  6 active torsions:
REMARK  status: ('A' for Active; 'I' for Inactive)
REMARK    1  A    between atoms: C_1  and  C_2
REMARK    2  A    between atoms: C_5  and  O_35
REMARK    3  A    between atoms: C_16  and  O_34
REMARK    4  A    between atoms: C_19  and  C_33
REMARK    5  A    between atoms: C_20  and  O_32
REMARK    6  A    between atoms: C_23  and  C_25
REMARK                            x       y       z     vdW  Elec       q    Type
REMARK                         _______ _______ _______ _____ _____    ______ ____
ROOT
ATOM      1  C   UNL     1       0.798   0.291  -0.126  0.00  0.00    +0.012 C 
ATOM      2  C   UNL     1       0.487  -1.211  -0.019  0.00  0.00    -0.024 C 
ATOM      3  C   UNL     1       1.094  -1.950  -1.206  0.00  0.00    +0.010 C 
ATOM      4  C   UNL     1       2.606  -1.747  -1.250  0.00  0.00    +0.032 C 
ATOM      5  C   UNL     1       3.250  -2.237   0.043  0.00  0.00    +0.115 C 
ATOM      6  C   UNL     1       2.626  -1.578   1.264  0.00  0.00    +0.035 C 
ATOM      7  C   UNL     1       1.107  -1.706   1.290  0.00  0.00    -0.002 C 
ATOM      8  C   UNL     1       0.706  -3.132   1.646  0.00  0.00    +0.004 C 
ATOM      9  C   UNL     1      -0.827  -3.249   1.689  0.00  0.00    +0.007 C 
ATOM     10  C   UNL     1      -1.311  -2.894   0.290  0.00  0.00    +0.027 C 
ATOM     11  C   UNL     1      -1.029  -1.411   0.018  0.00  0.00    +0.030 C 
ATOM     12  C   UNL     1      -1.762  -1.006  -1.248  0.00  0.00    +0.119 C 
ATOM     13  C   UNL     1      -3.292  -1.045  -1.038  0.00  0.00    +0.041 C 
ATOM     14  C   UNL     1      -3.678  -2.055   0.004  0.00  0.00    +0.006 C 
ATOM     15  C   UNL     1      -2.727  -3.269  -0.019  0.00  0.00    +0.075 C 
ATOM     16  C   UNL     1      -3.412  -4.226   0.971  0.00  0.00    +0.036 C 
ATOM     17  C   UNL     1      -4.917  -4.064   0.629  0.00  0.00    +0.012 C 
ATOM     18  C   UNL     1      -5.059  -2.717  -0.126  0.00  0.00    +0.031 C 
ATOM     19  C   UNL     1      -3.688  -1.384   1.393  0.00  0.00    +0.015 C 
ENDROOT
BRANCH  18  20
ATOM     20  C   UNL     1      -5.479  -2.951  -1.554  0.00  0.00    -0.009 A 
ATOM     21  C   UNL     1      -6.021  -1.898  -2.309  0.00  0.00    +0.014 A 
ATOM     22  C   UNL     1      -6.395  -2.134  -3.600  0.00  0.00    +0.092 A 
ATOM     23  C   UNL     1      -6.226  -3.424  -4.135  0.00  0.00    +0.337 A 
ATOM     24  O   UNL     1      -6.553  -3.653  -5.287  0.00  0.00    -0.245 OA
ATOM     25  O   UNL     1      -5.703  -4.402  -3.377  0.00  0.00    -0.430 OA
ATOM     26  C   UNL     1      -5.330  -4.172  -2.111  0.00  0.00    +0.203 A 
ENDBRANCH  18  20
BRANCH  15  27
ATOM     27  O   UNL     1      -2.751  -3.890  -1.322  0.00  0.00    -0.388 OA
ATOM     28  H   UNL     1      -2.202  -4.683  -1.390  0.00  0.00    +0.210 HD
ENDBRANCH  15  27
BRANCH  12  29
ATOM     29  O   UNL     1      -1.421   0.312  -1.683  0.00  0.00    -0.391 OA
ATOM     30  H   UNL     1      -1.878   0.590  -2.489  0.00  0.00    +0.210 HD
ENDBRANCH  12  29
BRANCH   5  31
ATOM     31  O   UNL     1       3.154  -3.658   0.133  0.00  0.00    -0.392 OA
ATOM     32  H   UNL     1       3.589  -4.129  -0.591  0.00  0.00    +0.210 HD
ENDBRANCH   5  31
TORSDOF 4
