REMARK  Name = ZINC13064598
REMARK  12 active torsions:
REMARK  status: ('A' for Active; 'I' for Inactive)
REMARK    1  A    between atoms: C_1  and  C_2
REMARK    2  A    between atoms: C_2  and  C_3
REMARK    3  A    between atoms: C_3  and  C_5
REMARK    4  A    between atoms: C_3  and  N_72
REMARK    5  A    between atoms: N_9  and  C_10
REMARK    6  A    between atoms: C_15  and  C_16
REMARK    7  A    between atoms: C_15  and  N_72
REMARK    8  A    between atoms: C_16  and  C_17
REMARK    9  A    between atoms: C_23  and  C_24
REMARK   10  A    between atoms: C_23  and  N_72
REMARK   11  A    between atoms: C_28  and  C_37
REMARK   12  A    between atoms: C_29  and  C_36
REMARK                            x       y       z     vdW  Elec       q    Type
REMARK                         _______ _______ _______ _____ _____    ______ ____
ROOT
ATOM      1  N   UNL     1      -5.234   4.138  -0.992  0.00  0.00    +0.389 N 
ATOM      2  H   UNL     1      -5.676   3.234  -1.194  0.00  0.00    -0.080 HD
ENDROOT
BRANCH   1   3
ATOM      3  C   UNL     1      -4.269   4.452  -2.066  0.00  0.00    +0.003 C 
BRANCH   3   4
ATOM      4  C   UNL     1      -4.134   5.944  -2.232  0.00  0.00    +0.138 A 
ATOM      5  N   UNL     1      -5.082   6.782  -2.574  0.00  0.00    -0.115 NA
ATOM      6  N   UNL     1      -4.573   7.966  -2.607  0.00  0.00    -0.023 NA
ATOM      7  N   UNL     1      -3.326   7.904  -2.294  0.00  0.00    -0.044 NA
ATOM      8  N   UNL     1      -3.019   6.675  -2.050  0.00  0.00    -0.228 N 
BRANCH   8   9
ATOM      9  C   UNL     1      -1.702   6.170  -1.654  0.00  0.00    +0.111 C 
ATOM     10  C   UNL     1      -1.240   6.861  -0.354  0.00  0.00    +0.027 C 
ATOM     11  C   UNL     1       0.286   7.048  -0.546  0.00  0.00    +0.002 C 
ATOM     12  C   UNL     1       0.401   7.405  -2.049  0.00  0.00    +0.002 C 
ATOM     13  C   UNL     1      -0.659   6.515  -2.731  0.00  0.00    +0.027 C 
ENDBRANCH   8   9
ENDBRANCH   3   4
BRANCH   3  15
ATOM     14  C   UNL     1      -4.735   2.312  -3.268  0.00  0.00    +0.002 C 
ATOM     15  C   UNL     1      -4.777   3.838  -3.372  0.00  0.00    -0.011 C 
ENDBRANCH   3  15
ENDBRANCH   1   3
BRANCH   1  16
ATOM     16  C   UNL     1      -6.280   5.181  -0.932  0.00  0.00    -0.073 C 
BRANCH  16  17
ATOM     17  C   UNL     1      -7.184   5.042  -2.158  0.00  0.00    +0.016 C 
BRANCH  17  18
ATOM     18  C   UNL     1      -8.355   5.981  -2.028  0.00  0.00    -0.049 A 
ATOM     19  C   UNL     1      -9.519   5.554  -1.416  0.00  0.00    +0.003 A 
ATOM     20  C   UNL     1     -10.592   6.417  -1.292  0.00  0.00    +0.000 A 
ATOM     21  C   UNL     1     -10.504   7.704  -1.789  0.00  0.00    +0.000 A 
ATOM     22  C   UNL     1      -9.343   8.130  -2.405  0.00  0.00    +0.000 A 
ATOM     23  C   UNL     1      -8.268   7.268  -2.525  0.00  0.00    +0.003 A 
ENDBRANCH  17  18
ENDBRANCH  16  17
ENDBRANCH   1  16
BRANCH   1  24
ATOM     24  C   UNL     1      -4.534   4.050   0.307  0.00  0.00    -0.037 C 
BRANCH  24  25
ATOM     25  C   UNL     1      -3.739   2.770   0.343  0.00  0.00    +0.001 A 
ATOM     26  C   UNL     1      -2.430   2.777  -0.012  0.00  0.00    +0.017 A 
ATOM     27  C   UNL     1      -1.687   1.516   0.029  0.00  0.00    -0.001 A 
ATOM     28  C   UNL     1      -0.340   1.458  -0.341  0.00  0.00    +0.013 A 
ATOM     29  C   UNL     1       0.325   0.266  -0.292  0.00  0.00    -0.047 A 
ATOM     30  C   UNL     1      -0.325  -0.889   0.122  0.00  0.00    -0.046 A 
ATOM     31  C   UNL     1      -1.652  -0.855   0.491  0.00  0.00    +0.030 A 
ATOM     32  C   UNL     1      -2.352   0.347   0.444  0.00  0.00    +0.049 A 
ATOM     33  N   UNL     1      -3.681   0.409   0.802  0.00  0.00    -0.322 N 
ATOM     34  H   UNL     1      -4.136  -0.398   1.092  0.00  0.00    +0.169 HD
ATOM     35  C   UNL     1      -4.356   1.571   0.757  0.00  0.00    +0.251 A 
ATOM     36  O   UNL     1      -5.531   1.588   1.080  0.00  0.00    -0.268 OA
ATOM     37  C   UNL     1       0.428  -2.193   0.168  0.00  0.00    +0.044 C 
ATOM     38  C   UNL     1       1.777   0.203  -0.691  0.00  0.00    +0.044 C 
ENDBRANCH  24  25
ENDBRANCH   1  24
TORSDOF 9
