REMARK  Name = ZINC61361003
REMARK  3 active torsions:
REMARK  status: ('A' for Active; 'I' for Inactive)
REMARK    1  A    between atoms: C_6  and  N_11
REMARK    2  A    between atoms: N_11  and  C_12
REMARK    3  A    between atoms: C_17  and  N_18
REMARK                            x       y       z     vdW  Elec       q    Type
REMARK                         _______ _______ _______ _____ _____    ______ ____
ROOT
ATOM      1  C   UNL     1      -2.656   0.103   1.824  0.00  0.00    +0.050 A 
ATOM      2  C   UNL     1      -2.979   1.160   0.990  0.00  0.00    +0.048 A 
ATOM      3  C   UNL     1      -3.820   2.175   1.441  0.00  0.00    +0.039 A 
ATOM      4  C   UNL     1      -4.326   2.110   2.733  0.00  0.00    -0.016 A 
ATOM      5  C   UNL     1      -4.009   1.060   3.567  0.00  0.00    +0.030 A 
ATOM      6  C   UNL     1      -3.176   0.045   3.117  0.00  0.00    +0.046 A 
ATOM      7  C   UNL     1      -5.189   3.338   2.914  0.00  0.00    +0.133 C 
ATOM      8  C   UNL     1      -5.087   4.060   1.588  0.00  0.00    +0.222 C 
ATOM      9  O   UNL     1      -5.629   5.104   1.292  0.00  0.00    -0.275 OA
ATOM     10  N   UNL     1      -4.284   3.327   0.799  0.00  0.00    -0.285 N 
ATOM     11  H   UNL     1      -4.052   3.569  -0.112  0.00  0.00    +0.155 HD
ENDROOT
BRANCH   6  12
ATOM     12  N   UNL     1      -2.854  -1.028   3.959  0.00  0.00    -0.357 N 
ATOM     13  H   UNL     1      -2.268  -1.734   3.643  0.00  0.00    +0.142 HD
ATOM     14  H   UNL     1      -3.217  -1.065   4.858  0.00  0.00    +0.142 HD
ENDBRANCH   6  12
BRANCH   1  15
ATOM     15  N   UNL     1      -1.810  -0.914   1.365  0.00  0.00    -0.336 N 
ATOM     16  H   UNL     1      -1.587  -1.658   1.947  0.00  0.00    +0.147 HD
BRANCH  15  22
ATOM     17  C   UNL     1      -0.017   1.391   0.010  0.00  0.00    +0.013 A 
ATOM     18  C   UNL     1       1.145   2.084   0.002  0.00  0.00    +0.046 A 
ATOM     19  S   UNL     1       2.356   0.771  -0.016  0.00  0.00    -0.101 S 
ATOM     20  C   UNL     1       1.227  -0.595  -0.012  0.00  0.00    -0.005 A 
ATOM     21  C   UNL     1       0.002  -0.004   0.002  0.00  0.00    -0.017 A 
ATOM     22  C   UNL     1      -1.264  -0.856   0.007  0.00  0.00    +0.101 C 
ATOM     23  C   UNL     1      -0.910  -2.267  -0.467  0.00  0.00    +0.027 C 
ATOM     24  C   UNL     1       0.255  -2.821   0.358  0.00  0.00    +0.007 C 
ATOM     25  C   UNL     1       1.533  -2.058  -0.020  0.00  0.00    +0.043 C 
ENDBRANCH  15  22
ENDBRANCH   1  15
TORSDOF 3
