REMARK  Name = ZINC12032384
REMARK  10 active torsions:
REMARK  status: ('A' for Active; 'I' for Inactive)
REMARK    1  A    between atoms: C_1  and  C_2
REMARK    2  A    between atoms: C_2  and  C_3
REMARK    3  A    between atoms: C_6  and  C_9
REMARK    4  A    between atoms: N_13  and  C_17
REMARK    5  A    between atoms: C_17  and  C_18
REMARK    6  A    between atoms: C_18  and  C_19
REMARK    7  A    between atoms: C_19  and  C_20
REMARK    8  A    between atoms: N_22  and  N_23
REMARK    9  A    between atoms: C_24  and  C_26
REMARK   10  A    between atoms: C_30  and  N_32
REMARK                            x       y       z     vdW  Elec       q    Type
REMARK                         _______ _______ _______ _____ _____    ______ ____
ROOT
ATOM      1  C   UNL     1      -5.716  -4.719  -0.095  0.00  0.00    +0.029 C 
ENDROOT
BRANCH   1   2
ATOM      2  C   UNL     1      -6.910  -5.614   0.241  0.00  0.00    +0.115 C 
BRANCH   2   7
ATOM      3  C   UNL     1      -5.130  -9.875   2.055  0.00  0.00    +0.028 C 
ATOM      4  C   UNL     1      -5.637  -9.027   1.126  0.00  0.00    +0.077 C 
ATOM      5  C   UNL     1      -6.031  -7.608   1.261  0.00  0.00    +0.258 C 
ATOM      6  O   UNL     1      -5.927  -7.012   2.317  0.00  0.00    -0.269 OA
ATOM      7  N   UNL     1      -6.502  -7.019   0.174  0.00  0.00    -0.255 N 
ATOM      8  C   UNL     1      -6.619  -7.684  -0.993  0.00  0.00    +0.121 C 
ATOM      9  S   UNL     1      -7.206  -7.104  -2.493  0.00  0.00    -0.027 S 
ATOM     10  S   UNL     1      -6.012  -9.316  -0.597  0.00  0.00    -0.061 S 
BRANCH   3  14
ATOM     11  C   UNL     1      -4.655 -13.987   1.137  0.00  0.00    -0.048 A 
ATOM     12  C   UNL     1      -4.134 -13.480   2.315  0.00  0.00    +0.004 A 
ATOM     13  C   UNL     1      -4.284 -12.144   2.621  0.00  0.00    +0.008 A 
ATOM     14  C   UNL     1      -4.965 -11.300   1.737  0.00  0.00    -0.024 A 
ATOM     15  C   UNL     1      -5.494 -11.822   0.551  0.00  0.00    +0.008 A 
ATOM     16  C   UNL     1      -5.330 -13.159   0.257  0.00  0.00    +0.004 A 
BRANCH  11  18
ATOM     17  C   UNL     1      -5.670 -16.237   1.376  0.00  0.00    +0.009 C 
ATOM     18  C   UNL     1      -4.487 -15.449   0.811  0.00  0.00    +0.032 C 
ENDBRANCH  11  18
ENDBRANCH   3  14
ENDBRANCH   2   7
ENDBRANCH   1   2
BRANCH   1  19
ATOM     19  C   UNL     1      -6.143  -3.251  -0.025  0.00  0.00    +0.099 C 
BRANCH  19  20
ATOM     20  C   UNL     1      -4.966  -2.370  -0.355  0.00  0.00    +0.229 C 
ATOM     21  O   UNL     1      -3.892  -2.866  -0.621  0.00  0.00    -0.274 OA
ATOM     22  N   UNL     1      -5.108  -1.029  -0.356  0.00  0.00    -0.234 N 
ATOM     23  H   UNL     1      -5.967  -0.632  -0.143  0.00  0.00    +0.173 HD
BRANCH  22  24
ATOM     24  N   UNL     1      -4.014  -0.210  -0.663  0.00  0.00    -0.230 N 
ATOM     25  C   UNL     1      -4.155   1.131  -0.664  0.00  0.00    +0.260 C 
ATOM     26  O   UNL     1      -5.232   1.628  -0.398  0.00  0.00    -0.269 OA
ATOM     27  H   UNL     1      -3.155  -0.607  -0.876  0.00  0.00    +0.173 HD
BRANCH  25  28
ATOM     28  C   UNL     1      -3.001   1.996  -0.988  0.00  0.00    +0.040 A 
ATOM     29  C   UNL     1      -1.763   1.427  -1.294  0.00  0.00    +0.013 A 
ATOM     30  C   UNL     1      -0.692   2.240  -1.602  0.00  0.00    +0.003 A 
ATOM     31  C   UNL     1      -0.841   3.616  -1.603  0.00  0.00    +0.033 A 
ATOM     32  C   UNL     1      -2.063   4.186  -1.295  0.00  0.00    +0.127 A 
ATOM     33  C   UNL     1      -3.143   3.384  -0.985  0.00  0.00    +0.045 A 
BRANCH  32  34
ATOM     34  N   UNL     1      -2.214   5.658  -1.299  0.00  0.00    +0.056 N 
ATOM     35  O   UNL     1      -1.262   6.367  -1.573  0.00  0.00    -0.126 OA
ATOM     36  O   UNL     1      -3.290   6.161  -1.029  0.00  0.00    -0.126 OA
ENDBRANCH  32  34
ENDBRANCH  25  28
ENDBRANCH  22  24
ENDBRANCH  19  20
ENDBRANCH   1  19
TORSDOF 9
