REMARK  Name = ZINC44608454
REMARK  12 active torsions:
REMARK  status: ('A' for Active; 'I' for Inactive)
REMARK    1  A    between atoms: C_1  and  C_2
REMARK    2  A    between atoms: C_2  and  C_3
REMARK    3  A    between atoms: C_2  and  C_4
REMARK    4  A    between atoms: C_8  and  C_28
REMARK    5  A    between atoms: C_9  and  O_10
REMARK    6  A    between atoms: O_10  and  C_11
REMARK    7  A    between atoms: C_13  and  O_27
REMARK    8  A    between atoms: C_15  and  O_26
REMARK    9  A    between atoms: C_17  and  O_25
REMARK   10  A    between atoms: C_19  and  C_22
REMARK   11  A    between atoms: C_28  and  C_29
REMARK   12  A    between atoms: C_28  and  C_30
REMARK                            x       y       z     vdW  Elec       q    Type
REMARK                         _______ _______ _______ _____ _____    ______ ____
ROOT
ATOM      1  C   UNL     1      -0.470  -3.343  -1.952  0.00  0.00    +0.340 C 
ATOM      2  C   UNL     1       0.228  -3.560  -3.297  0.00  0.00    +0.214 C 
ATOM      3  C   UNL     1       1.100  -4.817  -3.213  0.00  0.00    +0.180 C 
ATOM      4  C   UNL     1       2.095  -4.659  -2.059  0.00  0.00    +0.186 C 
ATOM      5  C   UNL     1       1.324  -4.399  -0.762  0.00  0.00    +0.266 C 
ATOM      6  O   UNL     1       0.511  -3.235  -0.919  0.00  0.00    -0.322 OA
ENDROOT
BRANCH   5   7
ATOM      7  C   UNL     1       2.299  -4.184   0.367  0.00  0.00    +0.387 C 
ATOM      8  O   UNL     1       2.366  -3.096   0.915  0.00  0.00    -0.243 OA
ATOM      9  O   UNL     1       3.020  -5.096   0.733  0.00  0.00    -0.243 OA
ENDBRANCH   5   7
BRANCH   4  10
ATOM     10  O   UNL     1       2.966  -3.558  -2.328  0.00  0.00    -0.386 OA
ATOM     11  H   UNL     1       3.624  -3.400  -1.637  0.00  0.00    +0.210 HD
ENDBRANCH   4  10
BRANCH   3  12
ATOM     12  O   UNL     1       1.811  -4.989  -4.440  0.00  0.00    -0.386 OA
ATOM     13  H   UNL     1       2.384  -5.768  -4.457  0.00  0.00    +0.210 HD
ENDBRANCH   3  12
BRANCH   2  14
ATOM     14  O   UNL     1      -0.752  -3.725  -4.323  0.00  0.00    -0.383 OA
ATOM     15  H   UNL     1      -1.343  -2.967  -4.428  0.00  0.00    +0.210 HD
ENDBRANCH   2  14
BRANCH   1  16
ATOM     16  O   UNL     1      -1.241  -2.141  -2.005  0.00  0.00    -0.460 OA
BRANCH  16  22
ATOM     17  C   UNL     1      -1.704  -1.117   0.092  0.00  0.00    -0.003 A 
ATOM     18  C   UNL     1      -2.578  -0.880   1.135  0.00  0.00    +0.007 A 
ATOM     19  C   UNL     1      -3.843  -1.438   1.119  0.00  0.00    +0.001 A 
ATOM     20  C   UNL     1      -4.236  -2.235   0.060  0.00  0.00    +0.007 A 
ATOM     21  C   UNL     1      -3.365  -2.475  -0.986  0.00  0.00    -0.003 A 
ATOM     22  C   UNL     1      -2.097  -1.911  -0.975  0.00  0.00    +0.131 A 
BRANCH  17  24
ATOM     23  C   UNL     1      -0.440   1.016   0.019  0.00  0.00    +0.012 C 
ATOM     24  C   UNL     1      -0.325  -0.507   0.111  0.00  0.00    +0.016 C 
ATOM     25  C   UNL     1       0.384  -0.888   1.412  0.00  0.00    +0.012 C 
ENDBRANCH  17  24
BRANCH  21  26
ATOM     26  C   UNL     1      -3.794  -3.344  -2.140  0.00  0.00    +0.016 C 
ATOM     27  C   UNL     1      -4.145  -4.741  -1.624  0.00  0.00    +0.012 C 
ATOM     28  C   UNL     1      -5.020  -2.726  -2.815  0.00  0.00    +0.012 C 
ENDBRANCH  21  26
ENDBRANCH  16  22
ENDBRANCH   1  16
TORSDOF 8
