REMARK  Name = ZINC09215617
REMARK  11 active torsions:
REMARK  status: ('A' for Active; 'I' for Inactive)
REMARK    1  A    between atoms: C_1  and  C_2
REMARK    2  A    between atoms: C_2  and  C_3
REMARK    3  A    between atoms: C_3  and  C_4
REMARK    4  A    between atoms: C_4  and  N_5
REMARK    5  A    between atoms: N_5  and  C_6
REMARK    6  A    between atoms: C_6  and  C_7
REMARK    7  A    between atoms: C_7  and  C_8
REMARK    8  A    between atoms: C_8  and  C_9
REMARK    9  A    between atoms: C_10  and  C_12
REMARK   10  A    between atoms: C_12  and  S_13
REMARK   11  A    between atoms: S_13  and  C_14
REMARK                            x       y       z     vdW  Elec       q    Type
REMARK                         _______ _______ _______ _____ _____    ______ ____
ROOT
ATOM      1  C   UNL     1       4.625  -3.336   7.556  0.00  0.00    +0.115 A 
ATOM      2  C   UNL     1       4.141  -2.729   6.405  0.00  0.00    +0.072 A 
ATOM      3  C   UNL     1       4.973  -1.937   5.605  0.00  0.00    +0.092 A 
ATOM      4  C   UNL     1       4.345  -1.345   4.409  0.00  0.00    +0.035 A 
ATOM      5  C   UNL     1       4.961  -0.512   3.438  0.00  0.00    -0.029 A 
ATOM      6  C   UNL     1       4.229  -0.059   2.390  0.00  0.00    -0.005 A 
ATOM      7  C   UNL     1       2.874  -0.404   2.286  0.00  0.00    +0.103 A 
ATOM      8  C   UNL     1       2.988  -1.645   4.216  0.00  0.00    +0.089 A 
ATOM      9  S   UNL     1       2.568  -2.688   5.591  0.00  0.00    -0.066 S 
ATOM     10  N   UNL     1       2.125   0.070   1.217  0.00  0.00    -0.312 N 
ATOM     11  C   UNL     1       1.629  -1.039   0.389  0.00  0.00    +0.134 C 
ATOM     12  C   UNL     1       0.860  -0.471  -0.807  0.00  0.00    +0.178 C 
ATOM     13  O   UNL     1      -0.197   0.367  -0.333  0.00  0.00    -0.377 OA
ATOM     14  C   UNL     1       0.251   1.458   0.476  0.00  0.00    +0.178 C 
ATOM     15  C   UNL     1       1.013   0.909   1.685  0.00  0.00    +0.134 C 
ATOM     16  C   UNL     1       4.813   0.820   1.314  0.00  0.00    +0.039 C 
ATOM     17  C   UNL     1       6.120   1.453   1.787  0.00  0.00    +0.005 C 
ATOM     18  C   UNL     1       7.026   0.343   2.335  0.00  0.00    +0.005 C 
ATOM     19  C   UNL     1       6.414  -0.177   3.636  0.00  0.00    +0.036 C 
ATOM     20  N   UNL     1       6.253  -1.808   6.024  0.00  0.00    -0.234 NA
ATOM     21  C   UNL     1       6.676  -2.396   7.115  0.00  0.00    +0.223 A 
ATOM     22  N   UNL     1       5.904  -3.146   7.880  0.00  0.00    -0.228 NA
ATOM     23  N   UNL     1       2.231  -1.199   3.184  0.00  0.00    -0.337 N 
ATOM     24  H   UNL     1       1.239  -1.444   3.087  0.00  0.00    +0.168 HD
ENDROOT
BRANCH   1  25
ATOM     25  S   UNL     1       3.576  -4.333   8.561  0.00  0.00    -0.095 S 
BRANCH  25  26
ATOM     26  C   UNL     1       4.747  -4.817   9.854  0.00  0.00    +0.171 C 
BRANCH  26  28
ATOM     27  N   UNL     1       4.731  -6.185  11.914  0.00  0.00    -0.301 N 
ATOM     28  C   UNL     1       4.050  -5.701  10.856  0.00  0.00    +0.226 C 
ATOM     29  O   UNL     1       2.878  -5.976  10.711  0.00  0.00    -0.275 OA
BRANCH  27  30
ATOM     30  C   UNL     1       4.054  -7.044  12.889  0.00  0.00    +0.108 C 
BRANCH  30  31
ATOM     31  C   UNL     1       4.187  -8.506  12.460  0.00  0.00    +0.019 C 
BRANCH  31  33
ATOM     32  C   UNL     1       3.613 -10.866  13.048  0.00  0.00    +0.004 C 
ATOM     33  C   UNL     1       3.480  -9.403  13.478  0.00  0.00    -0.002 C 
ENDBRANCH  31  33
ENDBRANCH  30  31
ENDBRANCH  27  30
BRANCH  27  34
ATOM     34  C   UNL     1       6.146  -5.852  12.090  0.00  0.00    +0.108 C 
BRANCH  34  35
ATOM     35  C   UNL     1       6.271  -4.573  12.920  0.00  0.00    +0.019 C 
BRANCH  35  36
ATOM     36  C   UNL     1       7.750  -4.226  13.103  0.00  0.00    -0.002 C 
ATOM     37  C   UNL     1       7.874  -2.947  13.933  0.00  0.00    +0.004 C 
ENDBRANCH  35  36
ENDBRANCH  34  35
ENDBRANCH  27  34
ENDBRANCH  26  28
ENDBRANCH  25  26
ENDBRANCH   1  25
TORSDOF 9
