REMARK  Name = ZINC06428130
REMARK  7 active torsions:
REMARK  status: ('A' for Active; 'I' for Inactive)
REMARK    1  A    between atoms: C_1  and  C_2
REMARK    2  A    between atoms: C_5  and  N_9
REMARK    3  A    between atoms: C_7  and  C_8
REMARK    4  A    between atoms: C_12  and  C_13
REMARK    5  A    between atoms: N_14  and  C_15
REMARK    6  A    between atoms: C_21  and  N_50
REMARK    7  A    between atoms: C_23  and  O_27
REMARK                            x       y       z     vdW  Elec       q    Type
REMARK                         _______ _______ _______ _____ _____    ______ ____
ROOT
ATOM      1  N   UNL     1      -1.244   2.067   0.034  0.00  0.00    -0.192 N 
ATOM      2  C   UNL     1      -1.249   3.411   0.162  0.00  0.00    +0.245 C 
ATOM      3  O   UNL     1      -0.213   4.032   0.310  0.00  0.00    -0.274 OA
ATOM      4  C   UNL     1      -2.551   4.100   0.119  0.00  0.00    +0.199 C 
ATOM      5  C   UNL     1      -3.744   3.263  -0.062  0.00  0.00    +0.198 C 
ATOM      6  N   UNL     1      -3.586   1.954  -0.175  0.00  0.00    -0.131 NA
ATOM      7  C   UNL     1      -2.385   1.383  -0.134  0.00  0.00    +0.339 C 
ATOM      8  O   UNL     1      -2.320   0.172  -0.249  0.00  0.00    -0.250 OA
ENDROOT
BRANCH   1  13
ATOM      9  C   UNL     1       3.699  -0.718   0.188  0.00  0.00    +0.044 C 
ATOM     10  C   UNL     1       2.385   0.020   0.146  0.00  0.00    -0.047 A 
ATOM     11  C   UNL     1       1.456  -0.167   1.153  0.00  0.00    +0.005 A 
ATOM     12  C   UNL     1       0.252   0.508   1.117  0.00  0.00    +0.024 A 
ATOM     13  C   UNL     1      -0.025   1.375   0.069  0.00  0.00    +0.046 A 
ATOM     14  C   UNL     1       0.909   1.561  -0.940  0.00  0.00    +0.027 A 
ATOM     15  C   UNL     1       2.112   0.883  -0.899  0.00  0.00    -0.046 A 
ATOM     16  C   UNL     1       3.127   1.084  -1.995  0.00  0.00    +0.044 C 
ENDBRANCH   1  13
BRANCH   4  17
ATOM     17  C   UNL     1      -2.645   5.478   0.244  0.00  0.00    +0.100 C 
ATOM     18  N   UNL     1      -3.853   6.064   0.348  0.00  0.00    -0.293 NA
BRANCH  18  19
ATOM     19  C   UNL     1      -3.961   7.525   0.353  0.00  0.00    +0.090 C 
ATOM     20  C   UNL     1      -3.998   8.039  -1.088  0.00  0.00    +0.025 C 
ATOM     21  C   UNL     1      -4.110   9.565  -1.082  0.00  0.00    +0.002 C 
ATOM     22  C   UNL     1      -5.394   9.979  -0.360  0.00  0.00    -0.001 C 
ATOM     23  C   UNL     1      -5.357   9.465   1.081  0.00  0.00    -0.014 C 
ATOM     24  C   UNL     1      -5.244   7.939   1.075  0.00  0.00    -0.050 C 
BRANCH  24  27
ATOM     25  H   UNL     1      -6.046   7.706   2.957  0.00  0.00    -0.090 HD
ATOM     26  H   UNL     1      -5.070   6.446   2.483  0.00  0.00    -0.090 HD
ATOM     27  N   UNL     1      -5.188   7.458   2.467  0.00  0.00    +0.381 N 
ATOM     28  H   UNL     1      -4.391   7.896   2.944  0.00  0.00    -0.090 HD
ENDBRANCH  24  27
ENDBRANCH  18  19
ENDBRANCH   4  17
BRANCH   5  29
ATOM     29  O   UNL     1      -4.974   3.816  -0.112  0.00  0.00    -0.496 OA
ATOM     30  H   UNL     1      -5.689   3.175  -0.234  0.00  0.00    +0.293 HD
ENDBRANCH   5  29
TORSDOF 5
