REMARK  Name = ZINC40322012
REMARK  12 active torsions:
REMARK  status: ('A' for Active; 'I' for Inactive)
REMARK    1  A    between atoms: C_1  and  C_2
REMARK    2  A    between atoms: C_2  and  N_3
REMARK    3  A    between atoms: N_3  and  C_4
REMARK    4  A    between atoms: N_3  and  C_6
REMARK    5  A    between atoms: C_4  and  C_5
REMARK    6  A    between atoms: C_6  and  C_8
REMARK    7  A    between atoms: C_6  and  C_27
REMARK    8  A    between atoms: C_8  and  N_9
REMARK    9  A    between atoms: C_10  and  C_12
REMARK   10  A    between atoms: C_15  and  S_17
REMARK   11  A    between atoms: S_17  and  C_20
REMARK   12  A    between atoms: C_30  and  C_33
REMARK                            x       y       z     vdW  Elec       q    Type
REMARK                         _______ _______ _______ _____ _____    ______ ____
ROOT
ATOM      1  N   UNL     1      -1.680  -2.421   0.789  0.00  0.00    -0.310 N 
ATOM      2  C   UNL     1      -1.305  -3.459   0.016  0.00  0.00    +0.279 C 
ATOM      3  O   UNL     1      -1.093  -3.289  -1.170  0.00  0.00    -0.267 OA
ATOM      4  H   UNL     1      -1.778  -2.540   1.747  0.00  0.00    +0.149 HD
ENDROOT
BRANCH   2   5
ATOM      5  C   UNL     1      -1.151  -4.794   0.605  0.00  0.00    +0.192 A 
ATOM      6  C   UNL     1      -0.685  -5.905  -0.037  0.00  0.00    +0.056 A 
ATOM      7  C   UNL     1      -0.706  -6.950   0.899  0.00  0.00    +0.070 A 
ATOM      8  C   UNL     1      -1.178  -6.438   2.057  0.00  0.00    +0.246 A 
ATOM      9  O   UNL     1      -1.441  -5.137   1.877  0.00  0.00    -0.433 OA
BRANCH   8  10
ATOM     10  S   UNL     1      -1.406  -7.333   3.557  0.00  0.00    +0.058 S 
ATOM     11  O   UNL     1      -2.393  -6.632   4.302  0.00  0.00    -0.161 OA
ATOM     12  O   UNL     1      -1.552  -8.700   3.197  0.00  0.00    -0.161 OA
BRANCH  10  13
ATOM     13  C   UNL     1       0.096  -7.210   4.471  0.00  0.00    +0.097 A 
ATOM     14  C   UNL     1       1.091  -8.153   4.293  0.00  0.00    +0.029 A 
ATOM     15  C   UNL     1       2.269  -8.057   5.009  0.00  0.00    +0.022 A 
ATOM     16  C   UNL     1       2.453  -7.018   5.903  0.00  0.00    +0.041 A 
ATOM     17  C   UNL     1       1.456  -6.075   6.080  0.00  0.00    +0.022 A 
ATOM     18  C   UNL     1       0.280  -6.168   5.360  0.00  0.00    +0.029 A 
ATOM     19 CL   UNL     1       3.932  -6.898   6.803  0.00  0.00    -0.084 Cl
ENDBRANCH  10  13
ENDBRANCH   8  10
ENDBRANCH   2   5
BRANCH   1  20
ATOM     20  C   UNL     1      -1.940  -1.113   0.183  0.00  0.00    +0.094 C 
BRANCH  20  21
ATOM     21  C   UNL     1      -2.207  -0.084   1.284  0.00  0.00    -0.020 C 
BRANCH  21  22
ATOM     22  C   UNL     1      -2.353   1.284   0.669  0.00  0.00    -0.059 A 
ATOM     23  C   UNL     1      -2.702   1.409  -0.662  0.00  0.00    +0.002 A 
ATOM     24  C   UNL     1      -2.836   2.664  -1.226  0.00  0.00    +0.003 A 
ATOM     25  C   UNL     1      -2.621   3.793  -0.459  0.00  0.00    -0.050 A 
ATOM     26  C   UNL     1      -2.272   3.668   0.873  0.00  0.00    +0.003 A 
ATOM     27  C   UNL     1      -2.142   2.413   1.438  0.00  0.00    +0.002 A 
ATOM     28  C   UNL     1      -2.766   5.162  -1.074  0.00  0.00    +0.044 C 
ENDBRANCH  21  22
BRANCH  21  29
ATOM     29  N   UNL     1      -1.084  -0.078   2.231  0.00  0.00    +0.385 N 
ATOM     30  H   UNL     1      -0.697  -1.008   2.300  0.00  0.00    -0.081 HD
BRANCH  29  32
ATOM     31  C   UNL     1       0.390   0.448   0.347  0.00  0.00    -0.017 C 
ATOM     32  C   UNL     1      -0.048   0.850   1.757  0.00  0.00    -0.081 C 
ENDBRANCH  29  32
BRANCH  29  33
ATOM     33  C   UNL     1      -1.560   0.353   3.553  0.00  0.00    -0.081 C 
ATOM     34  C   UNL     1      -2.476  -0.723   4.140  0.00  0.00    -0.017 C 
ENDBRANCH  29  33
ENDBRANCH  21  29
ENDBRANCH  20  21
ENDBRANCH   1  20
TORSDOF 9
