REMARK  Name = ZINC58915060
REMARK  11 active torsions:
REMARK  status: ('A' for Active; 'I' for Inactive)
REMARK    1  A    between atoms: C_1  and  C_2
REMARK    2  A    between atoms: C_5  and  N_9
REMARK    3  A    between atoms: C_6  and  C_8
REMARK    4  A    between atoms: C_10  and  C_37
REMARK    5  A    between atoms: C_12  and  C_15
REMARK    6  A    between atoms: C_13  and  C_14
REMARK    7  A    between atoms: N_16  and  N_17
REMARK    8  A    between atoms: C_18  and  C_20
REMARK    9  A    between atoms: C_20  and  N_21
REMARK   10  A    between atoms: N_21  and  S_28
REMARK   11  A    between atoms: S_28  and  C_31
REMARK                            x       y       z     vdW  Elec       q    Type
REMARK                         _______ _______ _______ _____ _____    ______ ____
ROOT
ATOM      1  N   UNL     1       3.831  -8.380  -0.043  0.00  0.00    -0.206 N 
ATOM      2  C   UNL     1       5.168  -8.213  -0.042  0.00  0.00    +0.251 C 
ATOM      3  O   UNL     1       5.640  -7.095  -0.035  0.00  0.00    -0.272 OA
ATOM      4  H   UNL     1       3.454  -9.274  -0.048  0.00  0.00    +0.177 HD
ENDROOT
BRANCH   1   6
ATOM      5  C   UNL     1       1.697  -7.425  -0.038  0.00  0.00    +0.140 C 
ATOM      6  N   UNL     1       2.985  -7.264  -0.037  0.00  0.00    -0.188 NA
BRANCH   5  10
ATOM      7  N   UNL     1       0.059  -4.172  -0.021  0.00  0.00    -0.317 N 
ATOM      8  C   UNL     1      -1.050  -4.970  -0.025  0.00  0.00    +0.022 A 
ATOM      9  C   UNL     1      -0.659  -6.258  -0.032  0.00  0.00    +0.032 A 
ATOM     10  C   UNL     1       0.807  -6.250  -0.032  0.00  0.00    +0.016 A 
ATOM     11  C   UNL     1       1.183  -4.937  -0.031  0.00  0.00    +0.030 A 
ATOM     12  C   UNL     1       2.601  -4.425  -0.036  0.00  0.00    +0.064 C 
ATOM     13  C   UNL     1      -2.477  -4.487  -0.022  0.00  0.00    +0.064 C 
BRANCH   7  18
ATOM     14  C   UNL     1      -0.018   1.503   0.010  0.00  0.00    +0.044 C 
ATOM     15  C   UNL     1       0.002  -0.004   0.002  0.00  0.00    -0.050 A 
ATOM     16  C   UNL     1       0.006  -0.688  -1.200  0.00  0.00    +0.005 A 
ATOM     17  C   UNL     1       0.025  -2.068  -1.211  0.00  0.00    +0.026 A 
ATOM     18  C   UNL     1       0.040  -2.771  -0.013  0.00  0.00    +0.049 A 
ATOM     19  C   UNL     1       0.037  -2.082   1.192  0.00  0.00    -0.026 A 
ATOM     20  C   UNL     1       0.023  -0.700   1.196  0.00  0.00    +0.008 A 
ATOM     21  C   UNL     1       0.053  -2.840   2.494  0.00  0.00    +0.046 C 
ENDBRANCH   7  18
ENDBRANCH   5  10
ENDBRANCH   1   6
BRANCH   2  22
ATOM     22  C   UNL     1       6.079  -9.414  -0.048  0.00  0.00    +0.230 C 
BRANCH  22  23
ATOM     23  N   UNL     1       7.474  -8.969  -0.045  0.00  0.00    -0.177 N 
ATOM     24  C   UNL     1       8.104  -8.665   1.156  0.00  0.00    +0.141 A 
ATOM     25  C   UNL     1       7.405  -8.790   2.353  0.00  0.00    +0.045 A 
ATOM     26  C   UNL     1       8.044  -8.484   3.540  0.00  0.00    +0.005 A 
ATOM     27  C   UNL     1       9.366  -8.061   3.492  0.00  0.00    +0.020 A 
ATOM     28  C   UNL     1       9.999  -7.959   2.269  0.00  0.00    +0.113 A 
ATOM     29  N   UNL     1       9.366  -8.263   1.152  0.00  0.00    -0.239 NA
BRANCH  23  30
ATOM     30  S   UNL     1       8.302  -8.829  -1.472  0.00  0.00    +0.076 S 
ATOM     31  O   UNL     1       9.682  -8.942  -1.155  0.00  0.00    -0.150 OA
ATOM     32  O   UNL     1       7.660  -9.694  -2.400  0.00  0.00    -0.150 OA
BRANCH  30  33
ATOM     33  C   UNL     1       8.053  -7.187  -2.060  0.00  0.00    +0.109 A 
ATOM     34  C   UNL     1       6.980  -6.903  -2.884  0.00  0.00    +0.029 A 
ATOM     35  C   UNL     1       6.785  -5.614  -3.345  0.00  0.00    +0.002 A 
ATOM     36  C   UNL     1       7.662  -4.610  -2.981  0.00  0.00    +0.000 A 
ATOM     37  C   UNL     1       8.734  -4.894  -2.156  0.00  0.00    +0.002 A 
ATOM     38  C   UNL     1       8.927  -6.181  -1.692  0.00  0.00    +0.029 A 
ENDBRANCH  30  33
ENDBRANCH  23  30
ENDBRANCH  22  23
ENDBRANCH   2  22
TORSDOF 7
