REMARK  Name = ZINC59714882
REMARK  6 active torsions:
REMARK  status: ('A' for Active; 'I' for Inactive)
REMARK    1  A    between atoms: C_1  and  C_2
REMARK    2  A    between atoms: C_6  and  N_8
REMARK    3  A    between atoms: C_9  and  C_11
REMARK    4  A    between atoms: C_11  and  O_12
REMARK    5  A    between atoms: O_12  and  C_13
REMARK    6  A    between atoms: N_24  and  C_26
REMARK                            x       y       z     vdW  Elec       q    Type
REMARK                         _______ _______ _______ _____ _____    ______ ____
ROOT
ATOM      1  C   UNL     1      -0.045   1.513   0.028  0.00  0.00    +0.044 C 
ATOM      2  C   UNL     1      -0.019   0.006   0.013  0.00  0.00    -0.047 A 
ATOM      3  C   UNL     1      -0.020  -0.644  -1.181  0.00  0.00    +0.035 A 
ATOM      4  C   UNL     1       0.004  -2.050  -1.208  0.00  0.00    +0.115 A 
ATOM      5  C   UNL     1       0.029  -2.782   0.067  0.00  0.00    +0.134 A 
ATOM      6  C   UNL     1       0.028  -2.048   1.272  0.00  0.00    +0.063 A 
ATOM      7  C   UNL     1       0.010  -0.683   1.224  0.00  0.00    +0.029 A 
ATOM      8  N   UNL     1       0.047  -4.059  -0.278  0.00  0.00    -0.145 NA
ATOM      9  N   UNL     1       0.036  -4.143  -1.563  0.00  0.00    -0.149 N 
ATOM     10  N   UNL     1       0.011  -2.991  -2.138  0.00  0.00    -0.147 NA
ENDROOT
BRANCH   9  11
ATOM     11  C   UNL     1       0.051  -5.358  -2.261  0.00  0.00    +0.086 A 
ATOM     12  C   UNL     1       0.073  -6.560  -1.565  0.00  0.00    +0.029 A 
ATOM     13  C   UNL     1       0.087  -7.755  -2.256  0.00  0.00    +0.002 A 
ATOM     14  C   UNL     1       0.079  -7.757  -3.639  0.00  0.00    +0.000 A 
ATOM     15  C   UNL     1       0.058  -6.562  -4.334  0.00  0.00    +0.002 A 
ATOM     16  C   UNL     1       0.037  -5.363  -3.649  0.00  0.00    +0.029 A 
ENDBRANCH   9  11
BRANCH   6  17
ATOM     17  N   UNL     1       0.051  -2.710   2.501  0.00  0.00    -0.281 N 
ATOM     18  C   UNL     1       0.723  -2.178   3.541  0.00  0.00    +0.255 C 
ATOM     19  O   UNL     1       1.238  -1.085   3.434  0.00  0.00    -0.272 OA
ATOM     20  H   UNL     1      -0.417  -3.554   2.606  0.00  0.00    +0.155 HD
BRANCH  18  21
ATOM     21  C   UNL     1       0.834  -2.940   4.836  0.00  0.00    +0.324 C 
BRANCH  21  22
ATOM     22  O   UNL     1       1.587  -2.173   5.777  0.00  0.00    -0.482 OA
BRANCH  22  23
ATOM     23  C   UNL     1       1.781  -2.721   7.005  0.00  0.00    +0.129 A 
ATOM     24  C   UNL     1       1.271  -3.955   7.296  0.00  0.00    +0.046 A 
ATOM     25  C   UNL     1       1.462  -4.530   8.549  0.00  0.00    +0.004 A 
ATOM     26  C   UNL     1       2.160  -3.881   9.521  0.00  0.00    +0.009 A 
ATOM     27  C   UNL     1       2.701  -2.610   9.261  0.00  0.00    -0.014 A 
ATOM     28  C   UNL     1       2.515  -2.023   7.986  0.00  0.00    +0.024 A 
ATOM     29  C   UNL     1       3.059  -0.755   7.725  0.00  0.00    +0.012 A 
ATOM     30  C   UNL     1       3.761  -0.110   8.697  0.00  0.00    +0.001 A 
ATOM     31  C   UNL     1       3.949  -0.690   9.950  0.00  0.00    +0.001 A 
ATOM     32  C   UNL     1       3.428  -1.913  10.242  0.00  0.00    +0.008 A 
ENDBRANCH  22  23
ENDBRANCH  21  22
ENDBRANCH  18  21
ENDBRANCH   6  17
TORSDOF 5
