REMARK  Name = ZINC52011275
REMARK  3 active torsions:
REMARK  status: ('A' for Active; 'I' for Inactive)
REMARK    1  A    between atoms: C_4  and  O_21
REMARK    2  A    between atoms: C_6  and  N_9
REMARK    3  A    between atoms: C_15  and  C_18
REMARK                            x       y       z     vdW  Elec       q    Type
REMARK                         _______ _______ _______ _____ _____    ______ ____
ROOT
ATOM      1  N   UNL     1       0.738  -1.962  -1.266  0.00  0.00    -0.294 N 
ATOM      2  C   UNL     1      -0.315  -2.648  -1.752  0.00  0.00    +0.302 C 
ATOM      3  O   UNL     1      -1.318  -2.055  -2.099  0.00  0.00    -0.253 OA
ATOM      4  N   UNL     1      -0.257  -3.991  -1.853  0.00  0.00    -0.286 N 
ATOM      5  C   UNL     1       0.900  -4.731  -1.330  0.00  0.00    +0.110 C 
ATOM      6  C   UNL     1       1.461  -5.619  -2.446  0.00  0.00    +0.034 C 
ATOM      7  C   UNL     1       0.344  -6.507  -2.997  0.00  0.00    +0.105 C 
ATOM      8  C   UNL     1      -0.762  -5.629  -3.589  0.00  0.00    +0.034 C 
ATOM      9  C   UNL     1      -1.351  -4.742  -2.482  0.00  0.00    +0.110 C 
ATOM     10  H   UNL     1       1.510  -2.439  -0.920  0.00  0.00    +0.151 HD
ENDROOT
BRANCH   1  15
ATOM     11  C   UNL     1      -0.017   1.527   0.007  0.00  0.00    +0.002 C 
ATOM     12  C   UNL     1       1.419   2.056  -0.005  0.00  0.00    +0.003 C 
ATOM     13  C   UNL     1       2.134   1.562  -1.264  0.00  0.00    +0.033 C 
ATOM     14  C   UNL     1       2.155   0.032  -1.271  0.00  0.00    +0.135 C 
ATOM     15  C   UNL     1       0.719  -0.497  -1.259  0.00  0.00    +0.103 C 
ATOM     16  C   UNL     1       0.003  -0.003  -0.001  0.00  0.00    +0.025 C 
BRANCH  14  17
ATOM     17  O   UNL     1       2.823  -0.430  -2.446  0.00  0.00    -0.390 OA
ATOM     18  H   UNL     1       3.740  -0.133  -2.520  0.00  0.00    +0.210 HD
ENDBRANCH  14  17
ENDBRANCH   1  15
BRANCH   7  19
ATOM     19  C   UNL     1       0.900  -7.405  -4.071  0.00  0.00    +0.359 C 
ATOM     20  O   UNL     1       0.536  -8.567  -4.143  0.00  0.00    -0.246 OA
ATOM     21  O   UNL     1       1.714  -6.971  -4.868  0.00  0.00    -0.246 OA
ENDBRANCH   7  19
TORSDOF 3
