REMARK  Name = ZINC43736440
REMARK  9 active torsions:
REMARK  status: ('A' for Active; 'I' for Inactive)
REMARK    1  A    between atoms: C_1  and  C_2
REMARK    2  A    between atoms: C_2  and  O_3
REMARK    3  A    between atoms: O_3  and  C_4
REMARK    4  A    between atoms: N_6  and  N_7
REMARK    5  A    between atoms: C_8  and  C_9
REMARK    6  A    between atoms: C_8  and  C_10
REMARK    7  A    between atoms: C_15  and  C_33
REMARK    8  A    between atoms: C_25  and  C_32
REMARK    9  A    between atoms: C_28  and  O_31
REMARK                            x       y       z     vdW  Elec       q    Type
REMARK                         _______ _______ _______ _____ _____    ______ ____
ROOT
ATOM      1  C   UNL     1       2.700  -3.425   4.431  0.00  0.00    -0.023 C 
ATOM      2  C   UNL     1       3.130  -4.052   5.530  0.00  0.00    -0.021 C 
ATOM      3  C   UNL     1       3.105  -5.554   5.315  0.00  0.00    +0.032 C 
ATOM      4  C   UNL     1       2.047  -5.730   4.179  0.00  0.00    +0.007 C 
ATOM      5  C   UNL     1       2.343  -4.446   3.382  0.00  0.00    -0.002 C 
ATOM      6  C   UNL     1       1.208  -4.016   2.487  0.00  0.00    +0.012 C 
ATOM      7  C   UNL     1      -0.110  -3.922   3.255  0.00  0.00    +0.005 C 
ATOM      8  C   UNL     1      -0.413  -5.300   3.855  0.00  0.00    +0.003 C 
ATOM      9  C   UNL     1       0.678  -5.660   4.857  0.00  0.00    +0.001 C 
ATOM     10  C   UNL     1       0.698  -4.566   5.930  0.00  0.00    +0.031 C 
ATOM     11  C   UNL     1      -0.671  -4.452   6.537  0.00  0.00    -0.027 C 
ATOM     12  C   UNL     1      -1.758  -4.787   5.905  0.00  0.00    -0.065 C 
ATOM     13  C   UNL     1      -1.774  -5.283   4.531  0.00  0.00    -0.008 C 
ATOM     14  C   UNL     1      -2.767  -4.474   3.692  0.00  0.00    +0.014 C 
ATOM     15  C   UNL     1      -4.123  -4.441   4.401  0.00  0.00    +0.032 C 
ATOM     16  C   UNL     1      -3.985  -3.730   5.748  0.00  0.00    +0.119 C 
ATOM     17  C   UNL     1      -3.087  -4.619   6.623  0.00  0.00    +0.062 C 
ATOM     18  C   UNL     1      -2.291  -6.721   4.606  0.00  0.00    +0.016 C 
ATOM     19  C   UNL     1       3.573  -4.695   2.507  0.00  0.00    +0.016 C 
ENDROOT
BRANCH   1  21
ATOM     20  N   UNL     1       3.654  -1.254   4.077  0.00  0.00    -0.182 NA
ATOM     21  C   UNL     1       2.587  -1.971   4.272  0.00  0.00    +0.060 C 
ATOM     22  C   UNL     1       1.235  -1.309   4.336  0.00  0.00    +0.067 C 
BRANCH  20  25
ATOM     23  C   UNL     1       5.985  -1.144   3.607  0.00  0.00    +0.420 C 
ATOM     24  O   UNL     1       7.063  -1.685   3.464  0.00  0.00    -0.225 OA
ATOM     25  N   UNL     1       4.897  -1.879   3.912  0.00  0.00    -0.172 N 
ATOM     26  H   UNL     1       4.975  -2.840   4.017  0.00  0.00    +0.181 HD
BRANCH  23  27
ATOM     27  O   UNL     1       5.877   0.191   3.461  0.00  0.00    -0.450 OA
BRANCH  27  29
ATOM     28  C   UNL     1       6.752   2.398   3.013  0.00  0.00    +0.048 C 
ATOM     29  C   UNL     1       7.070   0.907   3.138  0.00  0.00    +0.230 C 
ENDBRANCH  27  29
ENDBRANCH  23  27
ENDBRANCH  20  25
ENDBRANCH   1  21
BRANCH  16  30
ATOM     30  O   UNL     1      -3.447  -2.422   5.543  0.00  0.00    -0.391 OA
ATOM     31  H   UNL     1      -3.332  -1.912   6.357  0.00  0.00    +0.210 HD
ENDBRANCH  16  30
TORSDOF 5
