REMARK  Name = ZINC35646309
REMARK  15 active torsions:
REMARK  status: ('A' for Active; 'I' for Inactive)
REMARK    1  A    between atoms: C_1  and  C_2
REMARK    2  A    between atoms: C_2  and  O_3
REMARK    3  A    between atoms: O_3  and  C_4
REMARK    4  A    between atoms: C_4  and  C_6
REMARK    5  A    between atoms: C_7  and  C_23
REMARK    6  A    between atoms: N_8  and  C_22
REMARK    7  A    between atoms: C_12  and  C_14
REMARK    8  A    between atoms: C_16  and  C_21
REMARK    9  A    between atoms: C_19  and  C_20
REMARK   10  A    between atoms: C_23  and  N_24
REMARK   11  A    between atoms: C_28  and  C_31
REMARK   12  A    between atoms: C_32  and  C_34
REMARK   13  A    between atoms: C_34  and  C_35
REMARK   14  A    between atoms: C_35  and  C_36
REMARK   15  A    between atoms: C_35  and  C_37
REMARK                            x       y       z     vdW  Elec       q    Type
REMARK                         _______ _______ _______ _____ _____    ______ ____
ROOT
ATOM      1  C   UNL     1       1.249  -3.229   2.853  0.00  0.00    +0.080 C 
ATOM      2  C   UNL     1       1.597  -4.513   3.086  0.00  0.00    +0.041 C 
ATOM      3  N   UNL     1       2.555  -4.828   4.006  0.00  0.00    -0.260 N 
ATOM      4  C   UNL     1       3.211  -3.917   4.736  0.00  0.00    +0.307 C 
ATOM      5  O   UNL     1       4.049  -4.294   5.532  0.00  0.00    -0.252 OA
ATOM      6  N   UNL     1       2.974  -2.596   4.617  0.00  0.00    -0.288 N 
ATOM      7  C   UNL     1       1.961  -2.151   3.644  0.00  0.00    +0.144 C 
ATOM      8  C   UNL     1       2.884  -6.241   4.207  0.00  0.00    +0.139 C 
ATOM      9  H   UNL     1       3.460  -1.953   5.156  0.00  0.00    +0.151 HD
ENDROOT
BRANCH   7  10
ATOM     10  C   UNL     1       0.920  -1.361   4.394  0.00  0.00    -0.019 A 
ATOM     11  C   UNL     1       0.578  -1.718   5.685  0.00  0.00    +0.009 A 
ATOM     12  C   UNL     1      -0.377  -0.993   6.373  0.00  0.00    -0.050 A 
ATOM     13  C   UNL     1      -0.991   0.090   5.769  0.00  0.00    +0.003 A 
ATOM     14  C   UNL     1      -0.648   0.447   4.479  0.00  0.00    +0.004 A 
ATOM     15  C   UNL     1       0.310  -0.276   3.793  0.00  0.00    -0.045 A 
ATOM     16  C   UNL     1       0.687   0.117   2.387  0.00  0.00    +0.044 C 
ATOM     17  C   UNL     1      -0.751  -1.382   7.780  0.00  0.00    +0.044 C 
ENDBRANCH   7  10
BRANCH   1  18
ATOM     18  C   UNL     1       0.257  -2.902   1.899  0.00  0.00    +0.339 C 
ATOM     19  O   UNL     1       0.581  -2.559   0.778  0.00  0.00    -0.245 OA
BRANCH  18  20
ATOM     20  O   UNL     1      -1.049  -2.971   2.233  0.00  0.00    -0.462 OA
BRANCH  20  22
ATOM     21  C   UNL     1      -3.412  -2.946   1.728  0.00  0.00    +0.048 C 
ATOM     22  C   UNL     1      -1.998  -2.700   1.199  0.00  0.00    +0.229 C 
ENDBRANCH  20  22
ENDBRANCH  18  20
ENDBRANCH   1  18
BRANCH   2  23
ATOM     23  C   UNL     1       0.917  -5.617   2.317  0.00  0.00    +0.136 C 
BRANCH  23  24
ATOM     24  N   UNL     1       1.905  -6.309   1.477  0.00  0.00    -0.294 NA
ATOM     25  C   UNL     1       2.427  -5.416   0.434  0.00  0.00    +0.104 C 
ATOM     26  C   UNL     1       3.577  -6.112  -0.301  0.00  0.00    +0.123 C 
ATOM     27  N   UNL     1       3.102  -7.419  -0.781  0.00  0.00    -0.296 N 
ATOM     28  C   UNL     1       2.442  -8.316   0.181  0.00  0.00    +0.087 C 
ATOM     29  C   UNL     1       1.337  -7.532   0.896  0.00  0.00    +0.107 C 
ATOM     30  C   UNL     1       1.835  -9.508  -0.562  0.00  0.00    +0.029 C 
ATOM     31  C   UNL     1       3.268  -7.785  -2.067  0.00  0.00    +0.216 C 
ATOM     32  O   UNL     1       2.798  -8.830  -2.465  0.00  0.00    -0.276 OA
BRANCH  31  33
ATOM     33  C   UNL     1       4.037  -6.897  -3.011  0.00  0.00    +0.099 C 
BRANCH  33  34
ATOM     34  C   UNL     1       4.077  -7.540  -4.398  0.00  0.00    -0.008 C 
ATOM     35  C   UNL     1       4.748  -6.583  -5.385  0.00  0.00    +0.008 C 
ATOM     36  C   UNL     1       4.872  -8.845  -4.333  0.00  0.00    +0.008 C 
ENDBRANCH  33  34
ENDBRANCH  31  33
ENDBRANCH  23  24
ENDBRANCH   2  23
TORSDOF 8
