REMARK  Name = ZINC35454669
REMARK  15 active torsions:
REMARK  status: ('A' for Active; 'I' for Inactive)
REMARK    1  A    between atoms: C_1  and  C_2
REMARK    2  A    between atoms: C_5  and  O_35
REMARK    3  A    between atoms: C_8  and  C_33
REMARK    4  A    between atoms: C_8  and  C_34
REMARK    5  A    between atoms: C_9  and  C_10
REMARK    6  A    between atoms: C_9  and  O_32
REMARK    7  A    between atoms: C_11  and  C_12
REMARK    8  A    between atoms: C_12  and  C_14
REMARK    9  A    between atoms: C_12  and  O_15
REMARK   10  A    between atoms: O_15  and  C_16
REMARK   11  A    between atoms: C_18  and  O_31
REMARK   12  A    between atoms: C_20  and  O_30
REMARK   13  A    between atoms: C_22  and  O_29
REMARK   14  A    between atoms: C_24  and  C_27
REMARK   15  A    between atoms: C_27  and  O_28
REMARK                            x       y       z     vdW  Elec       q    Type
REMARK                         _______ _______ _______ _____ _____    ______ ____
ROOT
ATOM      1  C   UNL     1       4.446   0.617   1.486  0.00  0.00    +0.141 C 
ATOM      2  C   UNL     1       5.258   0.071   2.662  0.00  0.00    +0.042 C 
ENDROOT
BRANCH   1   4
ATOM      3  C   UNL     1       2.027   0.298   1.375  0.00  0.00    +0.006 C 
ATOM      4  C   UNL     1       3.220  -0.236   1.283  0.00  0.00    +0.002 C 
BRANCH   3  11
ATOM      5  C   UNL     1      -0.019   1.524   0.010  0.00  0.00    +0.011 C 
ATOM      6  C   UNL     1       0.002  -0.004   0.002  0.00  0.00    +0.024 C 
ATOM      7  C   UNL     1      -1.410  -0.562  -0.086  0.00  0.00    +0.037 C 
ATOM      8  C   UNL     1      -2.137  -0.413   1.249  0.00  0.00    +0.116 C 
ATOM      9  C   UNL     1      -1.373  -1.192   2.317  0.00  0.00    +0.040 C 
ATOM     10  C   UNL     1       0.037  -0.640   2.487  0.00  0.00    +0.000 C 
ATOM     11  C   UNL     1       0.794  -0.561   1.171  0.00  0.00    +0.092 C 
ATOM     12  C   UNL     1       0.808  -1.598   3.421  0.00  0.00    +0.014 C 
ATOM     13  C   UNL     1      -0.013   0.728   3.174  0.00  0.00    +0.014 C 
BRANCH  11  14
ATOM     14  O   UNL     1       1.244  -1.885   0.828  0.00  0.00    -0.384 OA
ATOM     15  H   UNL     1       1.812  -1.918   0.046  0.00  0.00    +0.211 HD
ENDBRANCH  11  14
BRANCH   8  16
ATOM     16  O   UNL     1      -3.458  -0.956   1.126  0.00  0.00    -0.392 OA
ATOM     17  H   UNL     1      -4.000  -0.524   0.452  0.00  0.00    +0.210 HD
ENDBRANCH   8  16
ENDBRANCH   3  11
ENDBRANCH   1   4
BRANCH   1  18
ATOM     18  O   UNL     1       5.245   0.592   0.302  0.00  0.00    -0.342 OA
BRANCH  18  19
ATOM     19  C   UNL     1       5.998   1.786   0.084  0.00  0.00    +0.282 C 
ATOM     20  C   UNL     1       6.614   1.753  -1.318  0.00  0.00    +0.201 C 
ATOM     21  C   UNL     1       7.469   3.008  -1.521  0.00  0.00    +0.179 C 
ATOM     22  C   UNL     1       8.532   3.072  -0.421  0.00  0.00    +0.177 C 
ATOM     23  C   UNL     1       7.842   3.055   0.946  0.00  0.00    +0.178 C 
ATOM     24  O   UNL     1       7.040   1.878   1.058  0.00  0.00    -0.341 OA
BRANCH  22  25
ATOM     25  O   UNL     1       9.403   1.945  -0.532  0.00  0.00    -0.386 OA
ATOM     26  H   UNL     1       9.871   1.891  -1.377  0.00  0.00    +0.210 HD
ENDBRANCH  22  25
BRANCH  21  27
ATOM     27  O   UNL     1       8.104   2.951  -2.800  0.00  0.00    -0.386 OA
ATOM     28  H   UNL     1       7.489   2.902  -3.544  0.00  0.00    +0.210 HD
ENDBRANCH  21  27
BRANCH  20  29
ATOM     29  O   UNL     1       7.433   0.590  -1.452  0.00  0.00    -0.384 OA
ATOM     30  H   UNL     1       6.956  -0.243  -1.331  0.00  0.00    +0.210 HD
ENDBRANCH  20  29
BRANCH  23  31
ATOM     31  C   UNL     1       8.900   3.059   2.051  0.00  0.00    +0.190 C 
BRANCH  31  32
ATOM     32  O   UNL     1       8.258   3.160   3.324  0.00  0.00    -0.392 OA
ATOM     33  H   UNL     1       8.870   3.168   4.073  0.00  0.00    +0.210 HD
ENDBRANCH  31  32
ENDBRANCH  23  31
ENDBRANCH  18  19
ENDBRANCH   1  18
TORSDOF 11
