REMARK  Name = ZINC55405268
REMARK  9 active torsions:
REMARK  status: ('A' for Active; 'I' for Inactive)
REMARK    1  A    between atoms: C_1  and  C_2
REMARK    2  A    between atoms: N_7  and  C_9
REMARK    3  A    between atoms: C_9  and  C_10
REMARK    4  A    between atoms: C_10  and  C_12
REMARK    5  A    between atoms: C_10  and  N_13
REMARK    6  A    between atoms: C_14  and  C_16
REMARK    7  A    between atoms: C_16  and  C_17
REMARK    8  A    between atoms: C_17  and  C_19
REMARK    9  A    between atoms: C_17  and  N_24
REMARK                            x       y       z     vdW  Elec       q    Type
REMARK                         _______ _______ _______ _____ _____    ______ ____
ROOT
ATOM      1  N   UNL     1      -0.082  -4.397   2.396  0.00  0.00    -0.314 N 
ATOM      2  C   UNL     1      -0.388  -5.622   1.923  0.00  0.00    +0.215 C 
ATOM      3  O   UNL     1       0.497  -6.386   1.600  0.00  0.00    -0.276 OA
ATOM      4  H   UNL     1      -0.789  -3.786   2.655  0.00  0.00    +0.149 HD
ENDROOT
BRANCH   1   5
ATOM      5  C   UNL     1       1.320  -3.989   2.519  0.00  0.00    +0.053 C 
ATOM      6  C   UNL     1       1.879  -4.484   3.854  0.00  0.00    +0.026 C 
BRANCH   5   7
ATOM      7  C   UNL     1       1.413  -2.463   2.461  0.00  0.00    -0.057 C 
BRANCH   7  13
ATOM      8  C   UNL     1      -0.019   1.526   0.010  0.00  0.00    +0.005 C 
ATOM      9  C   UNL     1       0.002  -0.004   0.002  0.00  0.00    -0.031 C 
ATOM     10  C   UNL     1       0.721  -0.499  -1.257  0.00  0.00    -0.001 C 
ATOM     11  C   UNL     1       0.805  -2.027  -1.217  0.00  0.00    -0.018 C 
ATOM     12  C   UNL     1       1.518  -2.460   0.066  0.00  0.00    -0.079 C 
ATOM     13  N   UNL     1       0.768  -1.979   1.233  0.00  0.00    +0.381 N 
ATOM     14  C   UNL     1       0.744  -0.512   1.240  0.00  0.00    -0.076 C 
ATOM     15  H   UNL     1      -0.177  -2.330   1.192  0.00  0.00    -0.082 HD
ENDBRANCH   7  13
ENDBRANCH   5   7
ENDBRANCH   1   5
BRANCH   2  16
ATOM     16  C   UNL     1      -1.830  -6.042   1.797  0.00  0.00    +0.123 C 
BRANCH  16  17
ATOM     17  C   UNL     1      -1.899  -7.465   1.240  0.00  0.00    +0.120 C 
BRANCH  17  18
ATOM     18  N   UNL     1      -1.370  -7.481  -0.126  0.00  0.00    -0.292 N 
ATOM     19  C   UNL     1      -0.861  -8.619  -0.638  0.00  0.00    +0.298 C 
ATOM     20  O   UNL     1      -0.841  -9.633   0.034  0.00  0.00    -0.253 OA
ATOM     21  N   UNL     1      -0.373  -8.634  -1.894  0.00  0.00    -0.313 N 
ATOM     22  H   UNL     1      -1.385  -6.673  -0.662  0.00  0.00    +0.151 HD
ATOM     23  H   UNL     1      -0.389  -7.826  -2.430  0.00  0.00    +0.146 HD
ATOM     24  H   UNL     1      -0.007  -9.454  -2.263  0.00  0.00    +0.146 HD
ENDBRANCH  17  18
BRANCH  17  25
ATOM     25  C   UNL     1      -3.333  -7.930   1.228  0.00  0.00    +0.010 A 
ATOM     26  C   UNL     1      -3.978  -8.730   2.112  0.00  0.00    +0.013 A 
ATOM     27  C   UNL     1      -5.311  -9.027   1.898  0.00  0.00    +0.008 A 
ATOM     28  C   UNL     1      -5.934  -8.510   0.811  0.00  0.00    +0.045 A 
ATOM     29  S   UNL     1      -4.624  -7.564   0.051  0.00  0.00    -0.100 S 
ENDBRANCH  17  25
ENDBRANCH  16  17
ENDBRANCH   2  16
TORSDOF 7
