REMARK  Name = ZINC43737285
REMARK  8 active torsions:
REMARK  status: ('A' for Active; 'I' for Inactive)
REMARK    1  A    between atoms: C_1  and  C_2
REMARK    2  A    between atoms: C_2  and  C_8
REMARK    3  A    between atoms: N_3  and  N_4
REMARK    4  A    between atoms: N_4  and  C_5
REMARK    5  A    between atoms: C_5  and  N_7
REMARK    6  A    between atoms: C_14  and  C_33
REMARK    7  A    between atoms: C_25  and  C_32
REMARK    8  A    between atoms: C_28  and  O_31
REMARK                            x       y       z     vdW  Elec       q    Type
REMARK                         _______ _______ _______ _____ _____    ______ ____
ROOT
ATOM      1  C   UNL     1      -0.242  -0.901  -1.383  0.00  0.00    +0.041 C 
ATOM      2  C   UNL     1      -1.560  -0.926  -2.196  0.00  0.00    +0.010 C 
ATOM      3  C   UNL     1      -1.935  -2.422  -2.377  0.00  0.00    +0.005 C 
ATOM      4  C   UNL     1      -0.585  -3.134  -2.234  0.00  0.00    -0.001 C 
ATOM      5  C   UNL     1       0.055  -2.360  -1.048  0.00  0.00    -0.021 C 
ATOM      6  C   UNL     1       1.517  -2.755  -0.982  0.00  0.00    +0.008 C 
ATOM      7  C   UNL     1       1.571  -4.255  -0.646  0.00  0.00    +0.005 C 
ATOM      8  C   UNL     1       0.809  -5.082  -1.676  0.00  0.00    -0.001 C 
ATOM      9  C   UNL     1      -0.646  -4.600  -1.849  0.00  0.00    -0.004 C 
ATOM     10  C   UNL     1      -1.333  -5.411  -2.949  0.00  0.00    +0.004 C 
ATOM     11  C   UNL     1      -1.336  -6.891  -2.563  0.00  0.00    +0.004 C 
ATOM     12  C   UNL     1       0.104  -7.380  -2.397  0.00  0.00    -0.002 C 
ATOM     13  C   UNL     1       0.806  -6.555  -1.266  0.00  0.00    -0.026 C 
ATOM     14  C   UNL     1       2.247  -7.042  -1.105  0.00  0.00    +0.010 C 
ATOM     15  C   UNL     1       2.247  -8.518  -0.701  0.00  0.00    +0.032 C 
ATOM     16  C   UNL     1       1.548  -9.343  -1.784  0.00  0.00    +0.115 C 
ATOM     17  C   UNL     1       0.101  -8.860  -2.011  0.00  0.00    +0.035 C 
ATOM     18  C   UNL     1       0.061  -6.715   0.061  0.00  0.00    +0.012 C 
ATOM     19  C   UNL     1      -0.644  -2.744   0.257  0.00  0.00    +0.012 C 
ENDROOT
BRANCH   1  21
ATOM     20  C   UNL     1       0.740   0.098   0.819  0.00  0.00    +0.062 C 
ATOM     21  C   UNL     1      -0.423  -0.102  -0.118  0.00  0.00    +0.037 C 
ATOM     22  N   UNL     1      -1.564   0.407   0.159  0.00  0.00    -0.190 NA
BRANCH  22  23
ATOM     23  N   UNL     1      -1.769   1.038   1.393  0.00  0.00    -0.219 N 
ATOM     24  H   UNL     1      -1.030   1.139   2.014  0.00  0.00    +0.176 HD
BRANCH  23  25
ATOM     25  C   UNL     1      -2.991   1.504   1.718  0.00  0.00    +0.147 C 
ATOM     26  S   UNL     1      -3.272   2.158   3.275  0.00  0.00    -0.017 S 
BRANCH  25  27
ATOM     27  N   UNL     1      -3.992   1.456   0.816  0.00  0.00    -0.339 N 
ATOM     28  H   UNL     1      -3.853   1.020  -0.039  0.00  0.00    +0.144 HD
ATOM     29  H   UNL     1      -4.850   1.856   1.023  0.00  0.00    +0.144 HD
ENDBRANCH  25  27
ENDBRANCH  23  25
ENDBRANCH  22  23
ENDBRANCH   1  21
BRANCH  16  30
ATOM     30  O   UNL     1       2.242  -9.188  -3.024  0.00  0.00    -0.392 OA
ATOM     31  H   UNL     1       3.164  -9.476  -2.997  0.00  0.00    +0.210 HD
ENDBRANCH  16  30
TORSDOF 5
