REMARK  Name = ZINC40784933
REMARK  5 active torsions:
REMARK  status: ('A' for Active; 'I' for Inactive)
REMARK    1  A    between atoms: C_5  and  C_7
REMARK    2  A    between atoms: N_9  and  N_10
REMARK    3  A    between atoms: C_12  and  N_24
REMARK    4  A    between atoms: C_13  and  O_17
REMARK    5  A    between atoms: O_17  and  C_18
REMARK                            x       y       z     vdW  Elec       q    Type
REMARK                         _______ _______ _______ _____ _____    ______ ____
ROOT
ATOM      1  N   UNL     1       0.121  -4.256  -0.022  0.00  0.00    -0.246 N 
ATOM      2  C   UNL     1      -1.069  -4.973  -0.014  0.00  0.00    +0.163 A 
ATOM      3  C   UNL     1      -1.055  -6.371  -0.017  0.00  0.00    +0.129 A 
ATOM      4  C   UNL     1      -2.277  -7.041  -0.008  0.00  0.00    +0.241 A 
ATOM      5  N   UNL     1      -3.402  -6.331   0.001  0.00  0.00    -0.200 NA
ATOM      6  C   UNL     1      -3.372  -5.014   0.003  0.00  0.00    +0.227 A 
ATOM      7  N   UNL     1      -2.239  -4.341   0.001  0.00  0.00    -0.217 NA
ATOM      8  H   UNL     1       0.970  -4.726  -0.034  0.00  0.00    +0.172 HD
ENDROOT
BRANCH   1  11
ATOM      9  C   UNL     1       1.250  -2.160  -0.022  0.00  0.00    +0.262 C 
ATOM     10  O   UNL     1       2.313  -2.748  -0.036  0.00  0.00    -0.269 OA
ATOM     11  N   UNL     1       0.095  -2.856  -0.014  0.00  0.00    -0.231 N 
ATOM     12  H   UNL     1      -0.754  -2.386  -0.003  0.00  0.00    +0.173 HD
BRANCH   9  17
ATOM     13  C   UNL     1      -0.017   1.375   0.010  0.00  0.00    +0.001 A 
ATOM     14  C   UNL     1       1.170   2.087   0.002  0.00  0.00    +0.001 A 
ATOM     15  C   UNL     1       2.383   1.423  -0.013  0.00  0.00    +0.021 A 
ATOM     16  C   UNL     1       2.417   0.041  -0.021  0.00  0.00    +0.053 A 
ATOM     17  C   UNL     1       1.222  -0.683  -0.013  0.00  0.00    +0.056 A 
ATOM     18  C   UNL     1       0.002  -0.004   0.002  0.00  0.00    +0.014 A 
ATOM     19 CL   UNL     1       3.940  -0.792  -0.041  0.00  0.00    -0.083 Cl
ENDBRANCH   9  17
ENDBRANCH   1  11
BRANCH   3  20
ATOM     20  N   UNL     1       0.156  -7.080  -0.027  0.00  0.00    -0.351 N 
ATOM     21  H   UNL     1       0.999  -6.601  -0.033  0.00  0.00    +0.143 HD
ATOM     22  H   UNL     1       0.150  -8.050  -0.029  0.00  0.00    +0.143 HD
ENDBRANCH   3  20
BRANCH   4  23
ATOM     23  O   UNL     1      -2.319  -8.397  -0.011  0.00  0.00    -0.472 OA
BRANCH  23  24
ATOM     24  C   UNL     1      -3.612  -9.006  -0.002  0.00  0.00    +0.175 C 
ATOM     25  C   UNL     1      -4.062  -9.226   1.444  0.00  0.00    +0.044 C 
ATOM     26  C   UNL     1      -5.446  -9.879   1.454  0.00  0.00    +0.004 C 
ATOM     27  C   UNL     1      -5.380 -11.225   0.729  0.00  0.00    +0.000 C 
ATOM     28  C   UNL     1      -4.930 -11.005  -0.716  0.00  0.00    +0.004 C 
ATOM     29  C   UNL     1      -3.546 -10.352  -0.726  0.00  0.00    +0.044 C 
ENDBRANCH  23  24
ENDBRANCH   4  23
TORSDOF 5
