REMARK  Name = ZINC15958531
REMARK  4 active torsions:
REMARK  status: ('A' for Active; 'I' for Inactive)
REMARK    1  A    between atoms: C_4  and  C_7
REMARK    2  A    between atoms: C_7  and  C_8
REMARK    3  A    between atoms: N_16  and  C_19
REMARK    4  A    between atoms: C_19  and  C_20
REMARK                            x       y       z     vdW  Elec       q    Type
REMARK                         _______ _______ _______ _____ _____    ______ ____
ROOT
ATOM      1  C   UNL     1       4.171  -0.963   1.399  0.00  0.00    +0.072 C 
ATOM      2  C   UNL     1       5.474  -1.792   1.406  0.00  0.00    +0.107 C 
ATOM      3  C   UNL     1       6.304  -1.216   2.587  0.00  0.00    +0.122 C 
ATOM      4  C   UNL     1       6.354  -2.364   3.570  0.00  0.00    +0.229 C 
ATOM      5  O   UNL     1       6.906  -2.338   4.649  0.00  0.00    -0.275 OA
ATOM      6  N   UNL     1       5.693  -3.412   3.064  0.00  0.00    -0.237 N 
ATOM      7  C   UNL     1       5.159  -3.207   1.838  0.00  0.00    +0.227 C 
ATOM      8  O   UNL     1       4.529  -4.014   1.188  0.00  0.00    -0.275 OA
ATOM      9  C   UNL     1       5.448  -0.073   3.143  0.00  0.00    +0.136 C 
ATOM     10  N   UNL     1       4.529   0.318   2.064  0.00  0.00    -0.295 NA
ATOM     11  C   UNL     1       4.681  -0.497   4.363  0.00  0.00    +0.003 A 
ATOM     12  C   UNL     1       3.749  -1.482   4.603  0.00  0.00    +0.008 A 
ATOM     13  C   UNL     1       3.206  -1.628   5.867  0.00  0.00    +0.000 A 
ATOM     14  C   UNL     1       3.601  -0.784   6.888  0.00  0.00    +0.002 A 
ATOM     15  C   UNL     1       4.535   0.203   6.653  0.00  0.00    +0.023 A 
ATOM     16  C   UNL     1       5.087   0.358   5.384  0.00  0.00    +0.039 A 
ATOM     17  N   UNL     1       6.033   1.267   4.905  0.00  0.00    -0.283 N 
ATOM     18  C   UNL     1       6.301   1.080   3.598  0.00  0.00    +0.243 C 
ATOM     19  O   UNL     1       7.079   1.717   2.920  0.00  0.00    -0.273 OA
ATOM     20  H   UNL     1       4.988   0.944   1.420  0.00  0.00    +0.124 HD
ATOM     21  H   UNL     1       6.449   1.953   5.450  0.00  0.00    +0.155 HD
ENDROOT
BRANCH   1  22
ATOM     22  C   UNL     1       3.711  -0.707  -0.038  0.00  0.00    +0.054 C 
BRANCH  22  26
ATOM     23  C   UNL     1      -0.017   1.378   0.010  0.00  0.00    +0.000 A 
ATOM     24  C   UNL     1       1.171   2.086   0.002  0.00  0.00    +0.000 A 
ATOM     25  C   UNL     1       2.377   1.411  -0.013  0.00  0.00    +0.004 A 
ATOM     26  C   UNL     1       2.396   0.029  -0.020  0.00  0.00    -0.046 A 
ATOM     27  C   UNL     1       1.208  -0.679  -0.012  0.00  0.00    +0.004 A 
ATOM     28  C   UNL     1       0.002  -0.004   0.002  0.00  0.00    +0.000 A 
ENDBRANCH  22  26
ENDBRANCH   1  22
BRANCH   6  29
ATOM     29  C   UNL     1       5.562  -4.685   3.777  0.00  0.00    +0.151 C 
BRANCH  29  30
ATOM     30  C   UNL     1       4.319  -4.658   4.628  0.00  0.00    -0.030 A 
ATOM     31  C   UNL     1       4.381  -4.195   5.929  0.00  0.00    +0.005 A 
ATOM     32  C   UNL     1       3.241  -4.171   6.710  0.00  0.00    +0.000 A 
ATOM     33  C   UNL     1       2.037  -4.610   6.190  0.00  0.00    +0.000 A 
ATOM     34  C   UNL     1       1.975  -5.072   4.888  0.00  0.00    +0.000 A 
ATOM     35  C   UNL     1       3.115  -5.092   4.106  0.00  0.00    +0.005 A 
ENDBRANCH  29  30
ENDBRANCH   6  29
TORSDOF 4
