REMARK  Name = ZINC40758010
REMARK  4 active torsions:
REMARK  status: ('A' for Active; 'I' for Inactive)
REMARK    1  A    between atoms: C_1  and  C_2
REMARK    2  A    between atoms: C_7  and  N_8
REMARK    3  A    between atoms: C_10  and  N_23
REMARK    4  A    between atoms: C_11  and  N_15
REMARK                            x       y       z     vdW  Elec       q    Type
REMARK                         _______ _______ _______ _____ _____    ______ ____
ROOT
ATOM      1  N   UNL     1       0.103  -0.022   2.415  0.00  0.00    -0.284 N 
ATOM      2  C   UNL     1      -0.001  -0.726   3.610  0.00  0.00    +0.127 A 
ATOM      3  C   UNL     1      -0.129  -0.048   4.824  0.00  0.00    +0.104 A 
ATOM      4  C   UNL     1      -0.230  -0.804   5.993  0.00  0.00    +0.150 A 
ATOM      5  N   UNL     1      -0.200  -2.132   5.907  0.00  0.00    -0.221 NA
ATOM      6  C   UNL     1      -0.078  -2.732   4.741  0.00  0.00    +0.200 A 
ATOM      7  N   UNL     1       0.014  -2.057   3.613  0.00  0.00    -0.333 N 
ATOM      8  H   UNL     1       0.199   0.944   2.427  0.00  0.00    +0.155 HD
ATOM      9  H   UNL     1       0.099  -2.536   2.774  0.00  0.00    +0.168 HD
ENDROOT
BRANCH   4  10
ATOM     10  N   UNL     1      -0.359  -0.179   7.229  0.00  0.00    -0.283 N 
ATOM     11  C   UNL     1      -0.334  -0.935   8.397  0.00  0.00    +0.124 A 
ATOM     12  C   UNL     1      -0.339  -0.295   9.633  0.00  0.00    +0.045 A 
ATOM     13  C   UNL     1      -0.314  -1.058  10.786  0.00  0.00    +0.025 A 
ATOM     14  C   UNL     1      -0.285  -2.442  10.664  0.00  0.00    +0.059 A 
ATOM     15  C   UNL     1      -0.282  -3.011   9.405  0.00  0.00    +0.132 A 
ATOM     16  N   UNL     1      -0.312  -2.257   8.323  0.00  0.00    -0.239 NA
ATOM     17 CL   UNL     1      -0.253  -3.447  12.080  0.00  0.00    -0.082 Cl
ATOM     18  H   UNL     1      -0.466   0.784   7.277  0.00  0.00    +0.155 HD
ENDBRANCH   4  10
BRANCH   1  25
ATOM     19  C   UNL     1       0.198   1.518   0.024  0.00  0.00    +0.047 C 
ATOM     20  C   UNL     1       0.114   0.014   0.009  0.00  0.00    -0.010 A 
ATOM     21  C   UNL     1       0.086  -0.675  -1.190  0.00  0.00    +0.008 A 
ATOM     22  C   UNL     1       0.007  -2.061  -1.157  0.00  0.00    +0.020 A 
ATOM     23  C   UNL     1      -0.039  -2.706   0.063  0.00  0.00    +0.113 A 
ATOM     24  N   UNL     1      -0.011  -2.023   1.191  0.00  0.00    -0.240 NA
ATOM     25  C   UNL     1       0.069  -0.702   1.201  0.00  0.00    +0.127 A 
ENDBRANCH   1  25
BRANCH   3  26
ATOM     26  N   UNL     1      -0.156   1.354   4.867  0.00  0.00    -0.353 N 
ATOM     27  H   UNL     1      -0.084   1.866   4.046  0.00  0.00    +0.143 HD
ATOM     28  H   UNL     1      -0.245   1.812   5.718  0.00  0.00    +0.143 HD
ENDBRANCH   3  26
TORSDOF 3
