REMARK  Name = ZINC38903296
REMARK  14 active torsions:
REMARK  status: ('A' for Active; 'I' for Inactive)
REMARK    1  A    between atoms: C_1  and  C_2
REMARK    2  A    between atoms: C_2  and  N_3
REMARK    3  A    between atoms: N_3  and  C_4
REMARK    4  A    between atoms: C_4  and  C_5
REMARK    5  A    between atoms: C_6  and  C_8
REMARK    6  A    between atoms: C_13  and  N_14
REMARK    7  A    between atoms: C_15  and  C_17
REMARK    8  A    between atoms: N_22  and  C_24
REMARK    9  A    between atoms: C_24  and  C_25
REMARK   10  A    between atoms: C_27  and  C_30
REMARK   11  A    between atoms: C_33  and  C_36
REMARK   12  A    between atoms: C_36  and  C_37
REMARK   13  A    between atoms: C_36  and  C_38
REMARK   14  A    between atoms: C_36  and  C_39
REMARK                            x       y       z     vdW  Elec       q    Type
REMARK                         _______ _______ _______ _____ _____    ______ ____
ROOT
ATOM      1  C   UNL     1      -3.438  -0.625  -6.147  0.00  0.00    +0.059 C 
ATOM      2  C   UNL     1      -3.456   0.875  -5.839  0.00  0.00    +0.009 C 
ATOM      3  C   UNL     1      -4.856   1.428  -6.125  0.00  0.00    -0.018 C 
ATOM      4  C   UNL     1      -5.229   1.130  -7.579  0.00  0.00    -0.078 C 
ATOM      5  N   UNL     1      -5.218  -0.321  -7.803  0.00  0.00    +0.386 N 
ATOM      6  C   UNL     1      -3.863  -0.848  -7.600  0.00  0.00    -0.065 C 
ATOM      7  H   UNL     1      -5.851  -0.765  -7.154  0.00  0.00    -0.081 HD
ENDROOT
BRANCH   1   9
ATOM      8  N   UNL     1      -1.459  -1.074  -4.732  0.00  0.00    -0.285 N 
ATOM      9  C   UNL     1      -2.045  -1.163  -5.943  0.00  0.00    +0.219 C 
ATOM     10  O   UNL     1      -1.451  -1.677  -6.868  0.00  0.00    -0.275 OA
ATOM     11  H   UNL     1      -1.957  -0.724  -3.977  0.00  0.00    +0.155 HD
BRANCH   8  17
ATOM     12  C   UNL     1       0.700  -0.814  -3.663  0.00  0.00    +0.058 A 
ATOM     13  C   UNL     1       2.021  -1.239  -3.502  0.00  0.00    +0.015 A 
ATOM     14  C   UNL     1       2.493  -2.308  -4.232  0.00  0.00    +0.001 A 
ATOM     15  C   UNL     1       1.664  -2.965  -5.127  0.00  0.00    +0.002 A 
ATOM     16  C   UNL     1       0.357  -2.556  -5.298  0.00  0.00    +0.024 A 
ATOM     17  C   UNL     1      -0.138  -1.485  -4.566  0.00  0.00    +0.046 A 
BRANCH  12  19
ATOM     18  N   UNL     1       0.196   0.284  -1.537  0.00  0.00    -0.298 N 
ATOM     19  C   UNL     1       0.188   0.329  -2.884  0.00  0.00    +0.248 C 
ATOM     20  O   UNL     1      -0.242   1.312  -3.457  0.00  0.00    -0.270 OA
BRANCH  18  22
ATOM     21  C   UNL     1       0.653   2.442  -0.480  0.00  0.00    +0.024 C 
ATOM     22  C   UNL     1      -0.405   1.374  -0.764  0.00  0.00    +0.104 C 
ENDBRANCH  18  22
BRANCH  18  23
ATOM     23  C   UNL     1       0.805  -0.854  -0.846  0.00  0.00    +0.104 C 
ATOM     24  C   UNL     1      -0.271  -1.895  -0.530  0.00  0.00    +0.024 C 
ENDBRANCH  18  23
ENDBRANCH  12  19
ENDBRANCH   8  17
ENDBRANCH   1   9
BRANCH   5  25
ATOM     25  C   UNL     1      -5.652  -0.606  -9.177  0.00  0.00    +0.022 C 
BRANCH  25  26
ATOM     26  C   UNL     1      -7.089  -0.185  -9.347  0.00  0.00    +0.211 A 
ATOM     27  N   UNL     1      -7.498   0.988  -9.738  0.00  0.00    -0.193 NA
ATOM     28  C   UNL     1      -8.842   1.017  -9.780  0.00  0.00    +0.202 A 
ATOM     29  N   UNL     1      -9.298  -0.154  -9.410  0.00  0.00    -0.056 NA
ATOM     30  O   UNL     1      -8.162  -0.957  -9.128  0.00  0.00    -0.340 OA
BRANCH  28  31
ATOM     31  C   UNL     1      -9.671   2.183 -10.177  0.00  0.00    +0.022 A 
ATOM     32  C   UNL     1      -9.061   3.377 -10.555  0.00  0.00    +0.012 A 
ATOM     33  C   UNL     1      -9.837   4.458 -10.924  0.00  0.00    +0.005 A 
ATOM     34  C   UNL     1     -11.216   4.357 -10.918  0.00  0.00    -0.042 A 
ATOM     35  C   UNL     1     -11.826   3.174 -10.543  0.00  0.00    +0.005 A 
ATOM     36  C   UNL     1     -11.060   2.085 -10.178  0.00  0.00    +0.012 A 
BRANCH  34  37
ATOM     37  C   UNL     1     -12.057   5.541 -11.320  0.00  0.00    -0.013 C 
ATOM     38  C   UNL     1     -11.721   5.941 -12.758  0.00  0.00    +0.015 C 
ATOM     39  C   UNL     1     -13.539   5.169 -11.227  0.00  0.00    +0.015 C 
ATOM     40  C   UNL     1     -11.767   6.715 -10.383  0.00  0.00    +0.015 C 
ENDBRANCH  34  37
ENDBRANCH  28  31
ENDBRANCH  25  26
ENDBRANCH   5  25
TORSDOF 9
