REMARK  Name = ZINC05309989
REMARK  4 active torsions:
REMARK  status: ('A' for Active; 'I' for Inactive)
REMARK    1  A    between atoms: C_1  and  C_2
REMARK    2  A    between atoms: C_2  and  C_4
REMARK    3  A    between atoms: C_2  and  S_10
REMARK    4  A    between atoms: S_10  and  C_11
REMARK                            x       y       z     vdW  Elec       q    Type
REMARK                         _______ _______ _______ _____ _____    ______ ____
ROOT
ATOM      1  C   UNL     1      -0.019   1.526   0.010  0.00  0.00    +0.029 C 
ATOM      2  C   UNL     1       0.002  -0.004   0.002  0.00  0.00    +0.137 C 
ENDROOT
BRANCH   2   3
ATOM      3  C   UNL     1      -1.412  -0.526   0.013  0.00  0.00    +0.233 C 
ATOM      4  O   UNL     1      -1.939  -0.827   1.062  0.00  0.00    -0.274 OA
ATOM      5  N   UNL     1      -2.090  -0.657  -1.144  0.00  0.00    -0.239 N 
ATOM      6  C   UNL     1      -3.355  -1.124  -1.135  0.00  0.00    +0.303 C 
ATOM      7  O   UNL     1      -3.883  -1.426  -0.083  0.00  0.00    -0.253 OA
ATOM      8  N   UNL     1      -4.033  -1.255  -2.292  0.00  0.00    -0.313 N 
ATOM      9  H   UNL     1      -1.669  -0.416  -1.984  0.00  0.00    +0.159 HD
ATOM     10  H   UNL     1      -3.611  -1.014  -3.131  0.00  0.00    +0.146 HD
ATOM     11  H   UNL     1      -4.943  -1.591  -2.285  0.00  0.00    +0.146 HD
ENDBRANCH   2   3
BRANCH   2  12
ATOM     12  S   UNL     1       0.879  -0.605   1.472  0.00  0.00    -0.073 S 
BRANCH  12  13
ATOM     13  C   UNL     1       2.533  -0.042   1.241  0.00  0.00    +0.192 A 
ATOM     14  N   UNL     1       2.957   0.651   0.211  0.00  0.00    -0.201 NA
ATOM     15  C   UNL     1       4.279   0.918   0.350  0.00  0.00    +0.181 A 
ATOM     16  C   UNL     1       4.689   0.338   1.565  0.00  0.00    +0.112 A 
ATOM     17  N   UNL     1       3.564  -0.257   2.110  0.00  0.00    -0.219 NA
ATOM     18  C   UNL     1       6.010   0.457   1.966  0.00  0.00    +0.053 A 
ATOM     19  C   UNL     1       6.886   1.151   1.144  0.00  0.00    +0.061 A 
ATOM     20  C   UNL     1       6.419   1.698  -0.040  0.00  0.00    +0.133 A 
ATOM     21  N   UNL     1       5.159   1.574  -0.403  0.00  0.00    -0.233 NA
ATOM     22 CL   UNL     1       8.553   1.332   1.594  0.00  0.00    -0.082 Cl
ENDBRANCH  12  13
ENDBRANCH   2  12
TORSDOF 3
