REMARK  Name = ZINC20573713
REMARK  4 active torsions:
REMARK  status: ('A' for Active; 'I' for Inactive)
REMARK    1  A    between atoms: C_6  and  C_7
REMARK    2  A    between atoms: C_7  and  C_8
REMARK    3  A    between atoms: N_10  and  C_11
REMARK    4  A    between atoms: C_11  and  C_12
REMARK                            x       y       z     vdW  Elec       q    Type
REMARK                         _______ _______ _______ _____ _____    ______ ____
ROOT
ATOM      1  C   UNL     1      -4.608  -2.714  -3.015  0.00  0.00    +0.233 C 
ATOM      2  O   UNL     1      -5.118  -3.030  -1.962  0.00  0.00    -0.274 OA
ATOM      3  N   UNL     1      -5.198  -3.053  -4.179  0.00  0.00    -0.300 N 
ATOM      4  C   UNL     1      -4.589  -2.682  -5.463  0.00  0.00    +0.110 C 
ATOM      5  C   UNL     1      -4.438  -3.944  -6.319  0.00  0.00    +0.047 C 
ATOM      6  C   UNL     1      -5.794  -4.639  -6.441  0.00  0.00    +0.064 C 
ATOM      7  C   UNL     1      -6.293  -5.049  -5.056  0.00  0.00    +0.047 C 
ATOM      8  C   UNL     1      -6.461  -3.804  -4.187  0.00  0.00    +0.110 C 
ATOM      9  C   UNL     1      -5.660  -5.861  -7.314  0.00  0.00    +0.057 A 
ATOM     10  C   UNL     1      -6.552  -6.185  -8.278  0.00  0.00    +0.039 A 
ATOM     11  N   UNL     1      -6.117  -7.334  -8.858  0.00  0.00    -0.349 N 
ATOM     12  H   UNL     1      -6.546  -7.812  -9.584  0.00  0.00    +0.166 HD
ATOM     13  C   UNL     1      -4.970  -7.683  -8.229  0.00  0.00    +0.171 A 
ATOM     14  N   UNL     1      -4.707  -6.794  -7.307  0.00  0.00    -0.348 N 
ATOM     15  C   UNL     1      -7.779  -5.365  -8.583  0.00  0.00    +0.070 C 
ATOM     16  C   UNL     1      -8.017  -4.414  -7.402  0.00  0.00    +0.088 C 
ATOM     17  N   UNL     1      -6.763  -3.724  -7.064  0.00  0.00    -0.305 NA
ATOM     18  H   UNL     1      -6.938  -2.925  -6.473  0.00  0.00    +0.123 HD
ATOM     19  H   UNL     1      -3.941  -6.810  -6.712  0.00  0.00    +0.166 HD
ENDROOT
BRANCH   1  20
ATOM     20  C   UNL     1      -3.313  -1.943  -3.024  0.00  0.00    +0.200 C 
BRANCH  20  23
ATOM     21  C   UNL     1      -1.738  -1.024  -1.407  0.00  0.00    +0.218 C 
ATOM     22  O   UNL     1      -1.070  -0.616  -2.333  0.00  0.00    -0.275 OA
ATOM     23  N   UNL     1      -2.880  -1.701  -1.646  0.00  0.00    -0.306 N 
ATOM     24  H   UNL     1      -3.414  -2.027  -0.905  0.00  0.00    +0.149 HD
BRANCH  21  25
ATOM     25  C   UNL     1      -1.293  -0.775   0.011  0.00  0.00    +0.130 C 
BRANCH  25  31
ATOM     26  C   UNL     1      -0.017   1.378   0.010  0.00  0.00    +0.005 A 
ATOM     27  C   UNL     1       1.171   2.086   0.002  0.00  0.00    +0.020 A 
ATOM     28  C   UNL     1       2.378   1.410  -0.013  0.00  0.00    +0.041 A 
ATOM     29  C   UNL     1       2.396   0.027  -0.021  0.00  0.00    +0.020 A 
ATOM     30  C   UNL     1       1.208  -0.679  -0.013  0.00  0.00    +0.005 A 
ATOM     31  C   UNL     1       0.002  -0.004   0.002  0.00  0.00    -0.039 A 
ATOM     32 CL   UNL     1       3.870   2.298  -0.023  0.00  0.00    -0.084 Cl
ENDBRANCH  25  31
ENDBRANCH  21  25
ENDBRANCH  20  23
ENDBRANCH   1  20
TORSDOF 4
