REMARK  Name = ZINC13501163
REMARK  10 active torsions:
REMARK  status: ('A' for Active; 'I' for Inactive)
REMARK    1  A    between atoms: C_1  and  C_2
REMARK    2  A    between atoms: C_2  and  C_3
REMARK    3  A    between atoms: C_3  and  C_5
REMARK    4  A    between atoms: C_3  and  N_69
REMARK    5  A    between atoms: N_9  and  C_10
REMARK    6  A    between atoms: C_10  and  C_11
REMARK    7  A    between atoms: C_17  and  C_18
REMARK    8  A    between atoms: C_17  and  N_69
REMARK    9  A    between atoms: C_22  and  C_30
REMARK   10  A    between atoms: C_31  and  N_69
REMARK                            x       y       z     vdW  Elec       q    Type
REMARK                         _______ _______ _______ _____ _____    ______ ____
ROOT
ATOM      1  N   UNL     1      -3.202   1.011  -1.369  0.00  0.00    +0.391 N 
ATOM      2  H   UNL     1      -2.395   0.749  -1.948  0.00  0.00    -0.080 HD
ENDROOT
BRANCH   1   3
ATOM      3  C   UNL     1      -3.781   2.266  -1.894  0.00  0.00    -0.067 C 
ATOM      4  C   UNL     1      -5.088   2.597  -1.171  0.00  0.00    -0.015 C 
ATOM      5  C   UNL     1      -5.668   3.896  -1.734  0.00  0.00    -0.002 C 
ATOM      6  C   UNL     1      -5.941   3.727  -3.229  0.00  0.00    -0.000 C 
ATOM      7  C   UNL     1      -4.634   3.396  -3.953  0.00  0.00    -0.002 C 
ATOM      8  C   UNL     1      -4.054   2.097  -3.390  0.00  0.00    -0.015 C 
ENDBRANCH   1   3
BRANCH   1   9
ATOM      9  C   UNL     1      -4.207  -0.071  -1.428  0.00  0.00    +0.003 C 
BRANCH   9  10
ATOM     10  C   UNL     1      -5.186   0.056  -0.290  0.00  0.00    +0.138 A 
ATOM     11  N   UNL     1      -4.896   0.199   0.980  0.00  0.00    -0.115 NA
ATOM     12  N   UNL     1      -6.003   0.274   1.635  0.00  0.00    -0.023 NA
ATOM     13  N   UNL     1      -6.992   0.175   0.817  0.00  0.00    -0.044 NA
ATOM     14  N   UNL     1      -6.529   0.039  -0.380  0.00  0.00    -0.226 N 
BRANCH  14  15
ATOM     15  C   UNL     1      -7.317  -0.107  -1.606  0.00  0.00    +0.182 C 
BRANCH  15  16
ATOM     16  C   UNL     1      -7.580  -1.569  -1.863  0.00  0.00    -0.026 A 
ATOM     17  C   UNL     1      -6.695  -2.307  -2.626  0.00  0.00    +0.005 A 
ATOM     18  C   UNL     1      -6.934  -3.648  -2.858  0.00  0.00    +0.000 A 
ATOM     19  C   UNL     1      -8.064  -4.249  -2.335  0.00  0.00    +0.000 A 
ATOM     20  C   UNL     1      -8.952  -3.510  -1.577  0.00  0.00    +0.000 A 
ATOM     21  C   UNL     1      -8.710  -2.170  -1.340  0.00  0.00    +0.005 A 
ENDBRANCH  15  16
ENDBRANCH  14  15
ENDBRANCH   9  10
BRANCH   9  23
ATOM     22  C   UNL     1      -2.592  -1.606  -2.559  0.00  0.00    +0.002 C 
ATOM     23  C   UNL     1      -3.484  -1.416  -1.331  0.00  0.00    -0.011 C 
ENDBRANCH   9  23
ENDBRANCH   1   9
BRANCH   1  24
ATOM     24  C   UNL     1      -2.751   1.207   0.024  0.00  0.00    -0.036 C 
BRANCH  24  25
ATOM     25  C   UNL     1      -1.486   2.026   0.013  0.00  0.00    +0.001 A 
ATOM     26  C   UNL     1      -1.517   3.322   0.410  0.00  0.00    +0.017 A 
ATOM     27  C   UNL     1      -0.271   4.091   0.384  0.00  0.00    -0.001 A 
ATOM     28  C   UNL     1      -0.241   5.433   0.778  0.00  0.00    +0.013 A 
ATOM     29  C   UNL     1       0.937   6.123   0.742  0.00  0.00    -0.050 A 
ATOM     30  C   UNL     1       2.105   5.505   0.317  0.00  0.00    +0.005 A 
ATOM     31  C   UNL     1       2.099   4.184  -0.077  0.00  0.00    +0.026 A 
ATOM     32  C   UNL     1       0.911   3.461  -0.048  0.00  0.00    +0.049 A 
ATOM     33  N   UNL     1       0.876   2.138  -0.435  0.00  0.00    -0.322 N 
ATOM     34  H   UNL     1       1.691   1.705  -0.732  0.00  0.00    +0.169 HD
ATOM     35  C   UNL     1      -0.273   1.439  -0.406  0.00  0.00    +0.251 A 
ATOM     36  O   UNL     1      -0.267   0.272  -0.755  0.00  0.00    -0.268 OA
ATOM     37  C   UNL     1       0.970   7.569   1.167  0.00  0.00    +0.044 C 
ENDBRANCH  24  25
ENDBRANCH   1  24
TORSDOF 8
