REMARK  Name = ZINC15940845
REMARK  6 active torsions:
REMARK  status: ('A' for Active; 'I' for Inactive)
REMARK    1  A    between atoms: C_1  and  C_2
REMARK    2  A    between atoms: C_9  and  C_11
REMARK    3  A    between atoms: C_11  and  C_13
REMARK    4  A    between atoms: C_11  and  S_14
REMARK    5  A    between atoms: S_14  and  C_15
REMARK    6  A    between atoms: C_15  and  C_16
REMARK                            x       y       z     vdW  Elec       q    Type
REMARK                         _______ _______ _______ _____ _____    ______ ____
ROOT
ATOM      1  C   UNL     1       0.441  -8.839  -2.213  0.00  0.00    +0.144 C 
ENDROOT
BRANCH   1   2
ATOM      2  C   UNL     1       0.930  -9.558  -3.444  0.00  0.00    +0.121 A 
ATOM      3  N   UNL     1       0.982 -10.915  -3.447  0.00  0.00    -0.310 N 
ATOM      4  H   UNL     1       0.703 -11.403  -2.656  0.00  0.00    +0.170 HD
ATOM      5  C   UNL     1       1.411 -11.598  -4.525  0.00  0.00    +0.260 A 
ATOM      6  O   UNL     1       1.451 -12.816  -4.512  0.00  0.00    -0.267 OA
ATOM      7  C   UNL     1       1.821 -10.867  -5.689  0.00  0.00    +0.075 A 
ATOM      8  C   UNL     1       2.318 -11.390  -6.960  0.00  0.00    -0.023 A 
ATOM      9  C   UNL     1       2.640 -10.486  -7.910  0.00  0.00    -0.004 A 
ATOM     10  S   UNL     1       2.304  -8.909  -7.175  0.00  0.00    -0.073 S 
ATOM     11  C   UNL     1       1.732  -9.470  -5.591  0.00  0.00    +0.116 A 
ATOM     12  N   UNL     1       1.291  -8.866  -4.491  0.00  0.00    -0.226 NA
ATOM     13  C   UNL     1       3.168 -10.763  -9.284  0.00  0.00    +0.043 C 
ATOM     14  C   UNL     1       3.646 -12.221  -9.335  0.00  0.00    +0.005 C 
ATOM     15  C   UNL     1       2.558 -13.115  -8.733  0.00  0.00    +0.005 C 
ATOM     16  C   UNL     1       2.474 -12.886  -7.223  0.00  0.00    +0.037 C 
ENDBRANCH   1   2
BRANCH   1  17
ATOM     17  S   UNL     1       0.476  -7.049  -2.505  0.00  0.00    -0.141 S 
BRANCH  17  18
ATOM     18  C   UNL     1      -0.133  -6.339  -0.951  0.00  0.00    +0.130 C 
ATOM     19  C   UNL     1      -1.591  -6.751  -0.739  0.00  0.00    +0.029 C 
BRANCH  18  28
ATOM     20  C   UNL     1      -0.024   1.496  -0.185  0.00  0.00    +0.045 C 
ATOM     21  C   UNL     1      -0.002  -0.007  -0.065  0.00  0.00    -0.032 A 
ATOM     22  C   UNL     1       0.012  -0.610   1.186  0.00  0.00    +0.008 A 
ATOM     23  C   UNL     1       0.032  -1.992   1.251  0.00  0.00    +0.044 A 
ATOM     24  C   UNL     1       0.037  -2.725   0.070  0.00  0.00    +0.125 A 
ATOM     25  N   UNL     1       0.024  -2.113  -1.103  0.00  0.00    -0.240 NA
ATOM     26  C   UNL     1      -0.001  -0.797  -1.197  0.00  0.00    +0.116 A 
ATOM     27  N   UNL     1       0.058  -4.118   0.121  0.00  0.00    -0.269 N 
ATOM     28  C   UNL     1      -0.040  -4.836  -1.015  0.00  0.00    +0.231 C 
ATOM     29  O   UNL     1      -0.053  -4.273  -2.089  0.00  0.00    -0.274 OA
ATOM     30  H   UNL     1       0.142  -4.571   0.975  0.00  0.00    +0.156 HD
ENDBRANCH  18  28
ENDBRANCH  17  18
ENDBRANCH   1  17
TORSDOF 4
