REMARK  Name = ZINC33467943
REMARK  7 active torsions:
REMARK  status: ('A' for Active; 'I' for Inactive)
REMARK    1  A    between atoms: C_4  and  C_7
REMARK    2  A    between atoms: C_7  and  N_8
REMARK    3  A    between atoms: C_11  and  N_14
REMARK    4  A    between atoms: C_15  and  C_17
REMARK    5  A    between atoms: C_17  and  C_18
REMARK    6  A    between atoms: C_18  and  C_20
REMARK    7  A    between atoms: C_18  and  C_29
REMARK                            x       y       z     vdW  Elec       q    Type
REMARK                         _______ _______ _______ _____ _____    ______ ____
ROOT
ATOM      1  C   UNL     1      -0.729   1.579   1.267  0.00  0.00    +0.076 C 
ENDROOT
BRANCH   1   2
ATOM      2  C   UNL     1       0.067   1.185   2.485  0.00  0.00    +0.051 A 
ATOM      3  C   UNL     1       0.778   0.047   2.643  0.00  0.00    +0.135 A 
ATOM      4  N   UNL     1       1.344   0.064   3.853  0.00  0.00    -0.236 NA
ATOM      5  C   UNL     1       1.003   1.183   4.477  0.00  0.00    +0.138 A 
ATOM      6  N   UNL     1       0.198   1.908   3.638  0.00  0.00    -0.302 N 
ATOM      7  C   UNL     1      -0.302   3.116   4.033  0.00  0.00    +0.113 A 
ATOM      8  C   UNL     1      -0.012   3.614   5.254  0.00  0.00    +0.058 A 
ATOM      9  C   UNL     1       0.811   2.893   6.136  0.00  0.00    +0.025 A 
ATOM     10  C   UNL     1       1.315   1.689   5.755  0.00  0.00    +0.048 A 
ATOM     11 CL   UNL     1      -0.657   5.152   5.736  0.00  0.00    -0.082 Cl
ENDBRANCH   1   2
BRANCH   1  12
ATOM     12  C   UNL     1      -2.100   0.959   1.340  0.00  0.00    -0.034 A 
ATOM     13  C   UNL     1      -2.234  -0.416   1.396  0.00  0.00    +0.008 A 
ATOM     14  C   UNL     1      -3.490  -0.989   1.463  0.00  0.00    +0.050 A 
ATOM     15  C   UNL     1      -4.619  -0.186   1.475  0.00  0.00    +0.166 A 
ATOM     16  C   UNL     1      -4.484   1.199   1.419  0.00  0.00    +0.167 A 
ATOM     17  C   UNL     1      -3.222   1.767   1.357  0.00  0.00    +0.053 A 
ATOM     18  O   UNL     1      -5.729   1.759   1.445  0.00  0.00    -0.453 OA
ATOM     19  C   UNL     1      -6.606   0.725   1.928  0.00  0.00    +0.466 C 
ATOM     20  O   UNL     1      -5.947  -0.493   1.536  0.00  0.00    -0.453 OA
ENDBRANCH   1  12
BRANCH   1  21
ATOM     21  C   UNL     1      -0.013   1.086   0.008  0.00  0.00    +0.110 C 
BRANCH  21  23
ATOM     22  N   UNL     1      -0.288   1.272  -2.443  0.00  0.00    -0.313 N 
ATOM     23  C   UNL     1      -0.742   1.585  -1.213  0.00  0.00    +0.214 C 
ATOM     24  O   UNL     1      -1.736   2.268  -1.088  0.00  0.00    -0.276 OA
ATOM     25  H   UNL     1       0.614   0.653  -2.556  0.00  0.00    +0.149 HD
BRANCH  22  29
ATOM     26  N   UNL     1      -1.865   1.325  -6.350  0.00  0.00    +0.382 N 
ATOM     27  C   UNL     1      -0.785   2.278  -6.063  0.00  0.00    -0.077 C 
ATOM     28  C   UNL     1      -0.026   1.829  -4.812  0.00  0.00    +0.003 C 
ATOM     29  C   UNL     1      -0.997   1.758  -3.630  0.00  0.00    +0.069 C 
ATOM     30  C   UNL     1      -2.138   0.796  -3.974  0.00  0.00    +0.003 C 
ATOM     31  C   UNL     1      -2.835   1.275  -5.249  0.00  0.00    -0.077 C 
ATOM     32  H   UNL     1      -1.414   0.327  -6.446  0.00  0.00    -0.081 HD
BRANCH  26  33
ATOM     33  C   UNL     1      -2.527   1.648  -7.621  0.00  0.00    -0.043 C 
BRANCH  33  37
ATOM     34  C   UNL     1      -5.154  -1.541  -8.708  0.00  0.00    +0.000 A 
ATOM     35  C   UNL     1      -5.620  -0.495  -7.933  0.00  0.00    +0.000 A 
ATOM     36  C   UNL     1      -4.770   0.537  -7.581  0.00  0.00    +0.002 A 
ATOM     37  C   UNL     1      -3.454   0.523  -8.004  0.00  0.00    -0.064 A 
ATOM     38  C   UNL     1      -2.989  -0.520  -8.783  0.00  0.00    +0.002 A 
ATOM     39  C   UNL     1      -3.838  -1.555  -9.130  0.00  0.00    +0.000 A 
ENDBRANCH  33  37
ENDBRANCH  26  33
ENDBRANCH  22  29
ENDBRANCH  21  23
ENDBRANCH   1  21
TORSDOF 7
