REMARK  Name = ZINC51089880
REMARK  4 active torsions:
REMARK  status: ('A' for Active; 'I' for Inactive)
REMARK    1  A    between atoms: C_3  and  N_20
REMARK    2  A    between atoms: C_5  and  C_8
REMARK    3  A    between atoms: N_10  and  C_11
REMARK    4  A    between atoms: N_20  and  N_21
REMARK                            x       y       z     vdW  Elec       q    Type
REMARK                         _______ _______ _______ _____ _____    ______ ____
ROOT
ATOM      1  C   UNL     1       1.260  -2.147  -0.028  0.00  0.00    +0.268 C 
ATOM      2  O   UNL     1       0.222  -2.779  -0.018  0.00  0.00    -0.268 OA
ATOM      3  N   UNL     1       2.442  -2.794  -0.038  0.00  0.00    -0.279 N 
ATOM      4  H   UNL     1       3.269  -2.292  -0.112  0.00  0.00    +0.155 HD
ENDROOT
BRANCH   3   5
ATOM      5  C   UNL     1       2.477  -4.190   0.060  0.00  0.00    +0.054 A 
ATOM      6  C   UNL     1       1.475  -4.953  -0.526  0.00  0.00    +0.046 A 
ATOM      7  C   UNL     1       1.512  -6.331  -0.429  0.00  0.00    +0.061 A 
ATOM      8  C   UNL     1       2.547  -6.951   0.252  0.00  0.00    +0.061 A 
ATOM      9  C   UNL     1       3.545  -6.193   0.837  0.00  0.00    +0.043 A 
ATOM     10  C   UNL     1       3.516  -4.814   0.738  0.00  0.00    +0.064 A 
ATOM     11 CL   UNL     1       4.774  -3.865   1.466  0.00  0.00    -0.082 Cl
ATOM     12 CL   UNL     1       2.590  -8.682   0.373  0.00  0.00    -0.082 Cl
ATOM     13 CL   UNL     1       0.261  -7.286  -1.161  0.00  0.00    -0.082 Cl
ENDBRANCH   3   5
BRANCH   1  18
ATOM     14  C   UNL     1      -0.019   1.384  -0.024  0.00  0.00    +0.026 A 
ATOM     15  C   UNL     1       1.186   2.062  -0.036  0.00  0.00    +0.046 A 
ATOM     16  C   UNL     1       2.378   1.338  -0.045  0.00  0.00    +0.133 A 
ATOM     17  N   UNL     1       2.365   0.017  -0.042  0.00  0.00    -0.225 NA
ATOM     18  C   UNL     1       1.226  -0.667  -0.031  0.00  0.00    +0.146 A 
ATOM     19  C   UNL     1       0.001  -0.005  -0.021  0.00  0.00    +0.072 A 
ATOM     20 CL   UNL     1      -1.484  -0.904  -0.006  0.00  0.00    -0.081 Cl
BRANCH  16  21
ATOM     21  N   UNL     1       3.593   2.013  -0.057  0.00  0.00    -0.268 N 
ATOM     22  H   UNL     1       3.608   2.983  -0.059  0.00  0.00    +0.167 HD
BRANCH  21  23
ATOM     23  N   UNL     1       4.765   1.311  -0.066  0.00  0.00    -0.255 NA
ATOM     24  H   UNL     1       5.559   1.934  -0.074  0.00  0.00    +0.140 HD
ATOM     25  H   UNL     1       4.811   0.676   0.717  0.00  0.00    +0.140 HD
ENDBRANCH  21  23
ENDBRANCH  16  21
ENDBRANCH   1  18
TORSDOF 4
