REMARK  Name = ZINC58967550
REMARK  12 active torsions:
REMARK  status: ('A' for Active; 'I' for Inactive)
REMARK    1  A    between atoms: C_1  and  O_2
REMARK    2  A    between atoms: O_2  and  C_3
REMARK    3  A    between atoms: C_8  and  C_9
REMARK    4  A    between atoms: C_11  and  C_29
REMARK    5  A    between atoms: C_13  and  S_15
REMARK    6  A    between atoms: S_15  and  C_16
REMARK    7  A    between atoms: C_16  and  C_17
REMARK    8  A    between atoms: C_17  and  C_18
REMARK    9  A    between atoms: N_20  and  C_21
REMARK   10  A    between atoms: C_21  and  C_22
REMARK   11  A    between atoms: C_22  and  C_23
REMARK   12  A    between atoms: C_23  and  N_24
REMARK                            x       y       z     vdW  Elec       q    Type
REMARK                         _______ _______ _______ _____ _____    ______ ____
ROOT
ATOM      1  C   UNL     1       0.063  -2.830  -0.055  0.00  0.00    +0.079 A 
ATOM      2  C   UNL     1       0.121  -4.225  -0.119  0.00  0.00    +0.061 A 
ATOM      3  C   UNL     1      -0.452  -4.956   0.906  0.00  0.00    +0.148 A 
ATOM      4  N   UNL     1      -1.033  -4.318   1.910  0.00  0.00    -0.218 NA
ATOM      5  C   UNL     1      -1.073  -2.994   1.946  0.00  0.00    +0.189 A 
ATOM      6  N   UNL     1      -0.532  -2.256   0.988  0.00  0.00    -0.222 NA
ENDROOT
BRANCH   1  12
ATOM      7  C   UNL     1       0.605  -0.607  -1.055  0.00  0.00    +0.129 A 
ATOM      8  C   UNL     1       1.173   0.159  -2.062  0.00  0.00    +0.046 A 
ATOM      9  C   UNL     1       1.786  -0.455  -3.136  0.00  0.00    +0.004 A 
ATOM     10  C   UNL     1       1.839  -1.836  -3.215  0.00  0.00    +0.001 A 
ATOM     11  C   UNL     1       1.279  -2.611  -2.220  0.00  0.00    +0.013 A 
ATOM     12  C   UNL     1       0.662  -2.002  -1.129  0.00  0.00    +0.042 A 
BRANCH   7  14
ATOM     13  C   UNL     1      -0.017   1.425   0.010  0.00  0.00    +0.277 C 
ATOM     14  O   UNL     1       0.002  -0.004   0.002  0.00  0.00    -0.494 OA
ENDBRANCH   7  14
ENDBRANCH   1  12
BRANCH   3  15
ATOM     15  C   UNL     1      -0.415  -6.462   0.880  0.00  0.00    +0.434 C 
ATOM     16  F   UNL     1       0.743  -6.912   1.524  0.00  0.00    -0.164 F 
ATOM     17  F   UNL     1      -1.541  -6.968   1.539  0.00  0.00    -0.164 F 
ATOM     18  F   UNL     1      -0.413  -6.906  -0.446  0.00  0.00    -0.164 F 
ENDBRANCH   3  15
BRANCH   5  19
ATOM     19  S   UNL     1      -1.858  -2.194   3.305  0.00  0.00    -0.086 S 
BRANCH  19  20
ATOM     20  C   UNL     1      -2.431  -3.564   4.348  0.00  0.00    +0.086 C 
BRANCH  20  21
ATOM     21  C   UNL     1      -3.141  -3.003   5.582  0.00  0.00    +0.107 C 
BRANCH  21  22
ATOM     22  C   UNL     1      -3.617  -4.141   6.448  0.00  0.00    +0.214 C 
ATOM     23  O   UNL     1      -3.409  -5.287   6.112  0.00  0.00    -0.276 OA
ATOM     24  N   UNL     1      -4.274  -3.884   7.596  0.00  0.00    -0.315 N 
ATOM     25  H   UNL     1      -4.441  -2.967   7.865  0.00  0.00    +0.149 HD
BRANCH  24  26
ATOM     26  C   UNL     1      -4.737  -4.990   8.438  0.00  0.00    +0.106 C 
BRANCH  26  27
ATOM     27  C   UNL     1      -5.447  -4.429   9.672  0.00  0.00    +0.040 C 
BRANCH  27  28
ATOM     28  C   UNL     1      -5.930  -5.584  10.552  0.00  0.00    +0.124 C 
BRANCH  28  29
ATOM     29  N   UNL     1      -6.610  -5.047  11.733  0.00  0.00    -0.338 N 
ATOM     30  C   UNL     1      -6.029  -4.729  12.931  0.00  0.00    +0.104 A 
ATOM     31  C   UNL     1      -7.010  -4.272  13.731  0.00  0.00    +0.101 A 
ATOM     32  N   UNL     1      -8.160  -4.309  13.041  0.00  0.00    -0.352 N 
ATOM     33  C   UNL     1      -7.927  -4.768  11.841  0.00  0.00    +0.173 A 
ATOM     34  H   UNL     1      -9.027  -4.035  13.379  0.00  0.00    +0.166 HD
ENDBRANCH  28  29
ENDBRANCH  27  28
ENDBRANCH  26  27
ENDBRANCH  24  26
ENDBRANCH  21  22
ENDBRANCH  20  21
ENDBRANCH  19  20
ENDBRANCH   5  19
TORSDOF 11
