REMARK  Name = ZINC08738469
REMARK  14 active torsions:
REMARK  status: ('A' for Active; 'I' for Inactive)
REMARK    1  A    between atoms: C_1  and  C_2
REMARK    2  A    between atoms: C_6  and  C_8
REMARK    3  A    between atoms: C_8  and  O_9
REMARK    4  A    between atoms: O_9  and  C_10
REMARK    5  A    between atoms: C_13  and  C_16
REMARK    6  A    between atoms: C_16  and  C_18
REMARK    7  A    between atoms: N_22  and  C_34
REMARK    8  A    between atoms: C_23  and  C_25
REMARK    9  A    between atoms: C_28  and  N_31
REMARK   10  A    between atoms: C_34  and  C_35
REMARK   11  A    between atoms: C_35  and  C_36
REMARK   12  A    between atoms: C_36  and  N_37
REMARK   13  A    between atoms: N_37  and  C_38
REMARK   14  A    between atoms: N_37  and  C_39
REMARK                            x       y       z     vdW  Elec       q    Type
REMARK                         _______ _______ _______ _____ _____    ______ ____
ROOT
ATOM      1  C   UNL     1      -1.507   2.027   0.066  0.00  0.00    +0.076 C 
ATOM      2  C   UNL     1      -2.823   1.817   0.303  0.00  0.00    +0.249 C 
ATOM      3  C   UNL     1      -3.481   3.113   0.573  0.00  0.00    +0.288 C 
ATOM      4  O   UNL     1      -4.660   3.257   0.825  0.00  0.00    -0.266 OA
ATOM      5  N   UNL     1      -2.581   4.110   0.493  0.00  0.00    -0.284 N 
ATOM      6  C   UNL     1      -1.278   3.517   0.171  0.00  0.00    +0.145 C 
ATOM      7  O   UNL     1      -3.438   0.612   0.297  0.00  0.00    -0.282 OA
ENDROOT
BRANCH   6   8
ATOM      8  C   UNL     1      -0.773   4.057  -1.142  0.00  0.00    -0.022 A 
ATOM      9  C   UNL     1      -1.619   4.126  -2.233  0.00  0.00    +0.008 A 
ATOM     10  C   UNL     1      -1.158   4.626  -3.436  0.00  0.00    +0.033 A 
ATOM     11  C   UNL     1       0.154   5.048  -3.551  0.00  0.00    +0.126 A 
ATOM     12  C   UNL     1       1.002   4.974  -2.462  0.00  0.00    +0.033 A 
ATOM     13  C   UNL     1       0.539   4.479  -1.258  0.00  0.00    +0.008 A 
BRANCH  11  14
ATOM     14  N   UNL     1       0.650   5.579  -4.841  0.00  0.00    +0.056 N 
ATOM     15  O   UNL     1       1.805   5.950  -4.943  0.00  0.00    -0.126 OA
ATOM     16  O   UNL     1      -0.098   5.644  -5.800  0.00  0.00    -0.126 OA
ENDBRANCH  11  14
ENDBRANCH   6   8
BRANCH   1  17
ATOM     17  C   UNL     1      -0.500   1.007  -0.240  0.00  0.00    +0.195 C 
ATOM     18  O   UNL     1      -0.568   0.377  -1.279  0.00  0.00    -0.287 OA
BRANCH  17  22
ATOM     19  C   UNL     1       2.664   0.260   2.493  0.00  0.00    +0.121 A 
ATOM     20  C   UNL     1       2.552  -0.504   1.337  0.00  0.00    +0.046 A 
ATOM     21  C   UNL     1       1.528  -0.266   0.448  0.00  0.00    +0.015 A 
ATOM     22  C   UNL     1       0.600   0.747   0.710  0.00  0.00    +0.022 A 
ATOM     23  C   UNL     1       0.719   1.516   1.871  0.00  0.00    +0.015 A 
ATOM     24  C   UNL     1       1.743   1.268   2.757  0.00  0.00    +0.046 A 
BRANCH  19  25
ATOM     25  O   UNL     1       3.675   0.021   3.366  0.00  0.00    -0.487 OA
BRANCH  25  26
ATOM     26  C   UNL     1       3.732   0.843   4.533  0.00  0.00    +0.264 C 
BRANCH  26  32
ATOM     27  C   UNL     1       5.682  -1.965   8.188  0.00  0.00    +0.044 C 
ATOM     28  C   UNL     1       5.845  -0.908   7.126  0.00  0.00    -0.050 A 
ATOM     29  C   UNL     1       7.076  -0.311   6.928  0.00  0.00    +0.003 A 
ATOM     30  C   UNL     1       7.225   0.660   5.955  0.00  0.00    +0.001 A 
ATOM     31  C   UNL     1       6.142   1.033   5.180  0.00  0.00    +0.007 A 
ATOM     32  C   UNL     1       4.912   0.436   5.378  0.00  0.00    -0.010 A 
ATOM     33  C   UNL     1       4.762  -0.531   6.354  0.00  0.00    +0.010 A 
ENDBRANCH  26  32
ENDBRANCH  25  26
ENDBRANCH  19  25
ENDBRANCH  17  22
ENDBRANCH   1  17
BRANCH   5  34
ATOM     34  C   UNL     1      -2.854   5.536   0.692  0.00  0.00    +0.107 C 
BRANCH  34  35
ATOM     35  C   UNL     1      -3.232   6.174  -0.646  0.00  0.00    +0.000 C 
BRANCH  35  36
ATOM     36  C   UNL     1      -3.517   7.663  -0.439  0.00  0.00    -0.078 C 
BRANCH  36  37
ATOM     37  N   UNL     1      -3.880   8.275  -1.724  0.00  0.00    +0.376 N 
ATOM     38  C   UNL     1      -5.155   7.741  -2.220  0.00  0.00    -0.097 C 
ATOM     39  C   UNL     1      -3.930   9.739  -1.614  0.00  0.00    -0.097 C 
ATOM     40  H   UNL     1      -3.099   8.018  -2.454  0.00  0.00    -0.083 HD
ENDBRANCH  36  37
ENDBRANCH  35  36
ENDBRANCH  34  35
ENDBRANCH   5  34
TORSDOF 11
