REMARK  Name = ZINC09389495
REMARK  17 active torsions:
REMARK  status: ('A' for Active; 'I' for Inactive)
REMARK    1  A    between atoms: C_1  and  C_2
REMARK    2  A    between atoms: C_2  and  C_3
REMARK    3  A    between atoms: C_3  and  N_4
REMARK    4  A    between atoms: C_7  and  C_35
REMARK    5  A    between atoms: C_8  and  C_34
REMARK    6  A    between atoms: N_13  and  C_14
REMARK    7  A    between atoms: C_14  and  C_16
REMARK    8  A    between atoms: C_19  and  S_22
REMARK    9  A    between atoms: S_22  and  N_25
REMARK   10  A    between atoms: N_25  and  C_26
REMARK   11  A    between atoms: N_25  and  C_30
REMARK   12  A    between atoms: C_26  and  C_27
REMARK   13  A    between atoms: C_27  and  O_28
REMARK   14  A    between atoms: O_28  and  C_29
REMARK   15  A    between atoms: C_30  and  C_31
REMARK   16  A    between atoms: C_31  and  O_32
REMARK   17  A    between atoms: O_32  and  C_33
REMARK                            x       y       z     vdW  Elec       q    Type
REMARK                         _______ _______ _______ _____ _____    ______ ____
ROOT
ATOM      1  C   UNL     1       2.462  -3.805  -0.160  0.00  0.00    +0.039 A 
ATOM      2  C   UNL     1       3.857  -3.801  -0.198  0.00  0.00    +0.015 A 
ATOM      3  C   UNL     1       4.546  -4.995  -0.247  0.00  0.00    +0.029 A 
ATOM      4  C   UNL     1       3.857  -6.194  -0.269  0.00  0.00    +0.106 A 
ATOM      5  C   UNL     1       2.474  -6.205  -0.237  0.00  0.00    +0.029 A 
ATOM      6  C   UNL     1       1.773  -5.018  -0.183  0.00  0.00    +0.015 A 
ENDROOT
BRANCH   4   7
ATOM      7  S   UNL     1       4.745  -7.715  -0.339  0.00  0.00    +0.061 S 
ATOM      8  O   UNL     1       6.038  -7.455   0.190  0.00  0.00    -0.153 OA
ATOM      9  O   UNL     1       3.887  -8.711   0.200  0.00  0.00    -0.153 OA
BRANCH   7  10
ATOM     10  N   UNL     1       4.954  -8.086  -1.940  0.00  0.00    -0.172 NA
BRANCH  10  11
ATOM     11  C   UNL     1       6.143  -7.611  -2.652  0.00  0.00    +0.137 C 
BRANCH  11  12
ATOM     12  C   UNL     1       7.217  -8.699  -2.636  0.00  0.00    +0.176 C 
BRANCH  12  13
ATOM     13  O   UNL     1       6.760  -9.832  -3.377  0.00  0.00    -0.382 OA
ATOM     14  C   UNL     1       7.694 -10.912  -3.424  0.00  0.00    +0.194 C 
ENDBRANCH  12  13
ENDBRANCH  11  12
ENDBRANCH  10  11
BRANCH  10  15
ATOM     15  C   UNL     1       3.952  -8.890  -2.643  0.00  0.00    +0.137 C 
BRANCH  15  16
ATOM     16  C   UNL     1       2.969  -7.964  -3.362  0.00  0.00    +0.176 C 
BRANCH  16  17
ATOM     17  O   UNL     1       3.658  -7.241  -4.385  0.00  0.00    -0.382 OA
ATOM     18  C   UNL     1       2.826  -6.343  -5.122  0.00  0.00    +0.194 C 
ENDBRANCH  16  17
ENDBRANCH  15  16
ENDBRANCH  10  15
ENDBRANCH   7  10
ENDBRANCH   4   7
BRANCH   1  19
ATOM     19  C   UNL     1       1.716  -2.527  -0.101  0.00  0.00    +0.269 C 
ATOM     20  O   UNL     1       0.498  -2.533  -0.073  0.00  0.00    -0.268 OA
BRANCH  19  30
ATOM     21  N   UNL     1       2.206   1.046   0.002  0.00  0.00    -0.321 N 
ATOM     22  C   UNL     1       1.346   2.127   0.057  0.00  0.00    +0.058 A 
ATOM     23  C   UNL     1       1.665   3.494   0.092  0.00  0.00    +0.030 A 
ATOM     24  C   UNL     1       0.675   4.446   0.147  0.00  0.00    -0.046 A 
ATOM     25  C   UNL     1      -0.663   4.089   0.168  0.00  0.00    -0.046 A 
ATOM     26  C   UNL     1      -1.006   2.749   0.137  0.00  0.00    +0.020 A 
ATOM     27  C   UNL     1      -0.017   1.796   0.079  0.00  0.00    +0.039 A 
ATOM     28  S   UNL     1      -0.007   0.022   0.022  0.00  0.00    -0.052 S 
ATOM     29  C   UNL     1       1.710  -0.220  -0.027  0.00  0.00    +0.167 A 
ATOM     30  N   UNL     1       2.379  -1.366  -0.080  0.00  0.00    -0.152 NA
ATOM     31  C   UNL     1      -1.733   5.149   0.227  0.00  0.00    +0.044 C 
ATOM     32  C   UNL     1       1.052   5.904   0.185  0.00  0.00    +0.044 C 
BRANCH  21  33
ATOM     33  C   UNL     1       3.655   1.265  -0.026  0.00  0.00    +0.124 C 
BRANCH  33  35
ATOM     34  C   UNL     1       5.847   0.481   0.880  0.00  0.00    +0.005 C 
ATOM     35  C   UNL     1       4.351   0.173   0.789  0.00  0.00    +0.018 C 
ENDBRANCH  33  35
ENDBRANCH  21  33
ENDBRANCH  19  30
ENDBRANCH   1  19
TORSDOF 12
