REMARK  Name = ZINC40557113
REMARK  5 active torsions:
REMARK  status: ('A' for Active; 'I' for Inactive)
REMARK    1  A    between atoms: C_1  and  C_2
REMARK    2  A    between atoms: C_7  and  N_12
REMARK    3  A    between atoms: C_9  and  C_11
REMARK    4  A    between atoms: N_15  and  C_16
REMARK    5  A    between atoms: C_16  and  C_22
REMARK                            x       y       z     vdW  Elec       q    Type
REMARK                         _______ _______ _______ _____ _____    ______ ____
ROOT
ATOM      1  N   UNL     1       1.471  -2.526   2.420  0.00  0.00    -0.296 N 
ATOM      2  C   UNL     1       2.056  -3.740   2.406  0.00  0.00    +0.301 C 
ATOM      3  O   UNL     1       1.996  -4.433   1.409  0.00  0.00    -0.253 OA
ATOM      4  N   UNL     1       2.708  -4.187   3.498  0.00  0.00    -0.284 N 
ATOM      5  H   UNL     1       1.520  -1.974   3.216  0.00  0.00    +0.151 HD
ATOM      6  H   UNL     1       2.756  -3.634   4.294  0.00  0.00    +0.151 HD
ENDROOT
BRANCH   1  12
ATOM      7  C   UNL     1      -0.019   1.526   0.010  0.00  0.00    +0.008 C 
ATOM      8  C   UNL     1       0.002  -0.004   0.002  0.00  0.00    -0.009 C 
ATOM      9  C   UNL     1      -1.433  -0.534   0.013  0.00  0.00    +0.003 C 
ATOM     10  C   UNL     1      -1.413  -2.063   0.004  0.00  0.00    +0.002 C 
ATOM     11  C   UNL     1      -0.673  -2.570   1.244  0.00  0.00    +0.022 C 
ATOM     12  C   UNL     1       0.763  -2.041   1.233  0.00  0.00    +0.078 C 
ATOM     13  C   UNL     1       0.742  -0.511   1.242  0.00  0.00    +0.009 C 
ATOM     14  C   UNL     1       0.026  -0.018   2.500  0.00  0.00    +0.009 C 
ENDBRANCH   1  12
BRANCH   4  15
ATOM     15  C   UNL     1       3.344  -5.506   3.483  0.00  0.00    +0.137 C 
ATOM     16  C   UNL     1       2.286  -6.579   3.220  0.00  0.00    +0.037 C 
ATOM     17  C   UNL     1       1.229  -6.535   4.325  0.00  0.00    +0.003 C 
ATOM     18  C   UNL     1       1.894  -6.796   5.678  0.00  0.00    +0.000 C 
ATOM     19  C   UNL     1       2.953  -5.723   5.941  0.00  0.00    +0.003 C 
ATOM     20  C   UNL     1       4.010  -5.767   4.836  0.00  0.00    +0.037 C 
BRANCH  15  21
ATOM     21  C   UNL     1       4.385  -5.550   2.394  0.00  0.00    +0.379 C 
ATOM     22  O   UNL     1       4.578  -4.569   1.696  0.00  0.00    -0.244 OA
ATOM     23  O   UNL     1       5.035  -6.566   2.212  0.00  0.00    -0.244 OA
ENDBRANCH  15  21
ENDBRANCH   4  15
TORSDOF 3
