REMARK  Name = ZINC06743669
REMARK  10 active torsions:
REMARK  status: ('A' for Active; 'I' for Inactive)
REMARK    1  A    between atoms: C_1  and  C_2
REMARK    2  A    between atoms: C_2  and  C_3
REMARK    3  A    between atoms: C_3  and  C_4
REMARK    4  A    between atoms: C_4  and  O_5
REMARK    5  A    between atoms: O_5  and  C_6
REMARK    6  A    between atoms: C_9  and  C_12
REMARK    7  A    between atoms: C_16  and  O_29
REMARK    8  A    between atoms: C_21  and  C_23
REMARK    9  A    between atoms: O_29  and  C_30
REMARK   10  A    between atoms: C_30  and  C_31
REMARK                            x       y       z     vdW  Elec       q    Type
REMARK                         _______ _______ _______ _____ _____    ______ ____
ROOT
ATOM      1  C   UNL     1      -3.412  -8.126  -0.009  0.00  0.00    +0.162 C 
ATOM      2  N   UNL     1      -2.327  -8.831  -0.013  0.00  0.00    -0.226 NA
ATOM      3  C   UNL     1      -2.248 -10.193  -0.009  0.00  0.00    +0.091 A 
ATOM      4  C   UNL     1      -1.272 -10.834  -0.773  0.00  0.00    +0.075 A 
ATOM      5  C   UNL     1      -1.165 -12.216  -0.740  0.00  0.00    +0.123 A 
ATOM      6  C   UNL     1      -2.024 -12.963   0.051  0.00  0.00    +0.047 A 
ATOM      7  C   UNL     1      -3.005 -12.332   0.801  0.00  0.00    +0.029 A 
ATOM      8  C   UNL     1      -3.131 -10.959   0.760  0.00  0.00    +0.058 A 
ATOM      9  N   UNL     1      -4.188 -10.325   1.453  0.00  0.00    -0.297 N 
ATOM     10  C   UNL     1      -5.087  -9.585   0.716  0.00  0.00    +0.133 C 
ATOM     11  N   UNL     1      -4.678  -8.575  -0.005  0.00  0.00    -0.212 NA
ATOM     12  H   UNL     1      -4.277 -10.409   2.415  0.00  0.00    +0.154 HD
ENDROOT
BRANCH   1  16
ATOM     13  C   UNL     1      -2.913  -3.906   0.009  0.00  0.00    +0.121 A 
ATOM     14  C   UNL     1      -1.798  -4.736  -0.001  0.00  0.00    +0.046 A 
ATOM     15  C   UNL     1      -1.956  -6.105  -0.006  0.00  0.00    +0.015 A 
ATOM     16  C   UNL     1      -3.239  -6.658  -0.003  0.00  0.00    +0.019 A 
ATOM     17  C   UNL     1      -4.356  -5.821   0.007  0.00  0.00    +0.015 A 
ATOM     18  C   UNL     1      -4.190  -4.453   0.018  0.00  0.00    +0.046 A 
BRANCH  13  19
ATOM     19  O   UNL     1      -2.753  -2.558   0.015  0.00  0.00    -0.492 OA
BRANCH  19  20
ATOM     20  C   UNL     1      -1.413  -2.063   0.004  0.00  0.00    +0.229 C 
BRANCH  20  21
ATOM     21  C   UNL     1      -1.433  -0.534   0.013  0.00  0.00    +0.041 C 
BRANCH  21  23
ATOM     22  C   UNL     1      -0.019   1.526   0.010  0.00  0.00    +0.004 C 
ATOM     23  C   UNL     1       0.002  -0.004   0.002  0.00  0.00    -0.000 C 
ENDBRANCH  21  23
ENDBRANCH  20  21
ENDBRANCH  19  20
ENDBRANCH  13  19
ENDBRANCH   1  16
BRANCH  10  24
ATOM     24  C   UNL     1      -6.523  -9.934   0.746  0.00  0.00    +0.018 A 
ATOM     25  C   UNL     1      -6.988 -11.005   1.518  0.00  0.00    +0.031 A 
ATOM     26  C   UNL     1      -8.338 -11.296   1.516  0.00  0.00    +0.111 A 
ATOM     27  N   UNL     1      -9.183 -10.581   0.800  0.00  0.00    -0.263 NA
ATOM     28  C   UNL     1      -8.788  -9.564   0.060  0.00  0.00    +0.111 A 
ATOM     29  C   UNL     1      -7.458  -9.199   0.007  0.00  0.00    +0.031 A 
ENDBRANCH  10  24
BRANCH   5  30
ATOM     30  O   UNL     1      -0.216 -12.841  -1.487  0.00  0.00    -0.492 OA
BRANCH  30  31
ATOM     31  C   UNL     1      -0.161 -14.267  -1.407  0.00  0.00    +0.225 C 
ATOM     32  C   UNL     1       0.960 -14.786  -2.309  0.00  0.00    +0.048 C 
ENDBRANCH  30  31
ENDBRANCH   5  30
TORSDOF 8
