REMARK  Name = ZINC36604696
REMARK  14 active torsions:
REMARK  status: ('A' for Active; 'I' for Inactive)
REMARK    1  A    between atoms: C_1  and  C_2
REMARK    2  A    between atoms: C_2  and  C_3
REMARK    3  A    between atoms: C_2  and  C_4
REMARK    4  A    between atoms: C_2  and  C_5
REMARK    5  A    between atoms: C_5  and  C_6
REMARK    6  A    between atoms: C_6  and  C_7
REMARK    7  A    between atoms: C_6  and  C_8
REMARK    8  A    between atoms: C_6  and  N_9
REMARK    9  A    between atoms: C_10  and  C_12
REMARK   10  A    between atoms: C_12  and  C_14
REMARK   11  A    between atoms: C_12  and  N_21
REMARK   12  A    between atoms: C_19  and  O_20
REMARK   13  A    between atoms: N_21  and  C_22
REMARK   14  A    between atoms: C_28  and  C_30
REMARK                            x       y       z     vdW  Elec       q    Type
REMARK                         _______ _______ _______ _____ _____    ______ ____
ROOT
ATOM      1  C   UNL     1       5.328  -0.671  -4.146  0.00  0.00    +0.201 C 
ENDROOT
BRANCH   1   2
ATOM      2  C   UNL     1       4.680   0.230  -5.165  0.00  0.00    +0.024 A 
ATOM      3  C   UNL     1       3.942   1.322  -4.753  0.00  0.00    +0.009 A 
ATOM      4  C   UNL     1       3.347   2.149  -5.688  0.00  0.00    +0.001 A 
ATOM      5  C   UNL     1       3.490   1.886  -7.038  0.00  0.00    +0.004 A 
ATOM      6  C   UNL     1       4.228   0.795  -7.455  0.00  0.00    +0.046 A 
ATOM      7  C   UNL     1       4.830  -0.033  -6.519  0.00  0.00    +0.122 A 
BRANCH   7   8
ATOM      8  O   UNL     1       5.561  -1.103  -6.928  0.00  0.00    -0.506 OA
ATOM      9  H   UNL     1       5.064  -1.932  -6.956  0.00  0.00    +0.292 HD
ENDBRANCH   7   8
ENDBRANCH   1   2
BRANCH   1  11
ATOM     10  N   UNL     1       3.368  -1.160  -2.718  0.00  0.00    -0.308 N 
ATOM     11  C   UNL     1       4.577  -0.577  -2.843  0.00  0.00    +0.239 C 
ATOM     12  O   UNL     1       5.059   0.024  -1.907  0.00  0.00    -0.273 OA
ATOM     13  H   UNL     1       2.999  -1.674  -3.454  0.00  0.00    +0.149 HD
BRANCH  10  14
ATOM     14  C   UNL     1       2.611  -1.018  -1.472  0.00  0.00    +0.030 C 
ATOM     15  C   UNL     1       2.486   0.465  -1.118  0.00  0.00    +0.031 C 
ATOM     16  C   UNL     1       3.341  -1.752  -0.345  0.00  0.00    +0.031 C 
BRANCH  14  17
ATOM     17  C   UNL     1       1.215  -1.618  -1.652  0.00  0.00    +0.031 C 
BRANCH  17  19
ATOM     18  C   UNL     1       1.230  -2.081  -4.107  0.00  0.00    +0.010 C 
ATOM     19  C   UNL     1       0.647  -1.192  -3.007  0.00  0.00    -0.036 C 
ATOM     20  C   UNL     1       1.019   0.267  -3.280  0.00  0.00    +0.010 C 
ATOM     21  C   UNL     1      -0.876  -1.335  -2.989  0.00  0.00    +0.010 C 
ENDBRANCH  17  19
ENDBRANCH  14  17
ENDBRANCH  10  14
ENDBRANCH   1  11
BRANCH   1  22
ATOM     22  N   UNL     1       6.718  -0.256  -3.939  0.00  0.00    -0.255 N 
ATOM     23  C   UNL     1       7.726  -1.082  -4.283  0.00  0.00    +0.224 C 
ATOM     24  O   UNL     1       7.484  -2.203  -4.677  0.00  0.00    -0.275 OA
BRANCH  22  25
ATOM     25  C   UNL     1       6.998   0.998  -3.386  0.00  0.00    +0.037 A 
ATOM     26  C   UNL     1       7.704   1.090  -2.194  0.00  0.00    +0.023 A 
ATOM     27  C   UNL     1       7.980   2.330  -1.650  0.00  0.00    +0.002 A 
ATOM     28  C   UNL     1       7.554   3.478  -2.292  0.00  0.00    +0.000 A 
ATOM     29  C   UNL     1       6.850   3.390  -3.479  0.00  0.00    +0.002 A 
ATOM     30  C   UNL     1       6.576   2.153  -4.031  0.00  0.00    +0.023 A 
ENDBRANCH  22  25
BRANCH  23  31
ATOM     31  C   UNL     1       9.154  -0.613  -4.176  0.00  0.00    +0.076 C 
ATOM     32  C   UNL     1       9.400   0.505  -5.192  0.00  0.00    +0.013 C 
ATOM     33  C   UNL     1      10.850   0.982  -5.084  0.00  0.00    +0.001 C 
ATOM     34  C   UNL     1      11.794  -0.187  -5.373  0.00  0.00    +0.000 C 
ATOM     35  C   UNL     1      11.548  -1.305  -4.358  0.00  0.00    +0.001 C 
ATOM     36  C   UNL     1      10.098  -1.781  -4.466  0.00  0.00    +0.013 C 
ENDBRANCH  23  31
ENDBRANCH   1  22
TORSDOF 9
