REMARK  Name = ZINC15033708
REMARK  7 active torsions:
REMARK  status: ('A' for Active; 'I' for Inactive)
REMARK    1  A    between atoms: C_4  and  C_7
REMARK    2  A    between atoms: C_16  and  C_17
REMARK    3  A    between atoms: C_16  and  N_53
REMARK    4  A    between atoms: N_19  and  C_20
REMARK    5  A    between atoms: C_20  and  C_21
REMARK    6  A    between atoms: C_24  and  S_27
REMARK    7  A    between atoms: S_27  and  N_30
REMARK                            x       y       z     vdW  Elec       q    Type
REMARK                         _______ _______ _______ _____ _____    ______ ____
ROOT
ATOM      1  C   UNL     1      -0.927   1.718   3.671  0.00  0.00    +0.020 C 
ENDROOT
BRANCH   1  10
ATOM      2  C   UNL     1      -0.606   1.726   6.070  0.00  0.00    -0.005 C 
ATOM      3  C   UNL     1       0.273   1.167   7.186  0.00  0.00    -0.047 A 
ATOM      4  C   UNL     1      -0.095   1.150   8.529  0.00  0.00    +0.010 A 
ATOM      5  C   UNL     1       0.746   0.632   9.455  0.00  0.00    +0.045 A 
ATOM      6  S   UNL     1       2.137   0.132   8.450  0.00  0.00    -0.101 S 
ATOM      7  C   UNL     1       1.495   0.648   6.883  0.00  0.00    -0.010 A 
ATOM      8  C   UNL     1       2.114   0.555   5.526  0.00  0.00    +0.024 C 
ATOM      9  C   UNL     1       1.302   1.456   4.579  0.00  0.00    -0.072 C 
ATOM     10  N   UNL     1      -0.136   1.159   4.784  0.00  0.00    +0.393 N 
ATOM     11  H   UNL     1      -0.264   0.141   4.805  0.00  0.00    -0.080 HD
BRANCH   2  15
ATOM     12  C   UNL     1      -4.657   0.529   6.701  0.00  0.00    +0.000 A 
ATOM     13  C   UNL     1      -4.252   1.804   7.047  0.00  0.00    +0.000 A 
ATOM     14  C   UNL     1      -2.941   2.192   6.843  0.00  0.00    +0.002 A 
ATOM     15  C   UNL     1      -2.035   1.304   6.293  0.00  0.00    -0.057 A 
ATOM     16  C   UNL     1      -2.442   0.030   5.942  0.00  0.00    +0.002 A 
ATOM     17  C   UNL     1      -3.752  -0.359   6.150  0.00  0.00    +0.000 A 
ENDBRANCH   2  15
ENDBRANCH   1  10
BRANCH   1  18
ATOM     18  C   UNL     1      -0.689   3.200   3.534  0.00  0.00    +0.197 C 
ATOM     19  O   UNL     1      -0.007   3.782   4.352  0.00  0.00    -0.278 OA
ATOM     20  N   UNL     1      -1.232   3.878   2.504  0.00  0.00    -0.313 N 
ATOM     21  H   UNL     1      -1.776   3.412   1.850  0.00  0.00    +0.149 HD
BRANCH  20  22
ATOM     22  C   UNL     1      -0.999   5.318   2.371  0.00  0.00    +0.139 C 
BRANCH  22  23
ATOM     23  C   UNL     1      -1.711   5.831   1.146  0.00  0.00    -0.030 A 
ATOM     24  C   UNL     1      -1.059   5.854  -0.073  0.00  0.00    +0.007 A 
ATOM     25  C   UNL     1      -1.714   6.319  -1.198  0.00  0.00    +0.029 A 
ATOM     26  C   UNL     1      -3.016   6.772  -1.103  0.00  0.00    +0.105 A 
ATOM     27  C   UNL     1      -3.666   6.755   0.118  0.00  0.00    +0.029 A 
ATOM     28  C   UNL     1      -3.014   6.284   1.242  0.00  0.00    +0.007 A 
BRANCH  26  29
ATOM     29  S   UNL     1      -3.848   7.371  -2.535  0.00  0.00    +0.056 S 
ATOM     30  O   UNL     1      -3.209   6.774  -3.655  0.00  0.00    -0.153 OA
ATOM     31  O   UNL     1      -5.240   7.228  -2.287  0.00  0.00    -0.153 OA
BRANCH  29  32
ATOM     32  N   UNL     1      -3.550   8.997  -2.631  0.00  0.00    -0.204 NA
ATOM     33  H   UNL     1      -3.000   9.430  -1.959  0.00  0.00    +0.144 HD
ATOM     34  H   UNL     1      -3.924   9.517  -3.359  0.00  0.00    +0.144 HD
ENDBRANCH  29  32
ENDBRANCH  26  29
ENDBRANCH  22  23
ENDBRANCH  20  22
ENDBRANCH   1  18
TORSDOF 7
