REMARK  Name = ZINC09427268
REMARK  9 active torsions:
REMARK  status: ('A' for Active; 'I' for Inactive)
REMARK    1  A    between atoms: C_1  and  C_2
REMARK    2  A    between atoms: C_2  and  C_3
REMARK    3  A    between atoms: C_5  and  C_31
REMARK    4  A    between atoms: C_5  and  C_32
REMARK    5  A    between atoms: C_10  and  C_30
REMARK    6  A    between atoms: C_19  and  C_23
REMARK    7  A    between atoms: C_25  and  N_29
REMARK    8  A    between atoms: C_26  and  C_27
REMARK    9  A    between atoms: C_32  and  C_33
REMARK                            x       y       z     vdW  Elec       q    Type
REMARK                         _______ _______ _______ _____ _____    ______ ____
ROOT
ATOM      1  C   UNL     1      -0.279   3.901   2.142  0.00  0.00    -0.041 C 
ATOM      2  C   UNL     1      -0.788   3.077   1.241  0.00  0.00    +0.003 C 
ATOM      3  C   UNL     1      -0.729   1.579   1.267  0.00  0.00    +0.058 C 
ATOM      4  N   UNL     1      -0.012   1.088   2.450  0.00  0.00    -0.260 N 
ATOM      5  C   UNL     1       0.517   1.963   3.389  0.00  0.00    +0.049 A 
ATOM      6  C   UNL     1       0.430   3.366   3.313  0.00  0.00    -0.000 A 
ATOM      7  C   UNL     1       1.016   4.084   4.341  0.00  0.00    +0.013 A 
ATOM      8  C   UNL     1       1.652   3.425   5.381  0.00  0.00    -0.049 A 
ATOM      9  C   UNL     1       1.736   2.035   5.451  0.00  0.00    +0.010 A 
ATOM     10  C   UNL     1       1.155   1.311   4.431  0.00  0.00    -0.000 A 
ATOM     11  C   UNL     1       1.017  -0.144   4.120  0.00  0.00    +0.148 C 
ATOM     12  C   UNL     1       0.243  -0.183   2.811  0.00  0.00    +0.241 C 
ATOM     13  O   UNL     1      -0.085  -1.180   2.203  0.00  0.00    -0.273 OA
ATOM     14  C   UNL     1       2.360  -0.787   3.931  0.00  0.00    +0.104 A 
ATOM     15  C   UNL     1       2.862  -1.653   4.882  0.00  0.00    +0.145 A 
ATOM     16  C   UNL     1       4.132  -2.231   4.656  0.00  0.00    +0.088 A 
ATOM     17  C   UNL     1       4.809  -1.927   3.534  0.00  0.00    +0.110 A 
ATOM     18  O   UNL     1       4.324  -1.088   2.613  0.00  0.00    -0.427 OA
ATOM     19  C   UNL     1       3.124  -0.519   2.790  0.00  0.00    +0.345 A 
ATOM     20  O   UNL     1       2.691   0.246   1.944  0.00  0.00    -0.245 OA
ATOM     21  C   UNL     1       6.162  -2.552   3.309  0.00  0.00    +0.086 C 
ATOM     22  O   UNL     1       2.167  -1.944   5.999  0.00  0.00    -0.441 OA
ATOM     23  C   UNL     1       0.845  -1.701   6.053  0.00  0.00    +0.199 C 
ATOM     24  C   UNL     1       0.236  -0.853   5.189  0.00  0.00    +0.110 C 
ATOM     25  C   UNL     1       2.276   4.244   6.482  0.00  0.00    +0.044 C 
ATOM     26  C   UNL     1      -2.155   1.024   1.280  0.00  0.00    +0.037 C 
ENDROOT
BRANCH  23  27
ATOM     27  N   UNL     1       0.091  -2.328   7.013  0.00  0.00    -0.328 N 
ATOM     28  H   UNL     1      -0.863  -2.163   7.066  0.00  0.00    +0.145 HD
ATOM     29  H   UNL     1       0.513  -2.938   7.639  0.00  0.00    +0.145 HD
ENDBRANCH  23  27
BRANCH   1  31
ATOM     30  C   UNL     1      -1.650   5.876   2.747  0.00  0.00    +0.009 C 
ATOM     31  C   UNL     1      -0.426   5.390   1.967  0.00  0.00    +0.032 C 
ENDBRANCH   1  31
BRANCH  24  32
ATOM     32  C   UNL     1      -1.174  -0.631   5.296  0.00  0.00    +0.102 C 
ATOM     33  N   UNL     1      -2.293  -0.455   5.381  0.00  0.00    -0.191 NA
ENDBRANCH  24  32
BRANCH   3  34
ATOM     34  C   UNL     1      -0.013   1.086   0.008  0.00  0.00    +0.027 C 
ATOM     35  C   UNL     1      -0.753   1.593  -1.232  0.00  0.00    +0.006 C 
ENDBRANCH   3  34
TORSDOF 4
