REMARK  Name = ZINC44908412
REMARK  13 active torsions:
REMARK  status: ('A' for Active; 'I' for Inactive)
REMARK    1  A    between atoms: C_1  and  C_2
REMARK    2  A    between atoms: C_2  and  C_3
REMARK    3  A    between atoms: N_9  and  C_10
REMARK    4  A    between atoms: C_10  and  C_11
REMARK    5  A    between atoms: C_11  and  C_12
REMARK    6  A    between atoms: C_12  and  N_13
REMARK    7  A    between atoms: C_14  and  C_16
REMARK    8  A    between atoms: N_19  and  S_31
REMARK    9  A    between atoms: C_22  and  C_27
REMARK   10  A    between atoms: C_27  and  C_28
REMARK   11  A    between atoms: C_27  and  C_29
REMARK   12  A    between atoms: C_27  and  C_30
REMARK   13  A    between atoms: S_31  and  C_34
REMARK                            x       y       z     vdW  Elec       q    Type
REMARK                         _______ _______ _______ _____ _____    ______ ____
ROOT
ATOM      1  C   UNL     1      -3.558   5.801  -5.477  0.00  0.00    +0.277 C 
ATOM      2  C   UNL     1      -2.897   5.564  -6.843  0.00  0.00    +0.185 C 
ATOM      3  N   UNL     1      -3.797   6.109  -7.873  0.00  0.00    -0.200 N 
ATOM      4  C   UNL     1      -4.411   7.346  -7.616  0.00  0.00    +0.093 A 
ATOM      5  C   UNL     1      -5.029   8.041  -8.643  0.00  0.00    +0.032 A 
ATOM      6  C   UNL     1      -5.635   9.257  -8.385  0.00  0.00    -0.040 A 
ATOM      7  C   UNL     1      -5.623   9.778  -7.104  0.00  0.00    +0.008 A 
ATOM      8  C   UNL     1      -5.006   9.089  -6.077  0.00  0.00    +0.048 A 
ATOM      9  C   UNL     1      -4.395   7.870  -6.327  0.00  0.00    +0.144 A 
ATOM     10  O   UNL     1      -3.786   7.203  -5.310  0.00  0.00    -0.476 OA
ENDROOT
BRANCH   1  12
ATOM     11  N   UNL     1      -2.371   3.989  -4.283  0.00  0.00    -0.312 N 
ATOM     12  C   UNL     1      -2.649   5.304  -4.383  0.00  0.00    +0.255 C 
ATOM     13  O   UNL     1      -2.167   6.087  -3.592  0.00  0.00    -0.272 OA
ATOM     14  H   UNL     1      -2.757   3.362  -4.916  0.00  0.00    +0.149 HD
BRANCH  11  15
ATOM     15  C   UNL     1      -1.488   3.505  -3.220  0.00  0.00    +0.102 C 
BRANCH  15  16
ATOM     16  C   UNL     1      -1.340   1.986  -3.331  0.00  0.00    +0.000 C 
BRANCH  16  17
ATOM     17  C   UNL     1      -0.417   1.481  -2.220  0.00  0.00    -0.077 C 
BRANCH  17  23
ATOM     18  C   UNL     1       0.527  -0.473  -1.202  0.00  0.00    -0.069 C 
ATOM     19  C   UNL     1       0.610  -2.000  -1.264  0.00  0.00    -0.015 C 
ATOM     20  C   UNL     1       1.266  -2.417  -2.583  0.00  0.00    -0.003 C 
ATOM     21  C   UNL     1       0.463  -1.831  -3.749  0.00  0.00    -0.019 C 
ATOM     22  C   UNL     1       0.386  -0.311  -3.595  0.00  0.00    -0.078 C 
ATOM     23  N   UNL     1      -0.275   0.023  -2.327  0.00  0.00    +0.382 N 
ATOM     24  H   UNL     1      -1.188  -0.405  -2.302  0.00  0.00    -0.081 HD
BRANCH  18  26
ATOM     25  C   UNL     1       0.746  -0.505   1.287  0.00  0.00    +0.002 C 
ATOM     26  C   UNL     1      -0.127  -0.051   0.115  0.00  0.00    -0.019 C 
ENDBRANCH  18  26
ENDBRANCH  17  23
ENDBRANCH  16  17
ENDBRANCH  15  16
ENDBRANCH  11  15
ENDBRANCH   1  12
BRANCH   6  27
ATOM     27  C   UNL     1      -6.308  10.014  -9.500  0.00  0.00    -0.013 C 
ATOM     28  C   UNL     1      -7.431   9.160 -10.091  0.00  0.00    +0.015 C 
ATOM     29  C   UNL     1      -6.894  11.317  -8.950  0.00  0.00    +0.015 C 
ATOM     30  C   UNL     1      -5.284  10.336 -10.590  0.00  0.00    +0.015 C 
ENDBRANCH   6  27
BRANCH   3  31
ATOM     31  S   UNL     1      -4.076   5.292  -9.286  0.00  0.00    +0.043 S 
ATOM     32  O   UNL     1      -3.680   3.954  -9.016  0.00  0.00    -0.155 OA
ATOM     33  O   UNL     1      -5.423   5.595  -9.621  0.00  0.00    -0.155 OA
ATOM     34  C   UNL     1      -2.948   6.045 -10.491  0.00  0.00    +0.218 C 
ENDBRANCH   3  31
TORSDOF 8
