REMARK  Name = ZINC40744458
REMARK  12 active torsions:
REMARK  status: ('A' for Active; 'I' for Inactive)
REMARK    1  A    between atoms: C_1  and  C_2
REMARK    2  A    between atoms: C_2  and  C_3
REMARK    3  A    between atoms: C_2  and  O_4
REMARK    4  A    between atoms: O_4  and  C_5
REMARK    5  A    between atoms: C_6  and  C_14
REMARK    6  A    between atoms: C_10  and  O_11
REMARK    7  A    between atoms: O_11  and  C_12
REMARK    8  A    between atoms: C_14  and  N_15
REMARK    9  A    between atoms: N_15  and  C_16
REMARK   10  A    between atoms: C_16  and  C_17
REMARK   11  A    between atoms: C_17  and  N_18
REMARK   12  A    between atoms: C_19  and  C_21
REMARK                            x       y       z     vdW  Elec       q    Type
REMARK                         _______ _______ _______ _____ _____    ______ ____
ROOT
ATOM      1  N   UNL     1      -0.497   0.119  -3.142  0.00  0.00    +0.383 N 
ATOM      2  H   UNL     1       0.063   0.263  -2.316  0.00  0.00    -0.085 HD
ATOM      3  H   UNL     1      -0.095  -0.623  -3.696  0.00  0.00    -0.085 HD
ENDROOT
BRANCH   1   4
ATOM      4  C   UNL     1      -1.864  -0.247  -2.750  0.00  0.00    -0.043 C 
BRANCH   4   6
ATOM      5  C   UNL     1      -1.510  -1.619  -0.684  0.00  0.00    +0.164 A 
ATOM      6  C   UNL     1      -1.842  -1.569  -2.028  0.00  0.00    -0.018 A 
ATOM      7  C   UNL     1      -2.155  -2.733  -2.706  0.00  0.00    +0.025 A 
ATOM      8  C   UNL     1      -2.136  -3.948  -2.046  0.00  0.00    +0.045 A 
ATOM      9  C   UNL     1      -1.806  -4.004  -0.704  0.00  0.00    +0.069 A 
ATOM     10  C   UNL     1      -1.486  -2.842  -0.020  0.00  0.00    +0.163 A 
ATOM     11 CL   UNL     1      -2.530  -5.406  -2.903  0.00  0.00    -0.083 Cl
BRANCH  10  12
ATOM     12  O   UNL     1      -1.154  -2.896   1.298  0.00  0.00    -0.491 OA
ATOM     13  C   UNL     1      -1.150  -4.185   1.913  0.00  0.00    +0.277 C 
ENDBRANCH  10  12
BRANCH   5  14
ATOM     14  O   UNL     1      -1.203  -0.475  -0.015  0.00  0.00    -0.486 OA
BRANCH  14  16
ATOM     15  C   UNL     1       0.323   1.399  -0.037  0.00  0.00    +0.051 C 
ATOM     16  C   UNL     1       0.179  -0.121   0.064  0.00  0.00    +0.168 C 
ATOM     17  C   UNL     1       0.754  -0.600   1.398  0.00  0.00    +0.051 C 
ENDBRANCH  14  16
ENDBRANCH   5  14
ENDBRANCH   4   6
ENDBRANCH   1   4
BRANCH   1  18
ATOM     18  C   UNL     1      -0.529   1.357  -3.933  0.00  0.00    -0.063 C 
BRANCH  18  19
ATOM     19  C   UNL     1       0.895   1.739  -4.341  0.00  0.00    +0.085 C 
BRANCH  19  20
ATOM     20  N   UNL     1       0.863   2.973  -5.130  0.00  0.00    -0.312 N 
ATOM     21  C   UNL     1       2.010   3.502  -5.601  0.00  0.00    +0.269 C 
ATOM     22  O   UNL     1       3.071   2.954  -5.372  0.00  0.00    -0.268 OA
ATOM     23  H   UNL     1       0.017   3.410  -5.312  0.00  0.00    +0.149 HD
BRANCH  21  24
ATOM     24  C   UNL     1       1.978   4.750  -6.398  0.00  0.00    +0.209 A 
ATOM     25  C   UNL     1       3.141   5.431  -6.976  0.00  0.00    +0.192 A 
ATOM     26  N   UNL     1       2.722   6.494  -7.607  0.00  0.00    -0.033 NA
ATOM     27  O   UNL     1       1.313   6.553  -7.474  0.00  0.00    -0.240 OA
ATOM     28  N   UNL     1       0.906   5.431  -6.712  0.00  0.00    -0.042 NA
ATOM     29  N   UNL     1       4.462   5.017  -6.869  0.00  0.00    -0.339 N 
ATOM     30  H   UNL     1       4.678   4.209  -6.378  0.00  0.00    +0.144 HD
ATOM     31  H   UNL     1       5.168   5.534  -7.287  0.00  0.00    +0.144 HD
ENDBRANCH  21  24
ENDBRANCH  19  20
ENDBRANCH  18  19
ENDBRANCH   1  18
TORSDOF 9
