REMARK  Name = ZINC36309184
REMARK  17 active torsions:
REMARK  status: ('A' for Active; 'I' for Inactive)
REMARK    1  A    between atoms: C_1  and  C_2
REMARK    2  A    between atoms: C_5  and  O_8
REMARK    3  A    between atoms: O_8  and  C_9
REMARK    4  A    between atoms: C_9  and  C_10
REMARK    5  A    between atoms: C_20  and  C_22
REMARK    6  A    between atoms: C_22  and  N_23
REMARK    7  A    between atoms: N_23  and  C_24
REMARK    8  A    between atoms: N_23  and  C_27
REMARK    9  A    between atoms: C_24  and  C_25
REMARK   10  A    between atoms: C_27  and  C_28
REMARK   11  A    between atoms: C_28  and  C_30
REMARK   12  A    between atoms: C_28  and  O_36
REMARK   13  A    between atoms: C_30  and  O_31
REMARK   14  A    between atoms: O_31  and  C_32
REMARK   15  A    between atoms: C_32  and  C_33
REMARK   16  A    between atoms: C_32  and  C_34
REMARK   17  A    between atoms: C_32  and  C_35
REMARK                            x       y       z     vdW  Elec       q    Type
REMARK                         _______ _______ _______ _____ _____    ______ ____
ROOT
ATOM      1  C   UNL     1       0.851  -5.446   0.792  0.00  0.00    +0.144 C 
ATOM      2  C   UNL     1      -0.323  -5.605  -0.173  0.00  0.00    -0.014 A 
ATOM      3  C   UNL     1      -1.642  -5.318   0.174  0.00  0.00    +0.013 A 
ATOM      4  C   UNL     1      -2.631  -5.478  -0.734  0.00  0.00    +0.046 A 
ATOM      5  S   UNL     1      -1.728  -6.058  -2.163  0.00  0.00    -0.101 S 
ATOM      6  C   UNL     1      -0.107  -6.046  -1.442  0.00  0.00    -0.004 A 
ATOM      7  C   UNL     1       1.191  -6.431  -2.073  0.00  0.00    +0.061 C 
ATOM      8  C   UNL     1       2.339  -5.881  -1.212  0.00  0.00    +0.113 C 
ATOM      9  N   UNL     1       2.013  -6.123   0.203  0.00  0.00    -0.292 N 
ATOM     10  C   UNL     1       2.769  -6.955   0.947  0.00  0.00    +0.200 C 
ATOM     11  O   UNL     1       2.492  -7.148   2.111  0.00  0.00    -0.278 OA
ENDROOT
BRANCH   1  12
ATOM     12  C   UNL     1       1.161  -3.961   0.989  0.00  0.00    +0.256 C 
BRANCH  12  13
ATOM     13  O   UNL     1       1.369  -3.344  -0.283  0.00  0.00    -0.490 OA
BRANCH  13  18
ATOM     14  C   UNL     1       2.562   2.160  -0.294  0.00  0.00    +0.044 C 
ATOM     15  C   UNL     1       2.243   0.688  -0.291  0.00  0.00    -0.050 A 
ATOM     16  C   UNL     1       2.163  -0.004  -1.486  0.00  0.00    +0.007 A 
ATOM     17  C   UNL     1       1.871  -1.354  -1.486  0.00  0.00    +0.046 A 
ATOM     18  C   UNL     1       1.657  -2.016  -0.286  0.00  0.00    +0.121 A 
ATOM     19  C   UNL     1       1.738  -1.321   0.912  0.00  0.00    +0.046 A 
ATOM     20  C   UNL     1       2.036   0.029   0.907  0.00  0.00    +0.007 A 
ENDBRANCH  13  18
ENDBRANCH  12  13
ENDBRANCH   1  12
BRANCH  10  21
ATOM     21  C   UNL     1       3.960  -7.644   0.332  0.00  0.00    +0.019 C 
BRANCH  21  22
ATOM     22  N   UNL     1       4.612  -8.489   1.341  0.00  0.00    +0.389 N 
ATOM     23  H   UNL     1       4.844  -7.930   2.148  0.00  0.00    -0.081 HD
BRANCH  22  24
ATOM     24  C   UNL     1       3.700  -9.569   1.739  0.00  0.00    -0.051 C 
BRANCH  24  25
ATOM     25  C   UNL     1       3.300 -10.363   0.522  0.00  0.00    -0.053 C 
ATOM     26  C   UNL     1       3.513 -11.655   0.484  0.00  0.00    +0.002 C 
ENDBRANCH  24  25
ENDBRANCH  22  24
BRANCH  22  27
ATOM     27  C   UNL     1       5.839  -9.067   0.777  0.00  0.00    -0.044 C 
BRANCH  27  28
ATOM     28  C   UNL     1       6.603  -9.813   1.873  0.00  0.00    +0.124 C 
BRANCH  28  29
ATOM     29  O   UNL     1       7.025  -8.885   2.875  0.00  0.00    -0.391 OA
ATOM     30  H   UNL     1       7.609  -8.188   2.545  0.00  0.00    +0.210 HD
ENDBRANCH  28  29
BRANCH  28  31
ATOM     31  C   UNL     1       7.827 -10.500   1.265  0.00  0.00    +0.189 C 
BRANCH  31  32
ATOM     32  O   UNL     1       8.474 -11.291   2.264  0.00  0.00    -0.372 OA
BRANCH  32  33
ATOM     33  C   UNL     1       9.636 -11.979   1.798  0.00  0.00    +0.061 C 
ATOM     34  C   UNL     1      10.662 -10.963   1.292  0.00  0.00    +0.041 C 
ATOM     35  C   UNL     1      10.244 -12.789   2.944  0.00  0.00    +0.041 C 
ATOM     36  C   UNL     1       9.247 -12.922   0.657  0.00  0.00    +0.041 C 
ENDBRANCH  32  33
ENDBRANCH  31  32
ENDBRANCH  28  31
ENDBRANCH  27  28
ENDBRANCH  22  27
ENDBRANCH  21  22
ENDBRANCH  10  21
TORSDOF 13
