REMARK  Name = ZINC05224810
REMARK  2 active torsions:
REMARK  status: ('A' for Active; 'I' for Inactive)
REMARK    1  A    between atoms: N_8  and  N_9
REMARK    2  A    between atoms: N_23  and  N_24
REMARK                            x       y       z     vdW  Elec       q    Type
REMARK                         _______ _______ _______ _____ _____    ______ ____
ROOT
ATOM      1  C   UNL     1      -1.388  -3.401  -0.181  0.00  0.00    +0.009 C 
ATOM      2  C   UNL     1      -0.612  -2.196  -0.756  0.00  0.00    +0.002 C 
ATOM      3  C   UNL     1       0.783  -2.362  -0.033  0.00  0.00    +0.002 C 
ATOM      4  C   UNL     1       1.235  -0.886  -0.014  0.00  0.00    +0.057 C 
ATOM      5  C   UNL     1       0.002  -0.004   0.002  0.00  0.00    +0.041 C 
ATOM      6  N   UNL     1      -0.015   1.288   0.009  0.00  0.00    -0.188 NA
ATOM      7  C   UNL     1      -1.240  -0.949   0.009  0.00  0.00    +0.047 C 
ATOM      8  C   UNL     1      -1.163  -1.560   1.387  0.00  0.00    +0.047 C 
ATOM      9  C   UNL     1      -1.109  -3.138   1.329  0.00  0.00    +0.002 C 
ATOM     10  C   UNL     1       0.471  -2.916   1.397  0.00  0.00    +0.002 C 
ATOM     11  C   UNL     1       0.605  -1.842   2.524  0.00  0.00    +0.057 C 
ATOM     12  C   UNL     1      -0.831  -1.270   2.789  0.00  0.00    +0.041 C 
ATOM     13  N   UNL     1      -1.440  -0.773   3.782  0.00  0.00    -0.188 NA
ENDROOT
BRANCH   6  14
ATOM     14  N   UNL     1       1.188   2.004   0.002  0.00  0.00    -0.191 N 
ATOM     15  C   UNL     1       1.170   3.352   0.009  0.00  0.00    +0.317 C 
ATOM     16  O   UNL     1       2.215   3.974   0.002  0.00  0.00    -0.251 OA
ATOM     17  N   UNL     1      -0.006   4.010   0.024  0.00  0.00    -0.312 N 
ATOM     18  H   UNL     1       2.035   1.531  -0.009  0.00  0.00    +0.179 HD
ATOM     19  H   UNL     1      -0.840   3.514   0.029  0.00  0.00    +0.147 HD
ATOM     20  H   UNL     1      -0.019   4.980   0.029  0.00  0.00    +0.147 HD
ENDBRANCH   6  14
BRANCH  13  21
ATOM     21  N   UNL     1      -0.785  -0.644   5.013  0.00  0.00    -0.191 N 
ATOM     22  C   UNL     1      -1.434  -0.115   6.069  0.00  0.00    +0.317 C 
ATOM     23  O   UNL     1      -0.865  -0.002   7.138  0.00  0.00    -0.251 OA
ATOM     24  N   UNL     1      -2.713   0.290   5.941  0.00  0.00    -0.312 N 
ATOM     25  H   UNL     1       0.136  -0.935   5.106  0.00  0.00    +0.179 HD
ATOM     26  H   UNL     1      -3.166   0.201   5.088  0.00  0.00    +0.147 HD
ATOM     27  H   UNL     1      -3.180   0.671   6.701  0.00  0.00    +0.147 HD
ENDBRANCH  13  21
TORSDOF 2
