REMARK  Name = ZINC57642029
REMARK  13 active torsions:
REMARK  status: ('A' for Active; 'I' for Inactive)
REMARK    1  A    between atoms: C_1  and  C_2
REMARK    2  A    between atoms: C_2  and  C_3
REMARK    3  A    between atoms: C_3  and  C_5
REMARK    4  A    between atoms: C_3  and  N_16
REMARK    5  A    between atoms: N_9  and  C_10
REMARK    6  A    between atoms: N_16  and  C_17
REMARK    7  A    between atoms: N_16  and  C_26
REMARK    8  A    between atoms: C_17  and  C_18
REMARK    9  A    between atoms: C_21  and  O_24
REMARK   10  A    between atoms: O_24  and  C_25
REMARK   11  A    between atoms: C_26  and  C_27
REMARK   12  A    between atoms: C_32  and  C_40
REMARK   13  A    between atoms: C_33  and  C_39
REMARK                            x       y       z     vdW  Elec       q    Type
REMARK                         _______ _______ _______ _____ _____    ______ ____
ROOT
ATOM      1  N   UNL     1      -2.232  -0.403   1.644  0.00  0.00    -0.284 NA
ENDROOT
BRANCH   1   2
ATOM      2  C   UNL     1      -1.812  -1.285   0.546  0.00  0.00    +0.127 C 
BRANCH   2   3
ATOM      3  C   UNL     1      -2.085  -2.719   0.921  0.00  0.00    +0.169 A 
ATOM      4  N   UNL     1      -1.826  -3.289   2.073  0.00  0.00    -0.112 NA
ATOM      5  N   UNL     1      -2.204  -4.519   2.002  0.00  0.00    -0.023 NA
ATOM      6  N   UNL     1      -2.697  -4.748   0.835  0.00  0.00    -0.044 NA
ATOM      7  N   UNL     1      -2.647  -3.661   0.141  0.00  0.00    -0.225 N 
BRANCH   7   8
ATOM      8  C   UNL     1      -3.110  -3.486  -1.238  0.00  0.00    +0.111 C 
ATOM      9  C   UNL     1      -4.607  -3.791  -1.315  0.00  0.00    +0.027 C 
ATOM     10  C   UNL     1      -5.091  -3.608  -2.755  0.00  0.00    +0.002 C 
ATOM     11  C   UNL     1      -4.328  -4.563  -3.674  0.00  0.00    +0.000 C 
ATOM     12  C   UNL     1      -2.830  -4.258  -3.597  0.00  0.00    +0.002 C 
ATOM     13  C   UNL     1      -2.347  -4.441  -2.157  0.00  0.00    +0.027 C 
ENDBRANCH   7   8
ENDBRANCH   2   3
BRANCH   2  15
ATOM     14  C   UNL     1      -0.047   0.340  -0.150  0.00  0.00    +0.006 C 
ATOM     15  C   UNL     1      -0.316  -1.101   0.288  0.00  0.00    +0.023 C 
ENDBRANCH   2  15
ENDBRANCH   1   2
BRANCH   1  16
ATOM     16  C   UNL     1      -1.222  -0.372   2.710  0.00  0.00    +0.120 C 
BRANCH  16  17
ATOM     17  C   UNL     1      -1.837   0.182   3.969  0.00  0.00    -0.033 A 
ATOM     18  C   UNL     1      -1.692   1.522   4.277  0.00  0.00    +0.008 A 
ATOM     19  C   UNL     1      -2.255   2.032   5.431  0.00  0.00    +0.046 A 
ATOM     20  C   UNL     1      -2.966   1.199   6.281  0.00  0.00    +0.120 A 
ATOM     21  C   UNL     1      -3.111  -0.146   5.970  0.00  0.00    +0.046 A 
ATOM     22  C   UNL     1      -2.551  -0.650   4.812  0.00  0.00    +0.008 A 
BRANCH  20  23
ATOM     23  O   UNL     1      -3.521   1.698   7.417  0.00  0.00    -0.495 OA
ATOM     24  C   UNL     1      -4.239   0.782   8.245  0.00  0.00    +0.277 C 
ENDBRANCH  20  23
ENDBRANCH  16  17
ENDBRANCH   1  16
BRANCH   1  25
ATOM     25  C   UNL     1      -2.520   0.950   1.151  0.00  0.00    +0.126 C 
BRANCH  25  26
ATOM     26  C   UNL     1      -3.865   0.963   0.472  0.00  0.00    +0.031 A 
ATOM     27  C   UNL     1      -4.976   1.284   1.179  0.00  0.00    +0.020 A 
ATOM     28  C   UNL     1      -6.268   1.287   0.490  0.00  0.00    -0.001 A 
ATOM     29  C   UNL     1      -7.448   1.611   1.166  0.00  0.00    +0.010 A 
ATOM     30  C   UNL     1      -8.637   1.605   0.494  0.00  0.00    +0.004 A 
ATOM     31  C   UNL     1      -8.685   1.280  -0.855  0.00  0.00    -0.046 A 
ATOM     32  C   UNL     1      -7.534   0.958  -1.542  0.00  0.00    -0.024 A 
ATOM     33  C   UNL     1      -6.311   0.958  -0.878  0.00  0.00    +0.052 A 
ATOM     34  N   UNL     1      -5.145   0.640  -1.540  0.00  0.00    -0.322 N 
ATOM     35  H   UNL     1      -5.177   0.413  -2.483  0.00  0.00    +0.169 HD
ATOM     36  C   UNL     1      -3.963   0.645  -0.900  0.00  0.00    +0.254 A 
ATOM     37  O   UNL     1      -2.951   0.364  -1.518  0.00  0.00    -0.268 OA
ATOM     38  C   UNL     1      -7.600   0.606  -3.006  0.00  0.00    +0.046 C 
ATOM     39  C   UNL     1     -10.008   1.280  -1.576  0.00  0.00    +0.044 C 
ENDBRANCH  25  26
ENDBRANCH   1  25
TORSDOF 9
