REMARK  Name = ZINC23126400
REMARK  10 active torsions:
REMARK  status: ('A' for Active; 'I' for Inactive)
REMARK    1  A    between atoms: C_1  and  C_2
REMARK    2  A    between atoms: C_2  and  C_3
REMARK    3  A    between atoms: C_3  and  C_5
REMARK    4  A    between atoms: C_3  and  N_6
REMARK    5  A    between atoms: C_7  and  C_9
REMARK    6  A    between atoms: C_19  and  S_20
REMARK    7  A    between atoms: S_20  and  C_21
REMARK    8  A    between atoms: C_21  and  C_22
REMARK    9  A    between atoms: N_24  and  C_25
REMARK   10  A    between atoms: N_32  and  C_35
REMARK                            x       y       z     vdW  Elec       q    Type
REMARK                         _______ _______ _______ _____ _____    ______ ____
ROOT
ATOM      1  C   UNL     1       0.206   1.117   4.843  0.00  0.00    +0.039 A 
ATOM      2  C   UNL     1       1.582   0.897   4.734  0.00  0.00    +0.014 A 
ATOM      3  C   UNL     1       2.314   0.526   5.841  0.00  0.00    +0.016 A 
ATOM      4  C   UNL     1       1.679   0.372   7.072  0.00  0.00    +0.064 A 
ATOM      5  C   UNL     1       0.298   0.593   7.186  0.00  0.00    +0.065 A 
ATOM      6  C   UNL     1      -0.434   0.970   6.072  0.00  0.00    +0.040 A 
ATOM      7  N   UNL     1      -0.319   0.434   8.426  0.00  0.00    -0.256 N 
ATOM      8  C   UNL     1       0.410   0.066   9.524  0.00  0.00    +0.240 A 
ATOM      9  N   UNL     1      -0.414  -0.009  10.546  0.00  0.00    -0.109 NA
ATOM     10  N   UNL     1      -1.698   0.317  10.095  0.00  0.00    -0.120 NA
ATOM     11  C   UNL     1      -1.624   0.582   8.813  0.00  0.00    +0.198 A 
ATOM     12  N   UNL     1       1.775  -0.159   9.444  0.00  0.00    -0.280 N 
ATOM     13  C   UNL     1       2.436  -0.023   8.277  0.00  0.00    +0.263 A 
ATOM     14  O   UNL     1       3.634  -0.224   8.216  0.00  0.00    -0.267 OA
ATOM     15  C   UNL     1       2.513  -0.551  10.648  0.00  0.00    +0.155 C 
ENDROOT
BRANCH   1  17
ATOM     16  N   UNL     1       0.044   1.664   2.460  0.00  0.00    -0.309 N 
ATOM     17  C   UNL     1      -0.573   1.515   3.649  0.00  0.00    +0.244 C 
ATOM     18  O   UNL     1      -1.770   1.708   3.740  0.00  0.00    -0.270 OA
ATOM     19  H   UNL     1       1.127   1.490   2.377  0.00  0.00    +0.149 HD
BRANCH  16  20
ATOM     20  C   UNL     1      -0.727   2.058   1.278  0.00  0.00    +0.070 C 
ATOM     21  C   UNL     1      -0.855   3.582   1.237  0.00  0.00    +0.028 C 
BRANCH  20  23
ATOM     22  C   UNL     1       0.006   0.042  -0.003  0.00  0.00    +0.005 C 
ATOM     23  C   UNL     1      -0.011   1.572   0.017  0.00  0.00    +0.018 C 
ENDBRANCH  20  23
ENDBRANCH  16  20
ENDBRANCH   1  17
BRANCH  11  24
ATOM     24  S   UNL     1      -2.967   1.046   7.772  0.00  0.00    -0.076 S 
BRANCH  24  25
ATOM     25  C   UNL     1      -4.400   1.059   8.883  0.00  0.00    +0.173 C 
BRANCH  25  26
ATOM     26  C   UNL     1      -5.633   1.447   8.108  0.00  0.00    +0.227 C 
ATOM     27  O   UNL     1      -5.553   1.690   6.923  0.00  0.00    -0.275 OA
ATOM     28  N   UNL     1      -6.825   1.523   8.733  0.00  0.00    -0.285 N 
ATOM     29  H   UNL     1      -6.912   1.229   9.789  0.00  0.00    +0.155 HD
BRANCH  28  30
ATOM     30  C   UNL     1      -7.952   1.975   8.037  0.00  0.00    +0.033 A 
ATOM     31  C   UNL     1      -8.920   2.724   8.693  0.00  0.00    +0.025 A 
ATOM     32  C   UNL     1     -10.029   3.174   8.003  0.00  0.00    +0.022 A 
ATOM     33  C   UNL     1     -10.181   2.870   6.661  0.00  0.00    +0.041 A 
ATOM     34  C   UNL     1      -9.220   2.119   6.006  0.00  0.00    +0.022 A 
ATOM     35  C   UNL     1      -8.107   1.672   6.691  0.00  0.00    +0.025 A 
ATOM     36 CL   UNL     1     -11.578   3.431   5.798  0.00  0.00    -0.084 Cl
ENDBRANCH  28  30
ENDBRANCH  25  26
ENDBRANCH  24  25
ENDBRANCH  11  24
TORSDOF 7
