REMARK  Name = ZINC35760416
REMARK  7 active torsions:
REMARK  status: ('A' for Active; 'I' for Inactive)
REMARK    1  A    between atoms: C_1  and  C_2
REMARK    2  A    between atoms: C_3  and  C_33
REMARK    3  A    between atoms: C_4  and  C_13
REMARK    4  A    between atoms: C_16  and  N_19
REMARK    5  A    between atoms: C_20  and  C_22
REMARK    6  A    between atoms: C_25  and  C_27
REMARK    7  A    between atoms: N_35  and  C_36
REMARK                            x       y       z     vdW  Elec       q    Type
REMARK                         _______ _______ _______ _____ _____    ______ ____
ROOT
ATOM      1  C   UNL     1      -0.285   1.343   0.173  0.00  0.00    +0.064 C 
ATOM      2  C   UNL     1      -0.288  -0.087  -0.300  0.00  0.00    +0.025 C 
ATOM      3  C   UNL     1      -1.386  -0.864  -0.082  0.00  0.00    +0.058 C 
ATOM      4  C   UNL     1      -1.413  -2.272  -0.622  0.00  0.00    +0.142 C 
ATOM      5  N   UNL     1      -0.027  -2.754  -0.763  0.00  0.00    -0.300 N 
ATOM      6  C   UNL     1       0.247  -4.152  -0.447  0.00  0.00    +0.109 C 
ATOM      7  C   UNL     1       1.224  -4.801  -1.415  0.00  0.00    +0.030 C 
ATOM      8  C   UNL     1       2.598  -4.129  -1.274  0.00  0.00    +0.078 C 
ATOM      9  S   UNL     1       2.437  -2.427  -1.893  0.00  0.00    -0.092 S 
ATOM     10  C   UNL     1       0.938  -1.871  -1.144  0.00  0.00    +0.135 C 
ATOM     11  N   UNL     1       0.778  -0.571  -0.930  0.00  0.00    -0.341 N 
ATOM     12  H   UNL     1       1.461   0.045  -1.238  0.00  0.00    +0.167 HD
ENDROOT
BRANCH   4  13
ATOM     13  C   UNL     1      -2.094  -2.285  -1.966  0.00  0.00    -0.022 A 
ATOM     14  C   UNL     1      -1.395  -1.909  -3.097  0.00  0.00    +0.007 A 
ATOM     15  C   UNL     1      -2.017  -1.920  -4.331  0.00  0.00    +0.023 A 
ATOM     16  C   UNL     1      -3.345  -2.310  -4.433  0.00  0.00    +0.033 A 
ATOM     17  C   UNL     1      -4.045  -2.688  -3.295  0.00  0.00    +0.023 A 
ATOM     18  C   UNL     1      -3.416  -2.679  -2.065  0.00  0.00    +0.007 A 
BRANCH  16  19
ATOM     19  N   UNL     1      -3.978  -2.322  -5.681  0.00  0.00    -0.285 N 
ATOM     20  C   UNL     1      -3.274  -2.618  -6.791  0.00  0.00    +0.221 C 
ATOM     21  O   UNL     1      -2.115  -2.965  -6.700  0.00  0.00    -0.275 OA
ATOM     22  H   UNL     1      -4.924  -2.116  -5.747  0.00  0.00    +0.155 HD
BRANCH  20  23
ATOM     23  C   UNL     1      -3.926  -2.518  -8.146  0.00  0.00    +0.083 C 
ATOM     24  C   UNL     1      -4.180  -3.822  -8.905  0.00  0.00    +0.022 C 
ATOM     25  C   UNL     1      -3.074  -2.870  -9.368  0.00  0.00    +0.032 C 
BRANCH  25  26
ATOM     26  C   UNL     1      -3.314  -2.087 -10.632  0.00  0.00    -0.044 A 
ATOM     27  C   UNL     1      -4.561  -2.100 -11.228  0.00  0.00    +0.004 A 
ATOM     28  C   UNL     1      -4.782  -1.381 -12.388  0.00  0.00    +0.000 A 
ATOM     29  C   UNL     1      -3.754  -0.649 -12.952  0.00  0.00    +0.000 A 
ATOM     30  C   UNL     1      -2.507  -0.634 -12.356  0.00  0.00    +0.000 A 
ATOM     31  C   UNL     1      -2.288  -1.350 -11.194  0.00  0.00    +0.004 A 
ENDBRANCH  25  26
ENDBRANCH  20  23
ENDBRANCH  16  19
ENDBRANCH   4  13
BRANCH   3  32
ATOM     32  C   UNL     1      -2.482  -0.357   0.639  0.00  0.00    +0.248 C 
ATOM     33  O   UNL     1      -2.454   0.781   1.072  0.00  0.00    -0.270 OA
ATOM     34  N   UNL     1      -3.565  -1.132   0.850  0.00  0.00    -0.282 N 
ATOM     35  H   UNL     1      -3.559  -2.061   0.571  0.00  0.00    +0.155 HD
BRANCH  34  36
ATOM     36  C   UNL     1      -4.697  -0.596   1.472  0.00  0.00    +0.034 A 
ATOM     37  C   UNL     1      -5.038   0.735   1.269  0.00  0.00    +0.023 A 
ATOM     38  C   UNL     1      -6.157   1.261   1.885  0.00  0.00    +0.002 A 
ATOM     39  C   UNL     1      -6.937   0.464   2.703  0.00  0.00    +0.000 A 
ATOM     40  C   UNL     1      -6.599  -0.861   2.908  0.00  0.00    +0.002 A 
ATOM     41  C   UNL     1      -5.486  -1.395   2.290  0.00  0.00    +0.023 A 
ENDBRANCH  34  36
ENDBRANCH   3  32
TORSDOF 6
