REMARK  Name = ZINC57344644
REMARK  7 active torsions:
REMARK  status: ('A' for Active; 'I' for Inactive)
REMARK    1  A    between atoms: C_1  and  C_2
REMARK    2  A    between atoms: C_9  and  C_11
REMARK    3  A    between atoms: C_14  and  N_17
REMARK    4  A    between atoms: C_18  and  C_20
REMARK    5  A    between atoms: C_20  and  C_22
REMARK    6  A    between atoms: C_20  and  O_29
REMARK    7  A    between atoms: O_29  and  C_30
REMARK                            x       y       z     vdW  Elec       q    Type
REMARK                         _______ _______ _______ _____ _____    ______ ____
ROOT
ATOM      1  C   UNL     1       0.111  -5.516   2.306  0.00  0.00    +0.037 A 
ATOM      2  C   UNL     1       0.291  -5.545   3.691  0.00  0.00    +0.015 A 
ATOM      3  C   UNL     1       0.305  -6.751   4.357  0.00  0.00    +0.024 A 
ATOM      4  C   UNL     1       0.139  -7.938   3.652  0.00  0.00    +0.034 A 
ATOM      5  C   UNL     1      -0.041  -7.913   2.273  0.00  0.00    +0.024 A 
ATOM      6  C   UNL     1      -0.061  -6.710   1.602  0.00  0.00    +0.015 A 
ENDROOT
BRANCH   1  15
ATOM      7  C   UNL     1       0.249   1.507   0.018  0.00  0.00    +0.044 C 
ATOM      8  C   UNL     1       0.152   0.003   0.014  0.00  0.00    -0.047 A 
ATOM      9  C   UNL     1      -0.053  -0.671  -1.181  0.00  0.00    +0.005 A 
ATOM     10  C   UNL     1      -0.144  -2.044  -1.200  0.00  0.00    +0.032 A 
ATOM     11  C   UNL     1      -0.028  -2.763  -0.008  0.00  0.00    +0.110 A 
ATOM     12  C   UNL     1       0.179  -2.077   1.200  0.00  0.00    +0.156 A 
ATOM     13  C   UNL     1       0.273  -0.694   1.199  0.00  0.00    +0.052 A 
ATOM     14  O   UNL     1       0.251  -3.019   2.167  0.00  0.00    -0.435 OA
ATOM     15  C   UNL     1       0.095  -4.225   1.589  0.00  0.00    +0.228 A 
ATOM     16  N   UNL     1      -0.071  -4.086   0.297  0.00  0.00    -0.209 NA
ENDBRANCH   1  15
BRANCH   4  17
ATOM     17  N   UNL     1       0.154  -9.159   4.330  0.00  0.00    -0.283 N 
ATOM     18  C   UNL     1      -0.336  -9.239   5.583  0.00  0.00    +0.251 C 
ATOM     19  O   UNL     1      -0.878  -8.277   6.086  0.00  0.00    -0.272 OA
ATOM     20  H   UNL     1       0.517  -9.948   3.900  0.00  0.00    +0.155 HD
BRANCH  18  21
ATOM     21  C   UNL     1      -0.212 -10.525   6.360  0.00  0.00    +0.235 C 
BRANCH  21  22
ATOM     22  C   UNL     1       1.244 -10.815   6.621  0.00  0.00    +0.008 A 
ATOM     23  C   UNL     1       1.822 -10.429   7.816  0.00  0.00    +0.008 A 
ATOM     24  C   UNL     1       3.156 -10.695   8.056  0.00  0.00    +0.000 A 
ATOM     25  C   UNL     1       3.915 -11.347   7.102  0.00  0.00    +0.001 A 
ATOM     26  C   UNL     1       3.338 -11.733   5.907  0.00  0.00    +0.020 A 
ATOM     27  C   UNL     1       2.000 -11.472   5.668  0.00  0.00    +0.047 A 
ATOM     28 CL   UNL     1       1.274 -11.963   4.170  0.00  0.00    -0.083 Cl
ENDBRANCH  21  22
BRANCH  21  29
ATOM     29  O   UNL     1      -0.903 -10.399   7.604  0.00  0.00    -0.366 OA
ATOM     30  C   UNL     1      -1.438 -11.628   8.099  0.00  0.00    +0.195 C 
ENDBRANCH  21  29
ENDBRANCH  18  21
ENDBRANCH   4  17
TORSDOF 5
