REMARK  Name = ZINC36303104
REMARK  16 active torsions:
REMARK  status: ('A' for Active; 'I' for Inactive)
REMARK    1  A    between atoms: C_1  and  C_2
REMARK    2  A    between atoms: C_2  and  C_3
REMARK    3  A    between atoms: C_4  and  C_22
REMARK    4  A    between atoms: C_5  and  O_14
REMARK    5  A    between atoms: N_6  and  C_8
REMARK    6  A    between atoms: O_14  and  C_15
REMARK    7  A    between atoms: C_22  and  N_23
REMARK    8  A    between atoms: N_23  and  C_24
REMARK    9  A    between atoms: N_23  and  C_28
REMARK   10  A    between atoms: C_24  and  C_25
REMARK   11  A    between atoms: C_25  and  O_26
REMARK   12  A    between atoms: O_26  and  C_27
REMARK   13  A    between atoms: C_28  and  C_29
REMARK   14  A    between atoms: C_29  and  C_31
REMARK   15  A    between atoms: C_29  and  O_38
REMARK   16  A    between atoms: C_31  and  C_32
REMARK                            x       y       z     vdW  Elec       q    Type
REMARK                         _______ _______ _______ _____ _____    ______ ____
ROOT
ATOM      1  C   UNL     1      -1.209  -0.078  -0.592  0.00  0.00    +0.068 A 
ATOM      2  C   UNL     1      -1.905  -0.360   0.588  0.00  0.00    +0.021 A 
ATOM      3  C   UNL     1      -3.219  -0.513   0.272  0.00  0.00    +0.225 A 
ATOM      4  N   UNL     1      -3.339  -0.332  -1.071  0.00  0.00    -0.200 N 
ATOM      5  N   UNL     1      -2.065  -0.056  -1.582  0.00  0.00    -0.168 NA
ENDROOT
BRANCH   4   6
ATOM      6  C   UNL     1      -4.528  -0.404  -1.810  0.00  0.00    +0.069 A 
ATOM      7  C   UNL     1      -5.431  -1.432  -1.577  0.00  0.00    +0.028 A 
ATOM      8  C   UNL     1      -6.602  -1.500  -2.307  0.00  0.00    +0.002 A 
ATOM      9  C   UNL     1      -6.874  -0.546  -3.270  0.00  0.00    +0.000 A 
ATOM     10  C   UNL     1      -5.976   0.479  -3.506  0.00  0.00    +0.002 A 
ATOM     11  C   UNL     1      -4.806   0.555  -2.775  0.00  0.00    +0.028 A 
ENDBRANCH   4   6
BRANCH   1  13
ATOM     12  C   UNL     1       0.560   1.659  -0.524  0.00  0.00    +0.010 C 
ATOM     13  C   UNL     1       0.274   0.166  -0.703  0.00  0.00    +0.054 C 
ENDBRANCH   1  13
BRANCH   3  14
ATOM     14  O   UNL     1      -4.225  -0.797   1.137  0.00  0.00    -0.435 OA
BRANCH  14  15
ATOM     15  C   UNL     1      -4.464  -2.102   1.433  0.00  0.00    +0.165 A 
ATOM     16  C   UNL     1      -3.624  -3.091   0.942  0.00  0.00    +0.049 A 
ATOM     17  C   UNL     1      -3.869  -4.416   1.244  0.00  0.00    +0.004 A 
ATOM     18  C   UNL     1      -4.951  -4.759   2.034  0.00  0.00    +0.003 A 
ATOM     19  C   UNL     1      -5.791  -3.777   2.525  0.00  0.00    +0.042 A 
ATOM     20  C   UNL     1      -5.548  -2.447   2.231  0.00  0.00    +0.165 A 
ATOM     21  F   UNL     1      -6.365  -1.487   2.715  0.00  0.00    -0.202 F 
ENDBRANCH  14  15
ENDBRANCH   3  14
BRANCH   2  22
ATOM     22  C   UNL     1      -1.306  -0.473   1.966  0.00  0.00    -0.036 C 
BRANCH  22  23
ATOM     23  N   UNL     1      -1.317   0.844   2.615  0.00  0.00    +0.386 N 
ATOM     24  H   UNL     1      -0.817   1.507   2.042  0.00  0.00    -0.081 HD
BRANCH  23  25
ATOM     25  C   UNL     1      -2.706   1.294   2.785  0.00  0.00    -0.050 C 
BRANCH  25  26
ATOM     26  C   UNL     1      -2.716   2.715   3.353  0.00  0.00    +0.141 C 
BRANCH  26  27
ATOM     27  O   UNL     1      -2.100   3.605   2.420  0.00  0.00    -0.385 OA
ATOM     28  C   UNL     1      -2.058   4.965   2.856  0.00  0.00    +0.193 C 
ENDBRANCH  26  27
ENDBRANCH  25  26
ENDBRANCH  23  25
BRANCH  23  29
ATOM     29  C   UNL     1      -0.670   0.748   3.930  0.00  0.00    -0.046 C 
BRANCH  29  30
ATOM     30  C   UNL     1       0.821   0.456   3.744  0.00  0.00    +0.102 C 
BRANCH  30  31
ATOM     31  O   UNL     1       0.987  -0.869   3.235  0.00  0.00    -0.393 OA
ATOM     32  H   UNL     1       0.630  -1.559   3.811  0.00  0.00    +0.210 HD
ENDBRANCH  30  31
BRANCH  30  33
ATOM     33  C   UNL     1       1.536   0.578   5.091  0.00  0.00    +0.064 C 
BRANCH  33  34
ATOM     34  C   UNL     1       3.020   0.412   4.889  0.00  0.00    -0.045 A 
ATOM     35  C   UNL     1       3.590  -0.845   4.955  0.00  0.00    +0.004 A 
ATOM     36  C   UNL     1       4.952  -0.998   4.769  0.00  0.00    +0.000 A 
ATOM     37  C   UNL     1       5.743   0.107   4.517  0.00  0.00    +0.000 A 
ATOM     38  C   UNL     1       5.172   1.365   4.449  0.00  0.00    +0.000 A 
ATOM     39  C   UNL     1       3.810   1.516   4.631  0.00  0.00    +0.004 A 
ENDBRANCH  33  34
ENDBRANCH  30  33
ENDBRANCH  29  30
ENDBRANCH  23  29
ENDBRANCH  22  23
ENDBRANCH   2  22
TORSDOF 14
