REMARK  Name = ZINC16647852
REMARK  14 active torsions:
REMARK  status: ('A' for Active; 'I' for Inactive)
REMARK    1  A    between atoms: C_1  and  C_2
REMARK    2  A    between atoms: C_5  and  C_11
REMARK    3  A    between atoms: C_7  and  N_8
REMARK    4  A    between atoms: N_13  and  C_14
REMARK    5  A    between atoms: N_13  and  C_18
REMARK    6  A    between atoms: C_14  and  C_15
REMARK    7  A    between atoms: C_15  and  C_16
REMARK    8  A    between atoms: C_15  and  C_17
REMARK    9  A    between atoms: C_18  and  C_19
REMARK   10  A    between atoms: N_21  and  C_22
REMARK   11  A    between atoms: N_21  and  C_34
REMARK   12  A    between atoms: C_22  and  C_23
REMARK   13  A    between atoms: C_23  and  C_24
REMARK   14  A    between atoms: C_34  and  C_35
REMARK                            x       y       z     vdW  Elec       q    Type
REMARK                         _______ _______ _______ _____ _____    ______ ____
ROOT
ATOM      1  C   UNL     1      -0.786   0.337   0.932  0.00  0.00    +0.233 C 
ATOM      2  O   UNL     1      -0.880  -0.740   0.381  0.00  0.00    -0.274 OA
ATOM      3  N   UNL     1      -0.350   1.410   0.243  0.00  0.00    -0.296 N 
ENDROOT
BRANCH   1   4
ATOM      4  C   UNL     1      -1.157   0.474   2.386  0.00  0.00    +0.204 C 
BRANCH   4   7
ATOM      5  C   UNL     1      -2.878  -1.190   2.843  0.00  0.00    +0.247 C 
ATOM      6  O   UNL     1      -3.693  -0.442   2.340  0.00  0.00    -0.270 OA
ATOM      7  N   UNL     1      -1.581  -0.828   2.907  0.00  0.00    -0.288 N 
BRANCH   5  12
ATOM      8  C   UNL     1      -4.552  -6.275   4.954  0.00  0.00    +0.046 C 
ATOM      9  C   UNL     1      -4.114  -4.943   4.401  0.00  0.00    -0.020 A 
ATOM     10  C   UNL     1      -2.939  -4.364   4.849  0.00  0.00    +0.006 A 
ATOM     11  C   UNL     1      -2.530  -3.148   4.344  0.00  0.00    +0.013 A 
ATOM     12  C   UNL     1      -3.308  -2.496   3.386  0.00  0.00    +0.039 A 
ATOM     13  C   UNL     1      -4.491  -3.086   2.938  0.00  0.00    +0.046 A 
ATOM     14  C   UNL     1      -4.886  -4.305   3.448  0.00  0.00    +0.130 A 
BRANCH  14  15
ATOM     15  N   UNL     1      -6.141  -4.932   2.974  0.00  0.00    +0.057 N 
ATOM     16  O   UNL     1      -6.817  -4.376   2.126  0.00  0.00    -0.126 OA
ATOM     17  O   UNL     1      -6.498  -6.003   3.432  0.00  0.00    -0.126 OA
ENDBRANCH  14  15
ENDBRANCH   5  12
BRANCH   7  18
ATOM     18  C   UNL     1      -0.595  -1.736   3.498  0.00  0.00    +0.111 C 
BRANCH  18  19
ATOM     19  C   UNL     1      -0.332  -1.329   4.949  0.00  0.00    +0.000 C 
ATOM     20  C   UNL     1       0.601  -2.350   5.604  0.00  0.00    +0.009 C 
ATOM     21  C   UNL     1       0.322   0.054   4.981  0.00  0.00    +0.009 C 
ENDBRANCH  18  19
ENDBRANCH   7  18
ENDBRANCH   4   7
ENDBRANCH   1   4
BRANCH   3  22
ATOM     22  C   UNL     1       0.124   1.253  -1.134  0.00  0.00    +0.113 C 
BRANCH  22  23
ATOM     23  C   UNL     1      -1.049   1.431  -2.100  0.00  0.00    +0.056 C 
BRANCH  23  24
ATOM     24  C   UNL     1      -0.562   1.270  -3.517  0.00  0.00    -0.021 A 
ATOM     25  C   UNL     1      -0.196   2.255  -4.352  0.00  0.00    +0.087 A 
ATOM     26  N   UNL     1       0.191   1.727  -5.554  0.00  0.00    -0.360 N 
ATOM     27  H   UNL     1       0.500   2.243  -6.315  0.00  0.00    +0.165 HD
ATOM     28  C   UNL     1       0.072   0.356  -5.524  0.00  0.00    +0.047 A 
ATOM     29  C   UNL     1      -0.405   0.009  -4.247  0.00  0.00    +0.003 A 
ATOM     30  C   UNL     1      -0.624  -1.332  -3.925  0.00  0.00    +0.010 A 
ATOM     31  C   UNL     1      -0.373  -2.302  -4.854  0.00  0.00    +0.001 A 
ATOM     32  C   UNL     1       0.097  -1.965  -6.116  0.00  0.00    +0.002 A 
ATOM     33  C   UNL     1       0.320  -0.648  -6.454  0.00  0.00    +0.026 A 
ENDBRANCH  23  24
ENDBRANCH  22  23
ENDBRANCH   3  22
BRANCH   3  34
ATOM     34  C   UNL     1      -0.349   2.733   0.872  0.00  0.00    +0.143 C 
BRANCH  34  35
ATOM     35  C   UNL     1       1.006   3.001   1.476  0.00  0.00    -0.030 A 
ATOM     36  C   UNL     1       1.243   2.697   2.804  0.00  0.00    +0.005 A 
ATOM     37  C   UNL     1       2.486   2.938   3.357  0.00  0.00    +0.000 A 
ATOM     38  C   UNL     1       3.490   3.493   2.585  0.00  0.00    +0.000 A 
ATOM     39  C   UNL     1       3.252   3.802   1.259  0.00  0.00    +0.000 A 
ATOM     40  C   UNL     1       2.009   3.555   0.705  0.00  0.00    +0.005 A 
ENDBRANCH  34  35
ENDBRANCH   3  34
TORSDOF 11
