REMARK  Name = ZINC13140086
REMARK  10 active torsions:
REMARK  status: ('A' for Active; 'I' for Inactive)
REMARK    1  A    between atoms: C_1  and  O_2
REMARK    2  A    between atoms: O_2  and  C_3
REMARK    3  A    between atoms: C_6  and  O_30
REMARK    4  A    between atoms: C_7  and  C_9
REMARK    5  A    between atoms: N_10  and  C_11
REMARK    6  A    between atoms: C_14  and  O_28
REMARK    7  A    between atoms: C_15  and  S_17
REMARK    8  A    between atoms: S_17  and  N_20
REMARK    9  A    between atoms: N_20  and  C_21
REMARK   10  A    between atoms: O_28  and  C_29
REMARK                            x       y       z     vdW  Elec       q    Type
REMARK                         _______ _______ _______ _____ _____    ______ ____
ROOT
ATOM      1  C   UNL     1      -6.486   1.788   5.864  0.00  0.00    +0.066 A 
ATOM      2  C   UNL     1      -6.161   1.717   7.221  0.00  0.00    +0.031 A 
ATOM      3  C   UNL     1      -7.094   2.075   8.171  0.00  0.00    +0.050 A 
ATOM      4  C   UNL     1      -8.359   2.495   7.780  0.00  0.00    +0.147 A 
ATOM      5  C   UNL     1      -8.688   2.562   6.433  0.00  0.00    +0.152 A 
ATOM      6  C   UNL     1      -7.760   2.211   5.476  0.00  0.00    +0.060 A 
ENDROOT
BRANCH   5   7
ATOM      7  S   UNL     1     -10.294   3.097   5.946  0.00  0.00    +0.076 S 
ATOM      8  O   UNL     1     -10.544   4.314   6.636  0.00  0.00    -0.150 OA
ATOM      9  O   UNL     1     -10.342   3.002   4.529  0.00  0.00    -0.150 OA
BRANCH   7  10
ATOM     10  N   UNL     1     -11.378   1.990   6.531  0.00  0.00    -0.215 N 
ATOM     11  H   UNL     1     -11.997   2.242   7.234  0.00  0.00    +0.174 HD
BRANCH  10  12
ATOM     12  C   UNL     1     -11.400   0.693   6.012  0.00  0.00    +0.066 A 
ATOM     13  C   UNL     1     -10.217   0.078   5.624  0.00  0.00    +0.026 A 
ATOM     14  C   UNL     1     -10.243  -1.206   5.116  0.00  0.00    +0.002 A 
ATOM     15  C   UNL     1     -11.445  -1.876   4.984  0.00  0.00    +0.002 A 
ATOM     16  C   UNL     1     -12.626  -1.266   5.364  0.00  0.00    +0.022 A 
ATOM     17  C   UNL     1     -12.608   0.017   5.878  0.00  0.00    +0.063 A 
ATOM     18 CL   UNL     1     -14.091   0.784   6.354  0.00  0.00    -0.082 Cl
ENDBRANCH  10  12
ENDBRANCH   7  10
ENDBRANCH   5   7
BRANCH   1  20
ATOM     19  C   UNL     1      -4.334   1.865   5.017  0.00  0.00    +0.123 C 
ATOM     20  N   UNL     1      -5.562   1.438   4.918  0.00  0.00    -0.255 NA
BRANCH  19  25
ATOM     21  C   UNL     1      -1.094   1.586   3.144  0.00  0.00    +0.121 A 
ATOM     22  C   UNL     1      -1.468   0.780   2.075  0.00  0.00    +0.049 A 
ATOM     23  C   UNL     1      -2.767   0.321   1.969  0.00  0.00    +0.049 A 
ATOM     24  C   UNL     1      -3.709   0.671   2.922  0.00  0.00    +0.126 A 
ATOM     25  C   UNL     1      -3.340   1.489   4.000  0.00  0.00    +0.038 A 
ATOM     26  C   UNL     1      -2.022   1.944   4.103  0.00  0.00    +0.058 A 
BRANCH  21  28
ATOM     27  C   UNL     1       1.096   1.620   2.216  0.00  0.00    +0.277 C 
ATOM     28  O   UNL     1       0.189   2.028   3.242  0.00  0.00    -0.495 OA
ENDBRANCH  21  28
BRANCH  24  29
ATOM     29  O   UNL     1      -4.987   0.224   2.813  0.00  0.00    -0.506 OA
ATOM     30  H   UNL     1      -5.567   0.811   2.310  0.00  0.00    +0.292 HD
ENDBRANCH  24  29
ENDBRANCH  19  25
ENDBRANCH   1  20
BRANCH   4  31
ATOM     31  O   UNL     1      -9.277   2.842   8.720  0.00  0.00    -0.493 OA
ATOM     32  C   UNL     1      -8.873   2.750  10.088  0.00  0.00    +0.277 C 
ENDBRANCH   4  31
TORSDOF 8
