REMARK  Name = ZINC15783618
REMARK  11 active torsions:
REMARK  status: ('A' for Active; 'I' for Inactive)
REMARK    1  A    between atoms: C_1  and  C_2
REMARK    2  A    between atoms: C_2  and  C_3
REMARK    3  A    between atoms: C_3  and  C_5
REMARK    4  A    between atoms: C_3  and  C_6
REMARK    5  A    between atoms: C_20  and  S_21
REMARK    6  A    between atoms: S_21  and  C_22
REMARK    7  A    between atoms: C_22  and  C_24
REMARK    8  A    between atoms: C_22  and  C_26
REMARK    9  A    between atoms: C_24  and  C_25
REMARK   10  A    between atoms: N_28  and  C_29
REMARK   11  A    between atoms: C_34  and  C_35
REMARK                            x       y       z     vdW  Elec       q    Type
REMARK                         _______ _______ _______ _____ _____    ______ ____
ROOT
ATOM      1  C   UNL     1      -4.779   9.593  -0.882  0.00  0.00    +0.196 C 
ATOM      2  C   UNL     1      -3.989   8.304  -0.801  0.00  0.00    +0.252 C 
ATOM      3  O   UNL     1      -4.418   7.173  -0.885  0.00  0.00    -0.272 OA
ATOM      4  N   UNL     1      -2.703   8.680  -0.619  0.00  0.00    -0.200 N 
ATOM      5  C   UNL     1      -2.608  10.061  -0.572  0.00  0.00    +0.139 C 
ATOM      6  N   UNL     1      -3.765  10.643  -0.719  0.00  0.00    -0.255 NA
ATOM      7  C   UNL     1      -1.262  10.641  -0.373  0.00  0.00    +0.041 A 
ATOM      8  C   UNL     1      -1.064  12.016  -0.315  0.00  0.00    +0.013 A 
ATOM      9  C   UNL     1       0.209  12.513  -0.128  0.00  0.00    +0.001 A 
ATOM     10  C   UNL     1       1.289  11.652   0.002  0.00  0.00    +0.002 A 
ATOM     11  C   UNL     1       1.113  10.287  -0.052  0.00  0.00    +0.028 A 
ATOM     12  C   UNL     1      -0.168   9.761  -0.241  0.00  0.00    +0.077 A 
ATOM     13  N   UNL     1      -0.378   8.422  -0.299  0.00  0.00    -0.225 NA
ATOM     14  C   UNL     1      -1.566   7.912  -0.474  0.00  0.00    +0.170 C 
ENDROOT
BRANCH   1  15
ATOM     15  C   UNL     1      -5.465   9.717  -2.244  0.00  0.00    +0.019 C 
ATOM     16  C   UNL     1      -4.417   9.613  -3.354  0.00  0.00    +0.010 C 
BRANCH  15  18
ATOM     17  C   UNL     1      -6.963  11.143  -3.646  0.00  0.00    +0.004 C 
ATOM     18  C   UNL     1      -6.175  11.069  -2.337  0.00  0.00    +0.002 C 
ENDBRANCH  15  18
ENDBRANCH   1  15
BRANCH  14  19
ATOM     19  S   UNL     1      -1.726   6.158  -0.535  0.00  0.00    -0.077 S 
BRANCH  19  20
ATOM     20  C   UNL     1      -0.030   5.673  -0.131  0.00  0.00    +0.140 C 
BRANCH  20  21
ATOM     21  C   UNL     1       0.108   4.178  -0.254  0.00  0.00    +0.231 C 
ATOM     22  O   UNL     1      -0.878   3.473  -0.221  0.00  0.00    -0.274 OA
ATOM     23  N   UNL     1       1.328   3.624  -0.401  0.00  0.00    -0.284 N 
ATOM     24  H   UNL     1       2.122   4.179  -0.353  0.00  0.00    +0.155 HD
BRANCH  23  25
ATOM     25  C   UNL     1       1.449   2.247  -0.623  0.00  0.00    +0.036 A 
ATOM     26  C   UNL     1       0.396   1.538  -1.185  0.00  0.00    +0.023 A 
ATOM     27  C   UNL     1       0.518   0.180  -1.403  0.00  0.00    +0.002 A 
ATOM     28  C   UNL     1       1.689  -0.474  -1.063  0.00  0.00    +0.000 A 
ATOM     29  C   UNL     1       2.739   0.230  -0.503  0.00  0.00    +0.005 A 
ATOM     30  C   UNL     1       2.623   1.588  -0.282  0.00  0.00    -0.029 A 
ATOM     31  C   UNL     1       3.768   2.354   0.328  0.00  0.00    +0.045 C 
ENDBRANCH  23  25
ENDBRANCH  20  21
BRANCH  20  32
ATOM     32  C   UNL     1       0.295   6.100   1.302  0.00  0.00    +0.020 C 
ATOM     33  C   UNL     1       1.767   5.806   1.600  0.00  0.00    +0.005 C 
ENDBRANCH  20  32
ENDBRANCH  19  20
ENDBRANCH  14  19
TORSDOF 7
