REMARK  Name = ZINC39573895
REMARK  5 active torsions:
REMARK  status: ('A' for Active; 'I' for Inactive)
REMARK    1  A    between atoms: C_6  and  C_7
REMARK    2  A    between atoms: C_9  and  C_13
REMARK    3  A    between atoms: N_15  and  N_16
REMARK    4  A    between atoms: C_17  and  C_18
REMARK    5  A    between atoms: C_23  and  O_24
REMARK                            x       y       z     vdW  Elec       q    Type
REMARK                         _______ _______ _______ _____ _____    ______ ____
ROOT
ATOM      1  C   UNL     1      -3.256  -3.131   1.260  0.00  0.00    +0.263 C 
ATOM      2  O   UNL     1      -3.744  -2.541   2.202  0.00  0.00    -0.271 OA
ATOM      3  N   UNL     1      -3.071  -4.464   1.324  0.00  0.00    -0.205 N 
ATOM      4  H   UNL     1      -2.681  -4.936   0.571  0.00  0.00    +0.177 HD
ENDROOT
BRANCH   1   7
ATOM      5  C   UNL     1      -1.271  -0.766   0.011  0.00  0.00    +0.092 C 
ATOM      6  C   UNL     1      -1.363  -2.110   0.010  0.00  0.00    +0.041 C 
ATOM      7  C   UNL     1      -2.858  -2.372   0.020  0.00  0.00    +0.240 C 
ATOM      8  N   UNL     1      -3.437  -1.019   0.026  0.00  0.00    -0.170 NA
ATOM      9  N   UNL     1      -2.509  -0.206   0.026  0.00  0.00    -0.153 NA
BRANCH   5  15
ATOM     10  C   UNL     1      -0.017   1.389   0.010  0.00  0.00    +0.011 A 
ATOM     11  C   UNL     1       1.170   2.093   0.002  0.00  0.00    +0.016 A 
ATOM     12  C   UNL     1       2.378   1.417  -0.013  0.00  0.00    +0.018 A 
ATOM     13  C   UNL     1       2.402   0.034  -0.021  0.00  0.00    +0.016 A 
ATOM     14  C   UNL     1       1.221  -0.680  -0.014  0.00  0.00    +0.011 A 
ATOM     15  C   UNL     1       0.002  -0.004   0.002  0.00  0.00    +0.002 A 
ATOM     16 BR   UNL     1       4.001   2.388  -0.025  0.00  0.00    -0.050 Br
ENDBRANCH   5  15
ENDBRANCH   1   7
BRANCH   3  17
ATOM     17  N   UNL     1      -3.441  -5.169   2.477  0.00  0.00    -0.188 NA
ATOM     18  C   UNL     1      -3.262  -6.453   2.538  0.00  0.00    +0.142 C 
BRANCH  18  19
ATOM     19  C   UNL     1      -3.651  -7.194   3.750  0.00  0.00    +0.037 A 
ATOM     20  C   UNL     1      -3.455  -8.575   3.822  0.00  0.00    +0.028 A 
ATOM     21  C   UNL     1      -3.821  -9.263   4.961  0.00  0.00    +0.019 A 
ATOM     22  C   UNL     1      -4.383  -8.590   6.033  0.00  0.00    +0.019 A 
ATOM     23  C   UNL     1      -4.583  -7.223   5.973  0.00  0.00    +0.047 A 
ATOM     24  C   UNL     1      -4.215  -6.517   4.840  0.00  0.00    +0.126 A 
ATOM     25 BR   UNL     1      -3.556 -11.133   5.058  0.00  0.00    -0.050 Br
BRANCH  24  26
ATOM     26  O   UNL     1      -4.405  -5.173   4.783  0.00  0.00    -0.506 OA
ATOM     27  H   UNL     1      -5.267  -4.913   4.429  0.00  0.00    +0.292 HD
ENDBRANCH  24  26
ENDBRANCH  18  19
ENDBRANCH   3  17
TORSDOF 5
