REMARK  Name = ZINC24209206
REMARK  10 active torsions:
REMARK  status: ('A' for Active; 'I' for Inactive)
REMARK    1  A    between atoms: C_1  and  C_2
REMARK    2  A    between atoms: C_2  and  C_3
REMARK    3  A    between atoms: C_3  and  C_4
REMARK    4  A    between atoms: C_4  and  N_5
REMARK    5  A    between atoms: C_11  and  S_12
REMARK    6  A    between atoms: S_12  and  C_13
REMARK    7  A    between atoms: C_13  and  C_15
REMARK    8  A    between atoms: C_13  and  C_16
REMARK    9  A    between atoms: C_19  and  C_31
REMARK   10  A    between atoms: C_22  and  C_24
REMARK                            x       y       z     vdW  Elec       q    Type
REMARK                         _______ _______ _______ _____ _____    ______ ____
ROOT
ATOM      1  C   UNL     1      -4.146  -3.157  -5.201  0.00  0.00    +0.249 C 
ATOM      2  O   UNL     1      -3.202  -2.507  -5.598  0.00  0.00    -0.273 OA
ATOM      3  N   UNL     1      -4.886  -3.871  -6.071  0.00  0.00    -0.181 N 
ATOM      4  C   UNL     1      -4.657  -3.955  -7.522  0.00  0.00    +0.173 C 
ATOM      5  C   UNL     1      -5.779  -4.892  -8.012  0.00  0.00    +0.090 C 
ATOM      6  C   UNL     1      -6.537  -5.242  -6.751  0.00  0.00    +0.069 C 
ATOM      7  N   UNL     1      -5.990  -4.656  -5.743  0.00  0.00    -0.181 NA
ENDROOT
BRANCH   6   8
ATOM      8  C   UNL     1      -7.717  -6.124  -6.684  0.00  0.00    -0.002 A 
ATOM      9  C   UNL     1      -8.217  -6.716  -7.847  0.00  0.00    +0.011 A 
ATOM     10  C   UNL     1      -9.320  -7.540  -7.778  0.00  0.00    +0.020 A 
ATOM     11  C   UNL     1      -9.934  -7.781  -6.559  0.00  0.00    +0.041 A 
ATOM     12  C   UNL     1      -9.443  -7.197  -5.403  0.00  0.00    +0.020 A 
ATOM     13  C   UNL     1      -8.337  -6.376  -5.458  0.00  0.00    +0.011 A 
ATOM     14 CL   UNL     1     -11.323  -8.819  -6.481  0.00  0.00    -0.084 Cl
ENDBRANCH   6   8
BRANCH   4  15
ATOM     15  C   UNL     1      -3.303  -4.549  -7.812  0.00  0.00    +0.128 A 
ATOM     16  C   UNL     1      -2.466  -4.159  -8.790  0.00  0.00    +0.046 A 
ATOM     17  C   UNL     1      -1.318  -4.980  -8.699  0.00  0.00    +0.041 A 
ATOM     18  C   UNL     1      -1.523  -5.823  -7.671  0.00  0.00    +0.195 A 
ATOM     19  O   UNL     1      -2.724  -5.553  -7.134  0.00  0.00    -0.466 OA
ENDBRANCH   4  15
BRANCH   1  20
ATOM     20  C   UNL     1      -4.490  -3.165  -3.734  0.00  0.00    +0.139 C 
ATOM     21  C   UNL     1      -5.651  -2.203  -3.477  0.00  0.00    +0.029 C 
BRANCH  20  22
ATOM     22  S   UNL     1      -3.046  -2.641  -2.770  0.00  0.00    -0.073 S 
BRANCH  22  29
ATOM     23  N   UNL     1      -2.787  -2.571   0.015  0.00  0.00    -0.271 N 
ATOM     24  C   UNL     1      -3.519  -2.844   1.113  0.00  0.00    +0.345 A 
ATOM     25  O   UNL     1      -3.158  -2.714   2.269  0.00  0.00    -0.245 OA
ATOM     26  N   UNL     1      -4.724  -3.287   0.700  0.00  0.00    -0.226 N 
ATOM     27  H   UNL     1      -5.461  -3.561   1.268  0.00  0.00    +0.194 HD
ATOM     28  N   UNL     1      -4.715  -3.280  -0.702  0.00  0.00    -0.145 NA
ATOM     29  C   UNL     1      -3.554  -2.844  -1.095  0.00  0.00    +0.193 A 
BRANCH  23  30
ATOM     30  C   UNL     1      -1.413  -2.063   0.004  0.00  0.00    +0.129 C 
BRANCH  30  31
ATOM     31  C   UNL     1      -1.433  -0.534   0.013  0.00  0.00    +0.021 C 
BRANCH  31  33
ATOM     32  C   UNL     1      -0.019   1.526   0.010  0.00  0.00    +0.004 C 
ATOM     33  C   UNL     1       0.002  -0.004   0.002  0.00  0.00    -0.002 C 
ENDBRANCH  31  33
ENDBRANCH  30  31
ENDBRANCH  23  30
ENDBRANCH  22  29
ENDBRANCH  20  22
ENDBRANCH   1  20
TORSDOF 8
