REMARK  Name = ZINC02314489
REMARK  8 active torsions:
REMARK  status: ('A' for Active; 'I' for Inactive)
REMARK    1  A    between atoms: C_1  and  C_2
REMARK    2  A    between atoms: C_5  and  N_8
REMARK    3  A    between atoms: C_9  and  N_37
REMARK    4  A    between atoms: C_10  and  C_21
REMARK    5  A    between atoms: N_23  and  C_24
REMARK    6  A    between atoms: C_25  and  C_33
REMARK    7  A    between atoms: C_33  and  O_35
REMARK    8  A    between atoms: O_35  and  C_36
REMARK                            x       y       z     vdW  Elec       q    Type
REMARK                         _______ _______ _______ _____ _____    ______ ____
ROOT
ATOM      1  N   UNL     1       3.440  -0.806  -0.034  0.00  0.00    -0.280 N 
ATOM      2  C   UNL     1       2.946  -2.076  -0.036  0.00  0.00    +0.117 A 
ATOM      3  C   UNL     1       1.555  -2.056  -0.023  0.00  0.00    +0.104 A 
ATOM      4  C   UNL     1       1.157  -0.638  -0.012  0.00  0.00    +0.123 A 
ATOM      5  C   UNL     1       2.413   0.118  -0.019  0.00  0.00    +0.166 A 
ATOM      6  N   UNL     1       2.376   1.433  -0.012  0.00  0.00    -0.225 NA
ATOM      7  C   UNL     1       1.197   2.067   0.002  0.00  0.00    +0.092 A 
ATOM      8  C   UNL     1       1.149   3.474   0.009  0.00  0.00    +0.030 A 
ATOM      9  C   UNL     1      -0.054   4.110   0.024  0.00  0.00    +0.002 A 
ATOM     10  C   UNL     1      -1.246   3.389   0.031  0.00  0.00    +0.002 A 
ATOM     11  C   UNL     1      -1.240   2.029   0.019  0.00  0.00    +0.030 A 
ATOM     12  C   UNL     1      -0.016   1.334   0.009  0.00  0.00    +0.090 A 
ATOM     13  N   UNL     1       0.002  -0.004   0.002  0.00  0.00    -0.241 NA
ENDROOT
BRANCH   1  18
ATOM     14  C   UNL     1       8.961   0.507  -0.079  0.00  0.00    +0.044 C 
ATOM     15  C   UNL     1       7.495   0.158  -0.067  0.00  0.00    -0.050 A 
ATOM     16  C   UNL     1       6.930  -0.488  -1.151  0.00  0.00    +0.005 A 
ATOM     17  C   UNL     1       5.587  -0.809  -1.143  0.00  0.00    +0.026 A 
ATOM     18  C   UNL     1       4.803  -0.482  -0.045  0.00  0.00    +0.050 A 
ATOM     19  C   UNL     1       5.371   0.173   1.040  0.00  0.00    +0.026 A 
ATOM     20  C   UNL     1       6.716   0.486   1.028  0.00  0.00    +0.005 A 
ENDBRANCH   1  18
BRANCH   3  21
ATOM     21  C   UNL     1       0.690  -3.179  -0.021  0.00  0.00    +0.254 C 
ATOM     22  O   UNL     1       0.308  -3.656  -1.075  0.00  0.00    -0.270 OA
ATOM     23  N   UNL     1       0.290  -3.720   1.147  0.00  0.00    -0.275 N 
ATOM     24  H   UNL     1       0.594  -3.340   1.986  0.00  0.00    +0.156 HD
BRANCH  23  25
ATOM     25  C   UNL     1      -0.555  -4.817   1.149  0.00  0.00    +0.087 A 
ATOM     26  C   UNL     1      -1.067  -5.510   2.239  0.00  0.00    +0.091 A 
ATOM     27  C   UNL     1      -1.944  -6.637   1.965  0.00  0.00    -0.021 A 
ATOM     28  C   UNL     1      -2.159  -6.894   0.657  0.00  0.00    -0.004 A 
ATOM     29  S   UNL     1      -1.224  -5.663  -0.206  0.00  0.00    -0.077 S 
ATOM     30  C   UNL     1      -3.005  -7.986   0.079  0.00  0.00    +0.043 C 
ATOM     31  C   UNL     1      -3.299  -9.008   1.186  0.00  0.00    +0.005 C 
ATOM     32  C   UNL     1      -3.762  -8.259   2.439  0.00  0.00    +0.005 C 
ATOM     33  C   UNL     1      -2.587  -7.492   3.050  0.00  0.00    +0.037 C 
BRANCH  26  34
ATOM     34  C   UNL     1      -0.738  -5.119   3.611  0.00  0.00    +0.342 C 
ATOM     35  O   UNL     1      -1.436  -4.314   4.198  0.00  0.00    -0.245 OA
BRANCH  34  36
ATOM     36  O   UNL     1       0.339  -5.651   4.224  0.00  0.00    -0.464 OA
ATOM     37  C   UNL     1       0.605  -5.217   5.584  0.00  0.00    +0.280 C 
ENDBRANCH  34  36
ENDBRANCH  26  34
ENDBRANCH  23  25
ENDBRANCH   3  21
BRANCH   2  38
ATOM     38  N   UNL     1       3.711  -3.213  -0.050  0.00  0.00    -0.343 N 
ATOM     39  H   UNL     1       3.285  -4.085  -0.050  0.00  0.00    +0.144 HD
ATOM     40  H   UNL     1       4.678  -3.147  -0.058  0.00  0.00    +0.144 HD
ENDBRANCH   2  38
TORSDOF 6
