REMARK  Name = ZINC22344539
REMARK  16 active torsions:
REMARK  status: ('A' for Active; 'I' for Inactive)
REMARK    1  A    between atoms: C_1  and  C_2
REMARK    2  A    between atoms: C_5  and  C_9
REMARK    3  A    between atoms: C_7  and  C_8
REMARK    4  A    between atoms: C_9  and  C_11
REMARK    5  A    between atoms: C_9  and  N_12
REMARK    6  A    between atoms: C_13  and  C_15
REMARK    7  A    between atoms: C_15  and  N_16
REMARK    8  A    between atoms: N_16  and  C_17
REMARK    9  A    between atoms: N_16  and  S_25
REMARK   10  A    between atoms: C_19  and  C_24
REMARK   11  A    between atoms: C_21  and  C_23
REMARK   12  A    between atoms: S_25  and  C_28
REMARK   13  A    between atoms: C_31  and  O_36
REMARK   14  A    between atoms: C_32  and  O_34
REMARK   15  A    between atoms: O_34  and  C_35
REMARK   16  A    between atoms: O_36  and  C_37
REMARK                            x       y       z     vdW  Elec       q    Type
REMARK                         _______ _______ _______ _____ _____    ______ ____
ROOT
ATOM      1  N   UNL     1       2.164  -2.647   1.433  0.00  0.00    -0.194 N 
ENDROOT
BRANCH   1   2
ATOM      2  C   UNL     1       3.431  -2.710   0.848  0.00  0.00    +0.052 A 
ATOM      3  C   UNL     1       4.363  -3.634   1.304  0.00  0.00    +0.028 A 
ATOM      4  C   UNL     1       5.613  -3.697   0.721  0.00  0.00    -0.048 A 
ATOM      5  C   UNL     1       5.942  -2.834  -0.308  0.00  0.00    +0.006 A 
ATOM      6  C   UNL     1       5.019  -1.910  -0.761  0.00  0.00    -0.048 A 
ATOM      7  C   UNL     1       3.765  -1.845  -0.186  0.00  0.00    +0.028 A 
ATOM      8  C   UNL     1       5.381  -0.972  -1.884  0.00  0.00    +0.044 C 
ATOM      9  C   UNL     1       6.623  -4.703   1.211  0.00  0.00    +0.044 C 
ENDBRANCH   1   2
BRANCH   1  10
ATOM     10  S   UNL     1       2.015  -2.371   3.059  0.00  0.00    +0.075 S 
ATOM     11  O   UNL     1       3.260  -1.846   3.497  0.00  0.00    -0.150 OA
ATOM     12  O   UNL     1       0.788  -1.678   3.242  0.00  0.00    -0.150 OA
BRANCH  10  13
ATOM     13  C   UNL     1       1.828  -3.940   3.838  0.00  0.00    +0.112 A 
ATOM     14  C   UNL     1       0.573  -4.510   3.949  0.00  0.00    +0.032 A 
ATOM     15  C   UNL     1       0.422  -5.744   4.555  0.00  0.00    +0.051 A 
ATOM     16  C   UNL     1       1.528  -6.406   5.063  0.00  0.00    +0.162 A 
ATOM     17  C   UNL     1       2.790  -5.830   4.956  0.00  0.00    +0.163 A 
ATOM     18  C   UNL     1       2.936  -4.596   4.343  0.00  0.00    +0.078 A 
BRANCH  17  19
ATOM     19  O   UNL     1       3.879  -6.477   5.453  0.00  0.00    -0.491 OA
ATOM     20  C   UNL     1       5.142  -5.826   5.307  0.00  0.00    +0.277 C 
ENDBRANCH  17  19
BRANCH  16  21
ATOM     21  O   UNL     1       1.380  -7.617   5.664  0.00  0.00    -0.491 OA
ATOM     22  C   UNL     1       0.055  -8.147   5.738  0.00  0.00    +0.277 C 
ENDBRANCH  16  21
ENDBRANCH  10  13
ENDBRANCH   1  10
BRANCH   1  23
ATOM     23  C   UNL     1       0.967  -2.825   0.607  0.00  0.00    +0.227 C 
BRANCH  23  25
ATOM     24  N   UNL     1      -0.491  -1.429  -0.822  0.00  0.00    -0.307 N 
ATOM     25  C   UNL     1       0.587  -1.507  -0.016  0.00  0.00    +0.233 C 
ATOM     26  O   UNL     1       1.250  -0.516   0.207  0.00  0.00    -0.274 OA
ATOM     27  H   UNL     1      -1.093  -2.327  -1.024  0.00  0.00    +0.149 HD
BRANCH  24  28
ATOM     28  C   UNL     1      -0.861  -0.147  -1.428  0.00  0.00    +0.100 C 
ATOM     29  C   UNL     1      -1.720   0.652  -0.447  0.00  0.00    +0.033 C 
BRANCH  28  34
ATOM     30  C   UNL     1      -3.860  -1.103  -6.274  0.00  0.00    +0.044 C 
ATOM     31  C   UNL     1      -3.078  -0.854  -5.011  0.00  0.00    -0.048 A 
ATOM     32  C   UNL     1      -3.296  -1.642  -3.896  0.00  0.00    +0.004 A 
ATOM     33  C   UNL     1      -2.579  -1.413  -2.737  0.00  0.00    +0.006 A 
ATOM     34  C   UNL     1      -1.643  -0.397  -2.692  0.00  0.00    -0.027 A 
ATOM     35  C   UNL     1      -1.429   0.394  -3.805  0.00  0.00    +0.009 A 
ATOM     36  C   UNL     1      -2.142   0.162  -4.966  0.00  0.00    -0.047 A 
ATOM     37  C   UNL     1      -1.904   1.021  -6.181  0.00  0.00    +0.044 C 
ENDBRANCH  28  34
ENDBRANCH  24  28
ENDBRANCH  23  25
ENDBRANCH   1  23
TORSDOF 9
