REMARK  Name = ZINC13550252
REMARK  5 active torsions:
REMARK  status: ('A' for Active; 'I' for Inactive)
REMARK    1  A    between atoms: C_1  and  C_2
REMARK    2  A    between atoms: C_6  and  N_8
REMARK    3  A    between atoms: C_9  and  C_24
REMARK    4  A    between atoms: C_11  and  C_14
REMARK    5  A    between atoms: C_12  and  C_13
REMARK                            x       y       z     vdW  Elec       q    Type
REMARK                         _______ _______ _______ _____ _____    ______ ____
ROOT
ATOM      1  N   UNL     1      -0.092  -2.817   2.466  0.00  0.00    -0.317 N 
ATOM      2  C   UNL     1      -0.769  -2.435   3.593  0.00  0.00    +0.022 A 
ATOM      3  C   UNL     1      -0.319  -3.142   4.641  0.00  0.00    +0.031 A 
ATOM      4  C   UNL     1       0.725  -4.039   4.120  0.00  0.00    -0.003 A 
ATOM      5  C   UNL     1       0.802  -3.779   2.759  0.00  0.00    +0.028 A 
ATOM      6  C   UNL     1       1.728  -4.454   1.780  0.00  0.00    +0.064 C 
ATOM      7  C   UNL     1      -1.848  -1.384   3.648  0.00  0.00    +0.064 C 
ENDROOT
BRANCH   4   8
ATOM      8  C   UNL     1       1.488  -4.976   4.854  0.00  0.00    +0.028 C 
ATOM      9  C   UNL     1       0.863  -5.823   5.760  0.00  0.00    +0.101 C 
ATOM     10  C   UNL     1      -0.602  -5.926   5.831  0.00  0.00    +0.274 C 
ATOM     11  O   UNL     1      -1.386  -5.195   5.010  0.00  0.00    -0.268 OA
ATOM     12  N   UNL     1      -1.134  -6.751   6.716  0.00  0.00    -0.154 NA
ATOM     13  C   UNL     1      -0.386  -7.484   7.537  0.00  0.00    +0.164 C 
ATOM     14  S   UNL     1      -1.179  -8.521   8.645  0.00  0.00    -0.016 S 
ATOM     15  N   UNL     1       0.955  -7.455   7.545  0.00  0.00    -0.262 N 
ATOM     16  C   UNL     1       1.639  -6.664   6.691  0.00  0.00    +0.255 C 
ATOM     17  O   UNL     1       2.856  -6.641   6.693  0.00  0.00    -0.270 OA
ATOM     18  H   UNL     1       1.440  -8.015   8.170  0.00  0.00    +0.157 HD
ENDBRANCH   4   8
BRANCH   1  24
ATOM     19  C   UNL     1       0.092   1.015  -0.610  0.00  0.00    +0.044 C 
ATOM     20  C   UNL     1      -0.225  -0.431  -0.331  0.00  0.00    -0.048 A 
ATOM     21  C   UNL     1      -0.727  -1.235  -1.337  0.00  0.00    +0.003 A 
ATOM     22  C   UNL     1      -1.019  -2.563  -1.085  0.00  0.00    +0.002 A 
ATOM     23  C   UNL     1      -0.810  -3.090   0.175  0.00  0.00    +0.026 A 
ATOM     24  C   UNL     1      -0.305  -2.285   1.188  0.00  0.00    +0.047 A 
ATOM     25  C   UNL     1      -0.007  -0.954   0.929  0.00  0.00    +0.029 A 
ENDBRANCH   1  24
TORSDOF 2
