REMARK  Name = ZINC47041149
REMARK  6 active torsions:
REMARK  status: ('A' for Active; 'I' for Inactive)
REMARK    1  A    between atoms: C_5  and  C_6
REMARK    2  A    between atoms: C_6  and  N_7
REMARK    3  A    between atoms: N_10  and  N_11
REMARK    4  A    between atoms: N_11  and  C_12
REMARK    5  A    between atoms: C_12  and  N_14
REMARK    6  A    between atoms: N_14  and  C_15
REMARK                            x       y       z     vdW  Elec       q    Type
REMARK                         _______ _______ _______ _____ _____    ______ ____
ROOT
ATOM      1  N   UNL     1      -1.544  -1.274  -1.371  0.00  0.00    -0.294 N 
ATOM      2  C   UNL     1      -2.565  -2.121  -1.611  0.00  0.00    +0.316 C 
ATOM      3  O   UNL     1      -3.163  -2.632  -0.684  0.00  0.00    -0.251 OA
ATOM      4  N   UNL     1      -2.923  -2.402  -2.880  0.00  0.00    -0.219 N 
ATOM      5  H   UNL     1      -1.067  -0.867  -2.111  0.00  0.00    +0.151 HD
ATOM      6  H   UNL     1      -3.657  -3.011  -3.054  0.00  0.00    +0.174 HD
ENDROOT
BRANCH   4   7
ATOM      7  N   UNL     1      -2.234  -1.813  -3.949  0.00  0.00    -0.245 N 
ATOM      8  H   UNL     1      -1.499  -1.204  -3.776  0.00  0.00    +0.172 HD
BRANCH   7   9
ATOM      9  C   UNL     1      -2.591  -2.094  -5.218  0.00  0.00    +0.147 C 
ATOM     10  S   UNL     1      -1.750  -1.375  -6.523  0.00  0.00    -0.017 S 
BRANCH   9  11
ATOM     11  N   UNL     1      -3.612  -2.941  -5.458  0.00  0.00    -0.323 N 
ATOM     12  H   UNL     1      -4.089  -3.349  -4.718  0.00  0.00    +0.148 HD
BRANCH  11  13
ATOM     13  C   UNL     1      -4.001  -3.246  -6.837  0.00  0.00    +0.072 C 
ATOM     14  C   UNL     1      -3.174  -4.436  -7.369  0.00  0.00    +0.022 C 
ATOM     15  C   UNL     1      -4.082  -5.667  -7.126  0.00  0.00    +0.002 C 
ATOM     16  C   UNL     1      -5.495  -5.118  -7.444  0.00  0.00    +0.002 C 
ATOM     17  C   UNL     1      -5.476  -3.680  -6.885  0.00  0.00    +0.022 C 
ENDBRANCH  11  13
ENDBRANCH   9  11
ENDBRANCH   7   9
ENDBRANCH   4   7
BRANCH   1  18
ATOM     18  C   UNL     1      -1.156  -0.969   0.008  0.00  0.00    +0.148 C 
BRANCH  18  23
ATOM     19  C   UNL     1      -0.016   1.351   0.009  0.00  0.00    +0.028 A 
ATOM     20  C   UNL     1       1.184   2.038   0.002  0.00  0.00    +0.025 A 
ATOM     21  C   UNL     1       2.343   1.335  -0.013  0.00  0.00    +0.060 A 
ATOM     22  S   UNL     1       1.753  -0.350  -0.017  0.00  0.00    -0.099 S 
ATOM     23  C   UNL     1       0.002  -0.004   0.002  0.00  0.00    +0.008 A 
ATOM     24 BR   UNL     1       1.208   3.929   0.011  0.00  0.00    -0.050 Br
ENDBRANCH  18  23
ENDBRANCH   1  18
TORSDOF 6
