REMARK  Name = ZINC53112005
REMARK  6 active torsions:
REMARK  status: ('A' for Active; 'I' for Inactive)
REMARK    1  A    between atoms: C_1  and  C_2
REMARK    2  A    between atoms: C_5  and  C_8
REMARK    3  A    between atoms: C_5  and  N_10
REMARK    4  A    between atoms: C_8  and  O_9
REMARK    5  A    between atoms: C_11  and  C_13
REMARK    6  A    between atoms: C_15  and  N_20
REMARK                            x       y       z     vdW  Elec       q    Type
REMARK                         _______ _______ _______ _____ _____    ______ ____
ROOT
ATOM      1  N   UNL     1       2.845  -2.006  -0.026  0.00  0.00    -0.304 N 
ATOM      2  C   UNL     1       3.649  -2.218  -1.086  0.00  0.00    +0.246 C 
ATOM      3  O   UNL     1       3.213  -2.768  -2.079  0.00  0.00    -0.270 OA
ATOM      4  H   UNL     1       3.170  -1.502   0.737  0.00  0.00    +0.150 HD
ENDROOT
BRANCH   1   9
ATOM      5  C   UNL     1      -0.074   1.462   0.551  0.00  0.00    +0.007 C 
ATOM      6  C   UNL     1      -0.032  -0.056   0.360  0.00  0.00    -0.014 C 
ATOM      7  C   UNL     1       0.641  -0.383  -0.975  0.00  0.00    +0.005 C 
ATOM      8  C   UNL     1       0.683  -1.901  -1.166  0.00  0.00    +0.028 C 
ATOM      9  C   UNL     1       1.479  -2.536  -0.024  0.00  0.00    +0.058 C 
ATOM     10  C   UNL     1       0.806  -2.209   1.311  0.00  0.00    +0.028 C 
ATOM     11  C   UNL     1       0.764  -0.692   1.502  0.00  0.00    +0.005 C 
BRANCH   9  12
ATOM     12  C   UNL     1       1.522  -4.054  -0.215  0.00  0.00    +0.181 C 
BRANCH  12  13
ATOM     13  O   UNL     1       2.368  -4.636   0.778  0.00  0.00    -0.393 OA
ATOM     14  H   UNL     1       2.442  -5.598   0.718  0.00  0.00    +0.209 HD
ENDBRANCH  12  13
ENDBRANCH   9  12
ENDBRANCH   1   9
BRANCH   2  15
ATOM     15  C   UNL     1       5.060  -1.781  -1.042  0.00  0.00    +0.052 A 
ATOM     16  C   UNL     1       5.564  -1.155   0.098  0.00  0.00    +0.037 A 
ATOM     17  C   UNL     1       6.889  -0.749   0.132  0.00  0.00    +0.025 A 
ATOM     18  C   UNL     1       7.711  -0.966  -0.968  0.00  0.00    +0.024 A 
ATOM     19  C   UNL     1       7.213  -1.586  -2.098  0.00  0.00    +0.018 A 
ATOM     20  C   UNL     1       5.896  -2.000  -2.140  0.00  0.00    +0.030 A 
ATOM     21 BR   UNL     1       5.222  -2.854  -3.686  0.00  0.00    -0.050 Br
BRANCH  17  22
ATOM     22  N   UNL     1       7.399  -0.121   1.272  0.00  0.00    -0.358 N 
ATOM     23  H   UNL     1       6.825   0.030   2.039  0.00  0.00    +0.142 HD
ATOM     24  H   UNL     1       8.326   0.163   1.296  0.00  0.00    +0.142 HD
ENDBRANCH  17  22
ENDBRANCH   2  15
TORSDOF 5
