REMARK  Name = ZINC14885927
REMARK  9 active torsions:
REMARK  status: ('A' for Active; 'I' for Inactive)
REMARK    1  A    between atoms: C_4  and  C_7
REMARK    2  A    between atoms: C_7  and  C_8
REMARK    3  A    between atoms: C_8  and  C_9
REMARK    4  A    between atoms: C_9  and  N_65
REMARK    5  A    between atoms: C_11  and  N_32
REMARK    6  A    between atoms: C_14  and  C_16
REMARK    7  A    between atoms: N_18  and  C_19
REMARK    8  A    between atoms: C_19  and  C_20
REMARK    9  A    between atoms: C_19  and  C_26
REMARK                            x       y       z     vdW  Elec       q    Type
REMARK                         _______ _______ _______ _____ _____    ______ ____
ROOT
ATOM      1  C   UNL     1       4.377  -6.303   3.149  0.00  0.00    -0.051 C 
ATOM      2  C   UNL     1       5.343  -5.757   2.076  0.00  0.00    +0.093 C 
ATOM      3  C   UNL     1       4.653  -4.494   1.522  0.00  0.00    +0.019 C 
ATOM      4  C   UNL     1       3.328  -4.383   2.306  0.00  0.00    +0.021 C 
ATOM      5  N   UNL     1       3.079  -5.757   2.756  0.00  0.00    +0.389 N 
ATOM      6  H   UNL     1       2.684  -6.312   1.988  0.00  0.00    -0.081 HD
ENDROOT
BRANCH   2   7
ATOM      7  N   UNL     1       6.632  -5.410   2.679  0.00  0.00    -0.231 N 
ATOM      8  C   UNL     1       6.836  -4.977   3.937  0.00  0.00    +0.245 A 
ATOM      9  N   UNL     1       8.126  -4.784   4.064  0.00  0.00    -0.117 NA
ATOM     10  N   UNL     1       8.686  -5.083   2.942  0.00  0.00    -0.023 NA
ATOM     11  N   UNL     1       7.786  -5.466   2.105  0.00  0.00    -0.044 NA
ENDBRANCH   2   7
BRANCH   4  12
ATOM     12  C   UNL     1       2.224  -3.891   1.407  0.00  0.00    +0.200 C 
ATOM     13  O   UNL     1       1.265  -4.598   1.181  0.00  0.00    -0.278 OA
ATOM     14  N   UNL     1       2.302  -2.664   0.853  0.00  0.00    -0.306 N 
ATOM     15  H   UNL     1       3.069  -2.099   1.033  0.00  0.00    +0.150 HD
BRANCH  14  16
ATOM     16  C   UNL     1       1.229  -2.186  -0.022  0.00  0.00    +0.133 C 
BRANCH  16  17
ATOM     17  C   UNL     1       1.208  -0.679  -0.014  0.00  0.00    -0.023 A 
ATOM     18  C   UNL     1       0.002  -0.004   0.002  0.00  0.00    +0.006 A 
ATOM     19  C   UNL     1      -0.017   1.378   0.010  0.00  0.00    +0.000 A 
ATOM     20  C   UNL     1       1.171   2.086   0.002  0.00  0.00    +0.000 A 
ATOM     21  C   UNL     1       2.377   1.411  -0.014  0.00  0.00    +0.000 A 
ATOM     22  C   UNL     1       2.396   0.029  -0.021  0.00  0.00    +0.006 A 
ENDBRANCH  16  17
BRANCH  16  23
ATOM     23  C   UNL     1       1.468  -2.677  -1.426  0.00  0.00    -0.023 A 
ATOM     24  C   UNL     1       2.749  -2.686  -1.946  0.00  0.00    +0.006 A 
ATOM     25  C   UNL     1       2.970  -3.141  -3.233  0.00  0.00    +0.000 A 
ATOM     26  C   UNL     1       1.908  -3.578  -4.003  0.00  0.00    +0.000 A 
ATOM     27  C   UNL     1       0.626  -3.564  -3.485  0.00  0.00    +0.000 A 
ATOM     28  C   UNL     1       0.407  -3.114  -2.196  0.00  0.00    +0.006 A 
ENDBRANCH  16  23
ENDBRANCH  14  16
ENDBRANCH   4  12
BRANCH   5  29
ATOM     29  C   UNL     1       2.124  -5.765   3.910  0.00  0.00    -0.077 C 
BRANCH  29  30
ATOM     30  C   UNL     1       1.661  -7.195   4.195  0.00  0.00    -0.014 C 
BRANCH  30  31
ATOM     31  C   UNL     1       0.703  -7.192   5.388  0.00  0.00    +0.033 C 
BRANCH  31  35
ATOM     32  C   UNL     1      -0.592 -11.184   6.185  0.00  0.00    +0.000 A 
ATOM     33  C   UNL     1       0.544 -10.690   6.799  0.00  0.00    +0.000 A 
ATOM     34  C   UNL     1       0.963  -9.398   6.541  0.00  0.00    +0.003 A 
ATOM     35  C   UNL     1       0.246  -8.600   5.669  0.00  0.00    -0.047 A 
ATOM     36  C   UNL     1      -0.892  -9.093   5.058  0.00  0.00    +0.003 A 
ATOM     37  C   UNL     1      -1.308 -10.386   5.312  0.00  0.00    +0.000 A 
ENDBRANCH  31  35
ENDBRANCH  30  31
ENDBRANCH  29  30
ENDBRANCH   5  29
TORSDOF 9
