REMARK  Name = ZINC63245258
REMARK  9 active torsions:
REMARK  status: ('A' for Active; 'I' for Inactive)
REMARK    1  A    between atoms: C_1  and  C_2
REMARK    2  A    between atoms: C_2  and  O_3
REMARK    3  A    between atoms: O_3  and  C_4
REMARK    4  A    between atoms: C_9  and  N_10
REMARK    5  A    between atoms: N_13  and  C_16
REMARK    6  A    between atoms: C_16  and  N_17
REMARK    7  A    between atoms: N_20  and  C_33
REMARK    8  A    between atoms: C_21  and  C_24
REMARK    9  A    between atoms: C_33  and  C_34
REMARK                            x       y       z     vdW  Elec       q    Type
REMARK                         _______ _______ _______ _____ _____    ______ ____
ROOT
ATOM      1  N   UNL     1      -6.889   2.453   0.911  0.00  0.00    -0.232 N 
ATOM      2  C   UNL     1      -8.120   2.711   0.451  0.00  0.00    +0.152 C 
ATOM      3  S   UNL     1      -8.525   2.807  -1.210  0.00  0.00    -0.017 S 
ATOM      4  N   UNL     1      -8.999   2.886   1.454  0.00  0.00    -0.288 N 
ATOM      5  C   UNL     1      -8.251   2.722   2.711  0.00  0.00    +0.189 C 
ATOM      6  N   UNL     1      -6.869   2.433   2.276  0.00  0.00    -0.213 NA
ATOM      7  H   UNL     1      -6.227   3.122   2.638  0.00  0.00    +0.147 HD
ENDROOT
BRANCH   5   8
ATOM      8  C   UNL     1      -8.301   3.989   3.524  0.00  0.00    -0.006 C 
ATOM      9  C   UNL     1      -8.801   4.135   4.772  0.00  0.00    +0.002 A 
ATOM     10  C   UNL     1      -9.425   3.194   5.710  0.00  0.00    +0.010 A 
ATOM     11  C   UNL     1      -9.836   3.645   6.917  0.00  0.00    +0.001 A 
ATOM     12  C   UNL     1      -9.682   4.987   7.293  0.00  0.00    +0.002 A 
ATOM     13  C   UNL     1      -9.119   5.911   6.486  0.00  0.00    +0.026 A 
ATOM     14  C   UNL     1      -8.650   5.546   5.194  0.00  0.00    +0.043 A 
ATOM     15  N   UNL     1      -8.079   6.245   4.243  0.00  0.00    -0.380 N 
ATOM     16  C   UNL     1      -7.797   5.354   3.112  0.00  0.00    +0.148 C 
ATOM     17  H   UNL     1      -7.873   7.192   4.283  0.00  0.00    +0.160 HD
ENDBRANCH   5   8
BRANCH   1  18
ATOM     18  C   UNL     1      -5.719   2.216   0.061  0.00  0.00    +0.212 C 
BRANCH  18  22
ATOM     19  N   UNL     1      -3.901  -1.567   0.031  0.00  0.00    -0.325 N 
ATOM     20  C   UNL     1      -4.524  -1.115  -1.222  0.00  0.00    +0.120 C 
ATOM     21  C   UNL     1      -4.676   0.409  -1.168  0.00  0.00    +0.105 C 
ATOM     22  N   UNL     1      -5.401   0.782   0.055  0.00  0.00    -0.283 NA
ATOM     23  C   UNL     1      -4.646   0.405   1.257  0.00  0.00    +0.105 C 
ATOM     24  C   UNL     1      -4.495  -1.124   1.302  0.00  0.00    +0.120 C 
BRANCH  19  30
ATOM     25  C   UNL     1      -1.498  -1.849   0.006  0.00  0.00    +0.141 A 
ATOM     26  C   UNL     1      -0.390  -2.680  -0.003  0.00  0.00    +0.047 A 
ATOM     27  C   UNL     1      -0.554  -4.053  -0.009  0.00  0.00    +0.004 A 
ATOM     28  C   UNL     1      -1.823  -4.601  -0.006  0.00  0.00    +0.002 A 
ATOM     29  C   UNL     1      -2.935  -3.779   0.004  0.00  0.00    +0.027 A 
ATOM     30  C   UNL     1      -2.778  -2.401   0.016  0.00  0.00    +0.072 A 
BRANCH  25  31
ATOM     31  O   UNL     1      -1.339  -0.499   0.012  0.00  0.00    -0.490 OA
BRANCH  31  33
ATOM     32  C   UNL     1      -0.019   1.526   0.010  0.00  0.00    +0.048 C 
ATOM     33  C   UNL     1       0.002  -0.004   0.002  0.00  0.00    +0.226 C 
ENDBRANCH  31  33
ENDBRANCH  25  31
ENDBRANCH  19  30
ENDBRANCH  18  22
ENDBRANCH   1  18
BRANCH   4  34
ATOM     34  C   UNL     1     -10.427   3.183   1.321  0.00  0.00    +0.140 C 
BRANCH  34  35
ATOM     35  C   UNL     1     -11.218   1.874   1.265  0.00  0.00    +0.136 C 
ATOM     36  C   UNL     1     -12.710   2.174   1.004  0.00  0.00    +0.035 C 
ATOM     37  C   UNL     1     -13.419   1.138   1.918  0.00  0.00    +0.031 C 
ATOM     38  C   UNL     1     -12.431   1.073   3.111  0.00  0.00    +0.160 C 
ATOM     39  O   UNL     1     -11.124   1.196   2.523  0.00  0.00    -0.375 OA
ENDBRANCH  34  35
ENDBRANCH   4  34
TORSDOF 8
