REMARK  Name = ZINC40981178
REMARK  13 active torsions:
REMARK  status: ('A' for Active; 'I' for Inactive)
REMARK    1  A    between atoms: C_1  and  C_2
REMARK    2  A    between atoms: C_2  and  C_3
REMARK    3  A    between atoms: C_3  and  S_4
REMARK    4  A    between atoms: S_4  and  C_5
REMARK    5  A    between atoms: C_10  and  C_22
REMARK    6  A    between atoms: C_16  and  C_20
REMARK    7  A    between atoms: C_16  and  C_21
REMARK    8  A    between atoms: C_25  and  O_31
REMARK    9  A    between atoms: C_26  and  O_28
REMARK   10  A    between atoms: O_28  and  C_29
REMARK   11  A    between atoms: C_29  and  C_30
REMARK   12  A    between atoms: O_31  and  C_32
REMARK   13  A    between atoms: C_32  and  C_33
REMARK                            x       y       z     vdW  Elec       q    Type
REMARK                         _______ _______ _______ _____ _____    ______ ____
ROOT
ATOM      1  C   UNL     1       1.589  -2.718  -2.758  0.00  0.00    +0.210 A 
ATOM      2  N   UNL     1       2.084  -1.835  -3.638  0.00  0.00    -0.187 NA
ATOM      3  C   UNL     1       2.649  -2.475  -4.625  0.00  0.00    +0.219 A 
ATOM      4  N   UNL     1       2.521  -3.804  -4.395  0.00  0.00    -0.220 N 
ATOM      5  N   UNL     1       1.843  -3.937  -3.184  0.00  0.00    -0.141 NA
ATOM      6  C   UNL     1       3.029  -4.828  -5.300  0.00  0.00    +0.176 C 
ATOM      7  C   UNL     1       3.982  -4.208  -6.299  0.00  0.00    +0.041 C 
ATOM      8  C   UNL     1       4.062  -2.873  -6.481  0.00  0.00    +0.020 C 
ATOM      9  N   UNL     1       3.295  -1.995  -5.753  0.00  0.00    -0.287 N 
ATOM     10  C   UNL     1       5.006  -2.285  -7.503  0.00  0.00    +0.058 C 
ATOM     11  C   UNL     1       6.243  -3.176  -7.633  0.00  0.00    -0.023 C 
ATOM     12  C   UNL     1       5.785  -4.578  -8.048  0.00  0.00    +0.086 C 
ATOM     13  C   UNL     1       4.793  -5.087  -7.039  0.00  0.00    +0.164 C 
ATOM     14  O   UNL     1       4.690  -6.284  -6.860  0.00  0.00    -0.292 OA
ATOM     15  C   UNL     1       7.181  -2.604  -8.698  0.00  0.00    +0.011 C 
ATOM     16  C   UNL     1       6.971  -3.247  -6.289  0.00  0.00    +0.011 C 
ATOM     17  H   UNL     1       3.207  -1.067  -6.022  0.00  0.00    +0.155 HD
ENDROOT
BRANCH   6  18
ATOM     18  C   UNL     1       1.877  -5.460  -6.038  0.00  0.00    -0.015 A 
ATOM     19  C   UNL     1       1.062  -4.683  -6.840  0.00  0.00    +0.010 A 
ATOM     20  C   UNL     1       0.004  -5.259  -7.518  0.00  0.00    +0.050 A 
ATOM     21  C   UNL     1      -0.241  -6.617  -7.396  0.00  0.00    +0.162 A 
ATOM     22  C   UNL     1       0.579  -7.399  -6.589  0.00  0.00    +0.162 A 
ATOM     23  C   UNL     1       1.641  -6.817  -5.915  0.00  0.00    +0.055 A 
BRANCH  22  24
ATOM     24  O   UNL     1       0.343  -8.733  -6.465  0.00  0.00    -0.489 OA
BRANCH  24  25
ATOM     25  C   UNL     1       1.226  -9.473  -5.620  0.00  0.00    +0.226 C 
ATOM     26  C   UNL     1       0.806 -10.944  -5.606  0.00  0.00    +0.048 C 
ENDBRANCH  24  25
ENDBRANCH  22  24
BRANCH  21  27
ATOM     27  O   UNL     1      -1.282  -7.185  -8.062  0.00  0.00    -0.484 OA
BRANCH  27  28
ATOM     28  C   UNL     1      -2.083  -6.321  -8.871  0.00  0.00    +0.264 C 
BRANCH  28  29
ATOM     29  C   UNL     1      -3.179  -7.120  -9.527  0.00  0.00    -0.010 A 
ATOM     30  C   UNL     1      -2.964  -7.705 -10.761  0.00  0.00    +0.007 A 
ATOM     31  C   UNL     1      -3.970  -8.439 -11.363  0.00  0.00    +0.000 A 
ATOM     32  C   UNL     1      -5.190  -8.588 -10.730  0.00  0.00    +0.000 A 
ATOM     33  C   UNL     1      -5.404  -8.003  -9.496  0.00  0.00    +0.000 A 
ATOM     34  C   UNL     1      -4.397  -7.274  -8.892  0.00  0.00    +0.007 A 
ENDBRANCH  28  29
ENDBRANCH  27  28
ENDBRANCH  21  27
ENDBRANCH   6  18
BRANCH   1  35
ATOM     35  S   UNL     1       0.743  -2.311  -1.267  0.00  0.00    -0.084 S 
BRANCH  35  36
ATOM     36  C   UNL     1       0.718  -0.497  -1.257  0.00  0.00    +0.077 C 
BRANCH  36  38
ATOM     37  C   UNL     1      -0.019   1.526   0.010  0.00  0.00    +0.004 C 
ATOM     38  C   UNL     1       0.002  -0.004   0.002  0.00  0.00    +0.008 C 
ENDBRANCH  36  38
ENDBRANCH  35  36
ENDBRANCH   1  35
TORSDOF 9
