REMARK  Name = ZINC01302539
REMARK  5 active torsions:
REMARK  status: ('A' for Active; 'I' for Inactive)
REMARK    1  A    between atoms: C_3  and  C_9
REMARK    2  A    between atoms: C_18  and  C_26
REMARK    3  A    between atoms: C_19  and  N_25
REMARK    4  A    between atoms: C_20  and  C_21
REMARK    5  A    between atoms: C_20  and  C_23
REMARK                            x       y       z     vdW  Elec       q    Type
REMARK                         _______ _______ _______ _____ _____    ______ ____
ROOT
ATOM      1  C   UNL     1       2.246   2.595   2.281  0.00  0.00    +0.069 C 
ATOM      2  C   UNL     1       2.067   2.023   0.874  0.00  0.00    +0.044 C 
ATOM      3  C   UNL     1       1.462   3.029  -0.078  0.00  0.00    +0.090 C 
ATOM      4  N   UNL     1       0.030   2.796  -0.288  0.00  0.00    -0.312 NA
ATOM      5  C   UNL     1      -0.190   1.447  -0.839  0.00  0.00    +0.108 C 
ATOM      6  C   UNL     1       0.271   0.451   0.197  0.00  0.00    -0.007 C 
ATOM      7  C   UNL     1       1.288   0.744   0.985  0.00  0.00    -0.026 C 
ATOM      8  C   UNL     1       1.705  -0.209   2.044  0.00  0.00    +0.074 C 
ATOM      9  C   UNL     1       2.529   0.220   3.034  0.00  0.00    +0.054 C 
ATOM     10  C   UNL     1       3.072   1.615   3.113  0.00  0.00    +0.188 C 
ATOM     11  H   UNL     1      -0.500   2.884   0.672  0.00  0.00    +0.122 HD
ENDROOT
BRANCH   1  14
ATOM     12  C   UNL     1      -1.017   1.881   4.042  0.00  0.00    +0.002 A 
ATOM     13  C   UNL     1       0.222   1.705   3.453  0.00  0.00    +0.005 A 
ATOM     14  C   UNL     1       0.896   2.788   2.922  0.00  0.00    -0.021 A 
ATOM     15  C   UNL     1       0.333   4.051   2.984  0.00  0.00    +0.063 A 
ATOM     16  C   UNL     1      -0.909   4.226   3.569  0.00  0.00    +0.060 A 
ATOM     17  C   UNL     1      -1.582   3.141   4.100  0.00  0.00    +0.021 A 
ATOM     18 CL   UNL     1      -1.619   5.809   3.642  0.00  0.00    -0.082 Cl
ATOM     19 CL   UNL     1       1.182   5.413   2.323  0.00  0.00    -0.082 Cl
ENDBRANCH   1  14
BRANCH   9  20
ATOM     20  N   UNL     1       2.880  -0.666   4.013  0.00  0.00    -0.358 N 
ATOM     21  H   UNL     1       3.546  -0.349   4.829  0.00  0.00    +0.142 HD
ATOM     22  H   UNL     1       2.498  -1.698   3.984  0.00  0.00    +0.142 HD
ENDBRANCH   9  20
BRANCH  10  23
ATOM     23  C   UNL     1       3.066   2.054   4.518  0.00  0.00    +0.091 C 
ATOM     24  N   UNL     1       3.060   2.393   5.602  0.00  0.00    -0.194 NA
ENDBRANCH  10  23
BRANCH  10  25
ATOM     25  C   UNL     1       4.459   1.617   2.619  0.00  0.00    +0.091 C 
ATOM     26  N   UNL     1       5.529   1.619   2.237  0.00  0.00    -0.194 NA
ENDBRANCH  10  25
BRANCH   8  27
ATOM     27  C   UNL     1       1.245  -1.565   2.021  0.00  0.00    +0.101 C 
ATOM     28  N   UNL     1       0.880  -2.641   2.003  0.00  0.00    -0.191 NA
ENDBRANCH   8  27
TORSDOF 5
