REMARK  Name = ZINC15729866
REMARK  10 active torsions:
REMARK  status: ('A' for Active; 'I' for Inactive)
REMARK    1  A    between atoms: C_1  and  C_2
REMARK    2  A    between atoms: C_5  and  S_8
REMARK    3  A    between atoms: S_8  and  N_11
REMARK    4  A    between atoms: N_11  and  C_12
REMARK    5  A    between atoms: C_12  and  C_14
REMARK    6  A    between atoms: C_12  and  C_35
REMARK    7  A    between atoms: C_16  and  C_19
REMARK    8  A    between atoms: N_29  and  C_30
REMARK    9  A    between atoms: C_35  and  C_36
REMARK   10  A    between atoms: C_35  and  C_37
REMARK                            x       y       z     vdW  Elec       q    Type
REMARK                         _______ _______ _______ _____ _____    ______ ____
ROOT
ATOM      1  C   UNL     1      -0.016   1.306   0.009  0.00  0.00    +0.247 A 
ATOM      2  N   UNL     1       0.002  -0.004   0.002  0.00  0.00    -0.190 NA
ATOM      3  C   UNL     1       1.310  -0.349  -0.012  0.00  0.00    +0.202 A 
ATOM      4  N   UNL     1       2.002   0.760  -0.013  0.00  0.00    -0.056 NA
ATOM      5  O   UNL     1       1.256   1.717  -0.001  0.00  0.00    -0.336 OA
ENDROOT
BRANCH   3   6
ATOM      6  C   UNL     1       1.856  -1.729  -0.025  0.00  0.00    +0.025 A 
ATOM      7  C   UNL     1       0.989  -2.822  -0.016  0.00  0.00    +0.014 A 
ATOM      8  C   UNL     1       1.493  -4.105  -0.033  0.00  0.00    +0.029 A 
ATOM      9  C   UNL     1       2.866  -4.312  -0.047  0.00  0.00    +0.070 A 
ATOM     10  C   UNL     1       3.738  -3.220  -0.050  0.00  0.00    +0.068 A 
ATOM     11  C   UNL     1       3.234  -1.931  -0.039  0.00  0.00    +0.039 A 
ATOM     12  N   UNL     1       5.031  -3.739  -0.066  0.00  0.00    -0.306 N 
ATOM     13  H   UNL     1       5.851  -3.220  -0.071  0.00  0.00    +0.170 HD
ATOM     14  C   UNL     1       4.949  -5.082  -0.072  0.00  0.00    +0.328 A 
ATOM     15  O   UNL     1       5.898  -5.843  -0.085  0.00  0.00    -0.247 OA
ATOM     16  N   UNL     1       3.656  -5.457  -0.061  0.00  0.00    -0.289 N 
BRANCH  16  17
ATOM     17  C   UNL     1       3.164  -6.838  -0.063  0.00  0.00    +0.092 C 
ATOM     18  C   UNL     1       3.723  -7.600   1.155  0.00  0.00    +0.025 C 
ATOM     19  C   UNL     1       3.994  -9.028   0.618  0.00  0.00    +0.002 C 
ATOM     20  C   UNL     1       4.521  -8.761  -0.814  0.00  0.00    +0.002 C 
ATOM     21  C   UNL     1       3.670  -7.575  -1.315  0.00  0.00    +0.025 C 
ENDBRANCH  16  17
ENDBRANCH   3   6
BRANCH   1  22
ATOM     22  C   UNL     1      -1.240   2.184   0.020  0.00  0.00    +0.167 C 
BRANCH  22  23
ATOM     23  C   UNL     1      -1.430   2.777   1.418  0.00  0.00    +0.011 C 
ATOM     24  C   UNL     1      -1.605   1.645   2.432  0.00  0.00    +0.009 C 
ATOM     25  C   UNL     1      -0.202   3.610   1.789  0.00  0.00    +0.009 C 
ENDBRANCH  22  23
BRANCH  22  26
ATOM     26  N   UNL     1      -1.072   3.267  -0.952  0.00  0.00    -0.178 NA
ATOM     27  H   UNL     1      -0.196   3.656  -1.099  0.00  0.00    +0.149 HD
BRANCH  26  28
ATOM     28  S   UNL     1      -2.380   3.829  -1.799  0.00  0.00    +0.059 S 
ATOM     29  O   UNL     1      -1.905   4.881  -2.628  0.00  0.00    -0.153 OA
ATOM     30  O   UNL     1      -3.045   2.688  -2.323  0.00  0.00    -0.153 OA
BRANCH  28  35
ATOM     31  C   UNL     1      -6.145   6.343   2.189  0.00  0.00    +0.044 C 
ATOM     32  C   UNL     1      -5.205   5.715   1.193  0.00  0.00    -0.050 A 
ATOM     33  C   UNL     1      -4.225   6.481   0.590  0.00  0.00    +0.005 A 
ATOM     34  C   UNL     1      -3.362   5.905  -0.324  0.00  0.00    +0.029 A 
ATOM     35  C   UNL     1      -3.479   4.564  -0.634  0.00  0.00    +0.105 A 
ATOM     36  C   UNL     1      -4.462   3.799  -0.035  0.00  0.00    +0.029 A 
ATOM     37  C   UNL     1      -5.322   4.374   0.883  0.00  0.00    +0.005 A 
ENDBRANCH  28  35
ENDBRANCH  26  28
ENDBRANCH  22  26
ENDBRANCH   1  22
TORSDOF 7
