REMARK  Name = ZINC13500604
REMARK  10 active torsions:
REMARK  status: ('A' for Active; 'I' for Inactive)
REMARK    1  A    between atoms: C_1  and  C_2
REMARK    2  A    between atoms: C_12  and  C_14
REMARK    3  A    between atoms: C_14  and  N_69
REMARK    4  A    between atoms: C_15  and  N_69
REMARK    5  A    between atoms: C_20  and  C_22
REMARK    6  A    between atoms: C_20  and  C_32
REMARK    7  A    between atoms: C_20  and  N_69
REMARK    8  A    between atoms: N_26  and  C_27
REMARK    9  A    between atoms: C_32  and  C_33
REMARK   10  A    between atoms: C_32  and  C_34
REMARK                            x       y       z     vdW  Elec       q    Type
REMARK                         _______ _______ _______ _____ _____    ______ ____
ROOT
ATOM      1  N   UNL     1       0.703  -2.863   5.216  0.00  0.00    +0.391 N 
ATOM      2  H   UNL     1       0.866  -1.850   5.254  0.00  0.00    -0.080 HD
ENDROOT
BRANCH   1   3
ATOM      3  C   UNL     1       1.194  -3.380   3.921  0.00  0.00    -0.067 C 
ATOM      4  C   UNL     1       2.733  -3.295   3.878  0.00  0.00    -0.015 C 
ATOM      5  C   UNL     1       3.050  -2.882   2.418  0.00  0.00    -0.002 C 
ATOM      6  C   UNL     1       1.911  -1.885   2.090  0.00  0.00    -0.002 C 
ATOM      7  C   UNL     1       0.671  -2.484   2.785  0.00  0.00    -0.015 C 
ENDBRANCH   1   3
BRANCH   1   8
ATOM      8  C   UNL     1      -0.746  -3.122   5.347  0.00  0.00    -0.036 C 
BRANCH   8  20
ATOM      9  C   UNL     1      -3.568   1.040   1.114  0.00  0.00    +0.046 C 
ATOM     10  C   UNL     1      -3.446  -0.462   1.102  0.00  0.00    -0.026 A 
ATOM     11  C   UNL     1      -3.993  -1.192   0.068  0.00  0.00    +0.005 A 
ATOM     12  C   UNL     1      -3.883  -2.575   0.042  0.00  0.00    +0.001 A 
ATOM     13  C   UNL     1      -3.241  -3.240   1.047  0.00  0.00    +0.010 A 
ATOM     14  C   UNL     1      -2.683  -2.521   2.109  0.00  0.00    -0.001 A 
ATOM     15  C   UNL     1      -2.787  -1.117   2.136  0.00  0.00    +0.052 A 
ATOM     16  N   UNL     1      -2.236  -0.413   3.185  0.00  0.00    -0.322 N 
ATOM     17  H   UNL     1      -2.309   0.554   3.203  0.00  0.00    +0.169 HD
ATOM     18  C   UNL     1      -1.600  -1.047   4.186  0.00  0.00    +0.251 A 
ATOM     19  O   UNL     1      -1.125  -0.393   5.097  0.00  0.00    -0.268 OA
ATOM     20  C   UNL     1      -1.468  -2.452   4.206  0.00  0.00    +0.001 A 
ATOM     21  C   UNL     1      -1.988  -3.202   3.203  0.00  0.00    +0.017 A 
ENDBRANCH   8  20
ENDBRANCH   1   8
BRANCH   1  22
ATOM     22  C   UNL     1       1.434  -3.508   6.327  0.00  0.00    +0.006 C 
BRANCH  22  23
ATOM     23  C   UNL     1       2.818  -2.917   6.404  0.00  0.00    +0.139 A 
ATOM     24  N   UNL     1       3.129  -1.645   6.361  0.00  0.00    -0.115 NA
ATOM     25  N   UNL     1       4.410  -1.545   6.457  0.00  0.00    -0.023 NA
ATOM     26  N   UNL     1       4.925  -2.721   6.552  0.00  0.00    -0.044 NA
ATOM     27  N   UNL     1       3.975  -3.594   6.523  0.00  0.00    -0.228 N 
BRANCH  27  28
ATOM     28  C   UNL     1       4.128  -5.049   6.604  0.00  0.00    +0.111 C 
ATOM     29  C   UNL     1       4.855  -5.432   7.910  0.00  0.00    +0.027 C 
ATOM     30  C   UNL     1       5.759  -6.623   7.505  0.00  0.00    +0.002 C 
ATOM     31  C   UNL     1       6.240  -6.223   6.089  0.00  0.00    +0.002 C 
ATOM     32  C   UNL     1       5.008  -5.552   5.447  0.00  0.00    +0.027 C 
ENDBRANCH  27  28
ENDBRANCH  22  23
BRANCH  22  33
ATOM     33  C   UNL     1       0.693  -3.242   7.639  0.00  0.00    -0.024 C 
ATOM     34  C   UNL     1       0.138  -1.816   7.631  0.00  0.00    +0.006 C 
ATOM     35  C   UNL     1      -0.461  -4.237   7.784  0.00  0.00    +0.006 C 
ENDBRANCH  22  33
ENDBRANCH   1  22
TORSDOF 7
