REMARK  Name = ZINC40913946
REMARK  11 active torsions:
REMARK  status: ('A' for Active; 'I' for Inactive)
REMARK    1  A    between atoms: C_1  and  O_2
REMARK    2  A    between atoms: O_2  and  C_3
REMARK    3  A    between atoms: C_5  and  N_31
REMARK    4  A    between atoms: C_8  and  N_9
REMARK    5  A    between atoms: C_10  and  C_12
REMARK    6  A    between atoms: C_13  and  C_14
REMARK    7  A    between atoms: C_16  and  O_29
REMARK    8  A    between atoms: C_17  and  O_21
REMARK    9  A    between atoms: O_21  and  C_22
REMARK   10  A    between atoms: C_22  and  C_23
REMARK   11  A    between atoms: O_29  and  C_30
REMARK                            x       y       z     vdW  Elec       q    Type
REMARK                         _______ _______ _______ _____ _____    ______ ____
ROOT
ATOM      1  C   UNL     1      -0.276  -4.911  -1.026  0.00  0.00    +0.068 C 
ATOM      2  C   UNL     1      -0.134  -6.254  -1.023  0.00  0.00    +0.013 C 
ENDROOT
BRANCH   2   3
ATOM      3  C   UNL     1      -0.653  -7.051  -2.144  0.00  0.00    -0.020 A 
ATOM      4  C   UNL     1      -0.511  -8.443  -2.140  0.00  0.00    +0.057 A 
ATOM      5  C   UNL     1      -1.001  -9.187  -3.195  0.00  0.00    +0.163 A 
ATOM      6  C   UNL     1      -1.636  -8.551  -4.261  0.00  0.00    +0.176 A 
ATOM      7  C   UNL     1      -1.777  -7.169  -4.267  0.00  0.00    +0.064 A 
ATOM      8  C   UNL     1      -1.295  -6.420  -3.215  0.00  0.00    +0.027 A 
ATOM      9 BR   UNL     1      -2.638  -6.315  -5.718  0.00  0.00    -0.046 Br
BRANCH   5  10
ATOM     10  O   UNL     1      -0.865 -10.540  -3.194  0.00  0.00    -0.491 OA
ATOM     11  C   UNL     1      -0.204 -11.125  -2.070  0.00  0.00    +0.277 C 
ENDBRANCH   5  10
BRANCH   6  12
ATOM     12  O   UNL     1      -2.117  -9.285  -5.298  0.00  0.00    -0.483 OA
BRANCH  12  13
ATOM     13  C   UNL     1      -3.465  -9.748  -5.195  0.00  0.00    +0.264 C 
BRANCH  13  14
ATOM     14  C   UNL     1      -3.821 -10.538  -6.428  0.00  0.00    -0.010 A 
ATOM     15  C   UNL     1      -4.364  -9.898  -7.526  0.00  0.00    +0.007 A 
ATOM     16  C   UNL     1      -4.690 -10.622  -8.657  0.00  0.00    +0.000 A 
ATOM     17  C   UNL     1      -4.474 -11.987  -8.690  0.00  0.00    +0.000 A 
ATOM     18  C   UNL     1      -3.930 -12.627  -7.592  0.00  0.00    +0.000 A 
ATOM     19  C   UNL     1      -3.600 -11.902  -6.463  0.00  0.00    +0.007 A 
ENDBRANCH  13  14
ENDBRANCH  12  13
ENDBRANCH   6  12
ENDBRANCH   2   3
BRANCH   1  21
ATOM     20  N   UNL     1       0.098  -2.778   0.085  0.00  0.00    -0.279 N 
ATOM     21  C   UNL     1       0.240  -4.119   0.088  0.00  0.00    +0.241 C 
ATOM     22  O   UNL     1       0.799  -4.669   1.019  0.00  0.00    -0.270 OA
ATOM     23  H   UNL     1      -0.416  -2.347  -0.615  0.00  0.00    +0.155 HD
BRANCH  20  29
ATOM     24  C   UNL     1       0.172  -0.757   1.415  0.00  0.00    +0.143 A 
ATOM     25  C   UNL     1       0.761  -0.003   2.416  0.00  0.00    +0.080 A 
ATOM     26  C   UNL     1       1.865  -0.489   3.090  0.00  0.00    +0.130 A 
ATOM     27  C   UNL     1       2.386  -1.729   2.767  0.00  0.00    +0.035 A 
ATOM     28  C   UNL     1       1.805  -2.488   1.769  0.00  0.00    +0.029 A 
ATOM     29  C   UNL     1       0.692  -2.009   1.093  0.00  0.00    +0.076 A 
BRANCH  26  30
ATOM     30  N   UNL     1       2.493   0.319   4.160  0.00  0.00    +0.057 N 
ATOM     31  O   UNL     1       2.039   1.403   4.443  0.00  0.00    -0.126 OA
ATOM     32  O   UNL     1       3.459  -0.105   4.750  0.00  0.00    -0.126 OA
ENDBRANCH  26  30
BRANCH  24  34
ATOM     33  C   UNL     1      -1.394   1.011   1.135  0.00  0.00    +0.277 C 
ATOM     34  O   UNL     1      -0.915  -0.280   0.751  0.00  0.00    -0.493 OA
ENDBRANCH  24  34
ENDBRANCH  20  29
ENDBRANCH   1  21
TORSDOF 9
