REMARK  Name = ZINC44174363
REMARK  8 active torsions:
REMARK  status: ('A' for Active; 'I' for Inactive)
REMARK    1  A    between atoms: C_1  and  C_2
REMARK    2  A    between atoms: C_7  and  N_8
REMARK    3  A    between atoms: C_13  and  C_32
REMARK    4  A    between atoms: C_16  and  C_21
REMARK    5  A    between atoms: C_16  and  C_29
REMARK    6  A    between atoms: C_21  and  C_22
REMARK    7  A    between atoms: C_25  and  O_28
REMARK    8  A    between atoms: C_33  and  C_34
REMARK                            x       y       z     vdW  Elec       q    Type
REMARK                         _______ _______ _______ _____ _____    ______ ____
ROOT
ATOM      1  N   UNL     1       0.015   0.006   2.412  0.00  0.00    -0.210 N 
ATOM      2  C   UNL     1      -1.124   0.361   3.091  0.00  0.00    +0.229 C 
ATOM      3  O   UNL     1      -2.255  -0.026   2.891  0.00  0.00    -0.275 OA
ATOM      4  C   UNL     1      -0.678   1.296   4.094  0.00  0.00    +0.077 C 
ATOM      5  C   UNL     1      -1.101   1.867   5.384  0.00  0.00    -0.034 C 
ATOM      6  N   UNL     1       0.140   2.592   5.829  0.00  0.00    +0.395 N 
ATOM      7  C   UNL     1       1.307   1.968   5.137  0.00  0.00    +0.052 C 
ATOM      8  C   UNL     1       0.740   0.706   4.468  0.00  0.00    +0.086 C 
ATOM      9  C   UNL     1       1.156   0.386   3.059  0.00  0.00    +0.229 C 
ATOM     10  O   UNL     1       2.274   0.454   2.594  0.00  0.00    -0.275 OA
ATOM     11  H   UNL     1       0.075   3.567   5.577  0.00  0.00    -0.083 HD
ATOM     12  H   UNL     1       0.247   2.503   6.828  0.00  0.00    -0.083 HD
ENDROOT
BRANCH   1  19
ATOM     13  C   UNL     1      -0.026   1.537   0.013  0.00  0.00    +0.045 C 
ATOM     14  C   UNL     1      -0.012   0.030  -0.005  0.00  0.00    -0.029 A 
ATOM     15  C   UNL     1      -0.013  -0.647  -1.209  0.00  0.00    +0.005 A 
ATOM     16  C   UNL     1       0.000  -2.030  -1.226  0.00  0.00    +0.000 A 
ATOM     17  C   UNL     1       0.015  -2.739  -0.039  0.00  0.00    +0.002 A 
ATOM     18  C   UNL     1       0.016  -2.067   1.168  0.00  0.00    +0.024 A 
ATOM     19  C   UNL     1       0.008  -0.679   1.188  0.00  0.00    +0.047 A 
ENDBRANCH   1  19
BRANCH   7  20
ATOM     20  C   UNL     1       2.364   1.583   6.140  0.00  0.00    +0.347 C 
ATOM     21  O   UNL     1       2.196   1.822   7.324  0.00  0.00    -0.248 OA
ATOM     22  O   UNL     1       3.386   1.032   5.767  0.00  0.00    -0.248 OA
ENDBRANCH   7  20
BRANCH   5  23
ATOM     23  C   UNL     1      -1.468   0.779   6.360  0.00  0.00    -0.041 C 
ATOM     24  C   UNL     1      -2.661   0.782   6.937  0.00  0.00    +0.002 C 
BRANCH  24  25
ATOM     25  C   UNL     1      -2.979  -0.214   7.982  0.00  0.00    -0.025 A 
ATOM     26  C   UNL     1      -2.024  -1.156   8.366  0.00  0.00    +0.008 A 
ATOM     27  C   UNL     1      -2.327  -2.084   9.341  0.00  0.00    +0.001 A 
ATOM     28  C   UNL     1      -3.575  -2.082   9.937  0.00  0.00    +0.000 A 
ATOM     29  C   UNL     1      -4.527  -1.151   9.561  0.00  0.00    +0.001 A 
ATOM     30  C   UNL     1      -4.234  -0.214   8.591  0.00  0.00    +0.008 A 
ENDBRANCH  24  25
ENDBRANCH   5  23
BRANCH   7  31
ATOM     31  C   UNL     1       1.885   2.933   4.100  0.00  0.00    +0.035 C 
BRANCH  31  32
ATOM     32  C   UNL     1       2.370   4.181   4.791  0.00  0.00    -0.048 A 
ATOM     33  C   UNL     1       1.510   5.248   4.972  0.00  0.00    +0.007 A 
ATOM     34  C   UNL     1       1.952   6.394   5.605  0.00  0.00    +0.045 A 
ATOM     35  C   UNL     1       3.261   6.473   6.059  0.00  0.00    +0.117 A 
ATOM     36  C   UNL     1       4.122   5.401   5.877  0.00  0.00    +0.045 A 
ATOM     37  C   UNL     1       3.673   4.255   5.248  0.00  0.00    +0.007 A 
BRANCH  35  38
ATOM     38  O   UNL     1       3.698   7.599   6.681  0.00  0.00    -0.507 OA
ATOM     39  H   UNL     1       3.575   7.591   7.641  0.00  0.00    +0.292 HD
ENDBRANCH  35  38
ENDBRANCH  31  32
ENDBRANCH   7  31
TORSDOF 7
