REMARK  Name = ZINC31164517
REMARK  12 active torsions:
REMARK  status: ('A' for Active; 'I' for Inactive)
REMARK    1  A    between atoms: C_1  and  C_2
REMARK    2  A    between atoms: C_8  and  C_41
REMARK    3  A    between atoms: C_12  and  O_30
REMARK    4  A    between atoms: N_19  and  C_22
REMARK    5  A    between atoms: C_22  and  C_24
REMARK    6  A    between atoms: C_22  and  C_27
REMARK    7  A    between atoms: C_24  and  C_25
REMARK    8  A    between atoms: C_24  and  C_26
REMARK    9  A    between atoms: C_32  and  O_40
REMARK   10  A    between atoms: C_34  and  O_39
REMARK   11  A    between atoms: C_36  and  C_37
REMARK   12  A    between atoms: C_36  and  C_38
REMARK                            x       y       z     vdW  Elec       q    Type
REMARK                         _______ _______ _______ _____ _____    ______ ____
ROOT
ATOM      1  C   UNL     1      -0.171   1.726   0.359  0.00  0.00    +0.011 C 
ATOM      2  C   UNL     1       0.037   0.240   0.113  0.00  0.00    +0.031 C 
ATOM      3  C   UNL     1      -1.276  -0.497  -0.095  0.00  0.00    +0.007 C 
ATOM      4  C   UNL     1      -2.010  -0.739   1.222  0.00  0.00    +0.005 C 
ATOM      5  C   UNL     1      -1.144  -1.526   2.212  0.00  0.00    +0.007 C 
ATOM      6  C   UNL     1       0.132  -0.733   2.479  0.00  0.00    +0.014 C 
ATOM      7  C   UNL     1       0.875  -0.427   1.187  0.00  0.00    +0.123 C 
ATOM      8  C   UNL     1       1.475  -1.712   0.566  0.00  0.00    +0.091 C 
ATOM      9  C   UNL     1       2.762  -1.177  -0.041  0.00  0.00    +0.040 A 
ATOM     10  C   UNL     1       3.600  -1.675  -1.022  0.00  0.00    +0.124 A 
ATOM     11  C   UNL     1       4.738  -0.972  -1.387  0.00  0.00    +0.059 A 
ATOM     12  C   UNL     1       5.028   0.242  -0.761  0.00  0.00    +0.049 A 
ATOM     13  C   UNL     1       4.165   0.741   0.214  0.00  0.00    +0.024 A 
ATOM     14  C   UNL     1       3.023   0.041   0.576  0.00  0.00    +0.134 A 
ATOM     15  O   UNL     1       2.046   0.356   1.472  0.00  0.00    -0.484 OA
ATOM     16  C   UNL     1       4.752   2.051   0.678  0.00  0.00    +0.148 C 
ATOM     17  N   UNL     1       5.991   2.237  -0.086  0.00  0.00    -0.279 N 
ATOM     18  C   UNL     1       6.144   1.195  -0.921  0.00  0.00    +0.248 C 
ATOM     19  O   UNL     1       7.069   1.058  -1.698  0.00  0.00    -0.270 OA
ATOM     20  C   UNL     1      -0.240   0.556   3.220  0.00  0.00    +0.044 C 
ATOM     21  C   UNL     1      -0.866   0.206   4.572  0.00  0.00    +0.144 C 
ATOM     22  C   UNL     1      -2.133  -0.613   4.374  0.00  0.00    +0.149 C 
ATOM     23  C   UNL     1      -1.946  -1.823   3.471  0.00  0.00    -0.003 C 
ATOM     24  C   UNL     1      -3.362  -2.308   3.074  0.00  0.00    +0.014 C 
ATOM     25  C   UNL     1      -1.343  -2.985   4.274  0.00  0.00    +0.014 C 
ATOM     26  C   UNL     1       1.115  -1.502   3.378  0.00  0.00    +0.015 C 
ENDROOT
BRANCH  10  27
ATOM     27  O   UNL     1       3.309  -2.855  -1.629  0.00  0.00    -0.506 OA
ATOM     28  H   UNL     1       2.761  -2.765  -2.421  0.00  0.00    +0.292 HD
ENDBRANCH  10  27
BRANCH  22  29
ATOM     29  O   UNL     1      -3.173   0.224   3.853  0.00  0.00    -0.389 OA
ATOM     30  H   UNL     1      -3.403   0.968   4.427  0.00  0.00    +0.210 HD
ENDBRANCH  22  29
BRANCH  21  31
ATOM     31  O   UNL     1      -1.214   1.435   5.235  0.00  0.00    -0.389 OA
ATOM     32  H   UNL     1      -1.619   1.312   6.104  0.00  0.00    +0.210 HD
ENDBRANCH  21  31
BRANCH  17  33
ATOM     33  C   UNL     1       6.909   3.371   0.042  0.00  0.00    +0.192 C 
BRANCH  33  34
ATOM     34  C   UNL     1       8.290   2.865   0.462  0.00  0.00    +0.014 C 
ATOM     35  C   UNL     1       9.249   4.049   0.595  0.00  0.00    +0.009 C 
ATOM     36  C   UNL     1       8.181   2.142   1.806  0.00  0.00    +0.009 C 
ENDBRANCH  33  34
BRANCH  33  37
ATOM     37  C   UNL     1       7.016   4.083  -1.283  0.00  0.00    +0.376 C 
ATOM     38  O   UNL     1       6.384   3.679  -2.244  0.00  0.00    -0.244 OA
ATOM     39  O   UNL     1       7.735   5.061  -1.393  0.00  0.00    -0.244 OA
ENDBRANCH  33  37
ENDBRANCH  17  33
TORSDOF 6
