REMARK  Name = ZINC59165911
REMARK  6 active torsions:
REMARK  status: ('A' for Active; 'I' for Inactive)
REMARK    1  A    between atoms: C_1  and  O_2
REMARK    2  A    between atoms: O_2  and  C_3
REMARK    3  A    between atoms: C_12  and  C_13
REMARK    4  A    between atoms: N_15  and  N_16
REMARK    5  A    between atoms: C_17  and  C_18
REMARK    6  A    between atoms: C_27  and  O_28
REMARK                            x       y       z     vdW  Elec       q    Type
REMARK                         _______ _______ _______ _____ _____    ______ ____
ROOT
ATOM      1  C   UNL     1      -1.195  -0.608  -2.470  0.00  0.00    +0.267 C 
ATOM      2  O   UNL     1      -0.119  -0.041  -2.481  0.00  0.00    -0.268 OA
ATOM      3  N   UNL     1      -1.806  -0.918  -3.631  0.00  0.00    -0.203 N 
ATOM      4  H   UNL     1      -2.664  -1.370  -3.622  0.00  0.00    +0.178 HD
ENDROOT
BRANCH   1  14
ATOM      5  C   UNL     1      -1.196  -0.635   0.010  0.00  0.00    +0.140 A 
ATOM      6  C   UNL     1      -1.818  -0.969   1.231  0.00  0.00    +0.025 A 
ATOM      7  C   UNL     1      -1.216  -0.657   2.460  0.00  0.00    +0.012 A 
ATOM      8  C   UNL     1      -1.842  -0.992   3.623  0.00  0.00    +0.001 A 
ATOM      9  C   UNL     1      -3.074  -1.641   3.610  0.00  0.00    +0.001 A 
ATOM     10  C   UNL     1      -3.687  -1.960   2.436  0.00  0.00    +0.008 A 
ATOM     11  C   UNL     1      -3.071  -1.629   1.217  0.00  0.00    -0.014 A 
ATOM     12  C   UNL     1      -3.681  -1.944  -0.013  0.00  0.00    +0.009 A 
ATOM     13  C   UNL     1      -3.073  -1.619  -1.180  0.00  0.00    +0.017 A 
ATOM     14  C   UNL     1      -1.831  -0.957  -1.188  0.00  0.00    +0.081 A 
BRANCH   5  16
ATOM     15  C   UNL     1      -0.017   1.425   0.010  0.00  0.00    +0.277 C 
ATOM     16  O   UNL     1       0.002  -0.004   0.002  0.00  0.00    -0.494 OA
ENDBRANCH   5  16
ENDBRANCH   1  14
BRANCH   3  17
ATOM     17  N   UNL     1      -1.201  -0.586  -4.850  0.00  0.00    -0.187 NA
ATOM     18  C   UNL     1      -1.789  -0.884  -5.969  0.00  0.00    +0.142 C 
BRANCH  18  19
ATOM     19  C   UNL     1      -1.153  -0.535  -7.251  0.00  0.00    +0.037 A 
ATOM     20  C   UNL     1      -1.787  -0.851  -8.442  0.00  0.00    +0.021 A 
ATOM     21  C   UNL     1      -1.177  -0.516  -9.660  0.00  0.00    -0.017 A 
ATOM     22  C   UNL     1      -1.792  -0.820 -10.888  0.00  0.00    +0.008 A 
ATOM     23  C   UNL     1      -1.175  -0.482 -12.053  0.00  0.00    +0.001 A 
ATOM     24  C   UNL     1       0.061   0.162 -12.049  0.00  0.00    +0.001 A 
ATOM     25  C   UNL     1       0.686   0.472 -10.880  0.00  0.00    +0.008 A 
ATOM     26  C   UNL     1       0.081   0.141  -9.656  0.00  0.00    -0.014 A 
ATOM     27  C   UNL     1       0.703   0.449  -8.434  0.00  0.00    +0.054 A 
ATOM     28  C   UNL     1       0.095   0.123  -7.259  0.00  0.00    +0.126 A 
BRANCH  28  29
ATOM     29  O   UNL     1       0.700   0.430  -6.082  0.00  0.00    -0.506 OA
ATOM     30  H   UNL     1       1.287  -0.263  -5.749  0.00  0.00    +0.292 HD
ENDBRANCH  28  29
ENDBRANCH  18  19
ENDBRANCH   3  17
TORSDOF 5
