REMARK  Name = ZINC65099410
REMARK  12 active torsions:
REMARK  status: ('A' for Active; 'I' for Inactive)
REMARK    1  A    between atoms: C_1  and  C_2
REMARK    2  A    between atoms: C_5  and  C_8
REMARK    3  A    between atoms: C_9  and  C_14
REMARK    4  A    between atoms: N_11  and  C_13
REMARK    5  A    between atoms: C_17  and  S_20
REMARK    6  A    between atoms: N_18  and  C_19
REMARK    7  A    between atoms: S_20  and  C_21
REMARK    8  A    between atoms: C_21  and  C_22
REMARK    9  A    between atoms: N_24  and  C_25
REMARK   10  A    between atoms: C_25  and  C_26
REMARK   11  A    between atoms: C_29  and  O_32
REMARK   12  A    between atoms: O_32  and  C_33
REMARK                            x       y       z     vdW  Elec       q    Type
REMARK                         _______ _______ _______ _____ _____    ______ ____
ROOT
ATOM      1  C   UNL     1       1.700  -4.649   1.978  0.00  0.00    +0.168 A 
ATOM      2  N   UNL     1       1.929  -3.402   2.320  0.00  0.00    -0.128 NA
ATOM      3  N   UNL     1       2.443  -3.357   3.497  0.00  0.00    -0.122 NA
ATOM      4  C   UNL     1       2.574  -4.571   3.979  0.00  0.00    +0.192 A 
ATOM      5  N   UNL     1       2.101  -5.436   3.032  0.00  0.00    -0.305 N 
ATOM      6  C   UNL     1       2.037  -6.897   3.120  0.00  0.00    +0.153 C 
ENDROOT
BRANCH   1   8
ATOM      7  C   UNL     1      -0.037  -4.591   0.064  0.00  0.00    +0.103 A 
ATOM      8  C   UNL     1       1.115  -5.117   0.704  0.00  0.00    +0.065 A 
ATOM      9  C   UNL     1       1.586  -6.135  -0.075  0.00  0.00    +0.120 A 
ATOM     10  N   UNL     1       0.774  -6.244  -1.146  0.00  0.00    -0.273 N 
ATOM     11  N   UNL     1      -0.234  -5.278  -1.039  0.00  0.00    -0.171 NA
ATOM     12  C   UNL     1       0.918  -7.213  -2.236  0.00  0.00    +0.172 C 
BRANCH   7  17
ATOM     13  C   UNL     1      -3.290  -0.241   1.977  0.00  0.00    +0.044 C 
ATOM     14  C   UNL     1      -2.438  -1.379   1.476  0.00  0.00    -0.050 A 
ATOM     15  C   UNL     1      -2.243  -1.547   0.117  0.00  0.00    +0.004 A 
ATOM     16  C   UNL     1      -1.464  -2.588  -0.347  0.00  0.00    +0.010 A 
ATOM     17  C   UNL     1      -0.875  -3.471   0.557  0.00  0.00    +0.003 A 
ATOM     18  C   UNL     1      -1.075  -3.296   1.925  0.00  0.00    +0.010 A 
ATOM     19  C   UNL     1      -1.851  -2.249   2.378  0.00  0.00    +0.004 A 
ENDBRANCH   7  17
ENDBRANCH   1   8
BRANCH   4  20
ATOM     20  S   UNL     1       3.231  -5.005   5.556  0.00  0.00    -0.077 S 
BRANCH  20  21
ATOM     21  C   UNL     1       3.660  -3.410   6.306  0.00  0.00    +0.173 C 
BRANCH  21  22
ATOM     22  C   UNL     1       4.241  -3.640   7.677  0.00  0.00    +0.224 C 
ATOM     23  O   UNL     1       4.355  -4.769   8.106  0.00  0.00    -0.275 OA
ATOM     24  N   UNL     1       4.634  -2.591   8.427  0.00  0.00    -0.311 N 
ATOM     25  H   UNL     1       4.543  -1.688   8.084  0.00  0.00    +0.149 HD
BRANCH  24  26
ATOM     26  C   UNL     1       5.199  -2.815   9.760  0.00  0.00    +0.139 C 
BRANCH  26  27
ATOM     27  C   UNL     1       5.555  -1.490  10.383  0.00  0.00    -0.030 A 
ATOM     28  C   UNL     1       6.813  -0.951  10.188  0.00  0.00    +0.009 A 
ATOM     29  C   UNL     1       7.142   0.264  10.758  0.00  0.00    +0.046 A 
ATOM     30  C   UNL     1       6.209   0.942  11.528  0.00  0.00    +0.120 A 
ATOM     31  C   UNL     1       4.947   0.399  11.723  0.00  0.00    +0.046 A 
ATOM     32  C   UNL     1       4.621  -0.813  11.146  0.00  0.00    +0.009 A 
BRANCH  30  33
ATOM     33  O   UNL     1       6.530   2.137  12.091  0.00  0.00    -0.495 OA
ATOM     34  C   UNL     1       5.520   2.779  12.871  0.00  0.00    +0.277 C 
ENDBRANCH  30  33
ENDBRANCH  26  27
ENDBRANCH  24  26
ENDBRANCH  21  22
ENDBRANCH  20  21
ENDBRANCH   4  20
TORSDOF 8
