REMARK  Name = ZINC33123497
REMARK  12 active torsions:
REMARK  status: ('A' for Active; 'I' for Inactive)
REMARK    1  A    between atoms: C_1  and  C_2
REMARK    2  A    between atoms: C_2  and  C_3
REMARK    3  A    between atoms: C_3  and  O_4
REMARK    4  A    between atoms: O_4  and  C_5
REMARK    5  A    between atoms: C_8  and  N_18
REMARK    6  A    between atoms: C_13  and  C_14
REMARK    7  A    between atoms: C_14  and  O_16
REMARK    8  A    between atoms: O_16  and  C_17
REMARK    9  A    between atoms: C_19  and  C_21
REMARK   10  A    between atoms: C_21  and  C_22
REMARK   11  A    between atoms: C_22  and  C_23
REMARK   12  A    between atoms: C_23  and  N_24
REMARK                            x       y       z     vdW  Elec       q    Type
REMARK                         _______ _______ _______ _____ _____    ______ ____
ROOT
ATOM      1  N   UNL     1       1.143   1.898   0.001  0.00  0.00    -0.285 N 
ATOM      2  C   UNL     1       0.111   1.423  -0.723  0.00  0.00    +0.217 C 
ATOM      3  O   UNL     1       0.248   0.415  -1.385  0.00  0.00    -0.275 OA
ATOM      4  H   UNL     1       1.048   2.857   0.532  0.00  0.00    +0.155 HD
ENDROOT
BRANCH   1   8
ATOM      5  C   UNL     1       6.106   1.670   0.348  0.00  0.00    +0.149 A 
ATOM      6  C   UNL     1       4.758   1.135   0.249  0.00  0.00    +0.033 A 
ATOM      7  C   UNL     1       3.533   1.845   0.169  0.00  0.00    +0.036 A 
ATOM      8  C   UNL     1       2.339   1.171   0.079  0.00  0.00    +0.034 A 
ATOM      9  C   UNL     1       2.295  -0.223   0.068  0.00  0.00    +0.024 A 
ATOM     10  C   UNL     1       3.469  -0.941   0.139  0.00  0.00    +0.017 A 
ATOM     11  C   UNL     1       4.676  -0.275   0.230  0.00  0.00    +0.024 A 
ATOM     12  S   UNL     1       6.365  -0.807   0.343  0.00  0.00    -0.078 S 
ATOM     13  C   UNL     1       7.159   0.787   0.414  0.00  0.00    +0.139 A 
BRANCH  13  14
ATOM     14  C   UNL     1       8.544   1.076   0.513  0.00  0.00    +0.349 C 
ATOM     15  O   UNL     1       8.923   2.232   0.550  0.00  0.00    -0.244 OA
BRANCH  14  16
ATOM     16  O   UNL     1       9.441   0.069   0.566  0.00  0.00    -0.464 OA
ATOM     17  C   UNL     1      10.819   0.433   0.665  0.00  0.00    +0.280 C 
ENDBRANCH  14  16
ENDBRANCH  13  14
BRANCH   5  18
ATOM     18  O   UNL     1       6.321   3.009   0.375  0.00  0.00    -0.490 OA
BRANCH  18  19
ATOM     19  C   UNL     1       6.334   3.638   1.658  0.00  0.00    +0.229 C 
BRANCH  19  21
ATOM     20  C   UNL     1       6.603   5.811   2.862  0.00  0.00    +0.007 C 
ATOM     21  C   UNL     1       6.588   5.137   1.489  0.00  0.00    +0.038 C 
ENDBRANCH  19  21
ENDBRANCH  18  19
ENDBRANCH   5  18
ENDBRANCH   1   8
BRANCH   2  22
ATOM     22  C   UNL     1      -1.211   2.146  -0.716  0.00  0.00    +0.097 C 
BRANCH  22  23
ATOM     23  C   UNL     1      -2.201   1.407  -1.618  0.00  0.00    +0.029 C 
BRANCH  23  24
ATOM     24  C   UNL     1      -3.544   2.141  -1.611  0.00  0.00    +0.117 C 
BRANCH  24  25
ATOM     25  N   UNL     1      -4.492   1.434  -2.474  0.00  0.00    -0.234 N 
ATOM     26  C   UNL     1      -4.659   1.682  -3.786  0.00  0.00    +0.254 C 
ATOM     27  O   UNL     1      -4.056   2.516  -4.432  0.00  0.00    -0.270 OA
ATOM     28  C   UNL     1      -5.696   0.769  -4.310  0.00  0.00    +0.049 A 
ATOM     29  C   UNL     1      -6.270   0.570  -5.556  0.00  0.00    +0.014 A 
ATOM     30  C   UNL     1      -7.253  -0.395  -5.713  0.00  0.00    +0.001 A 
ATOM     31  C   UNL     1      -7.664  -1.158  -4.636  0.00  0.00    +0.001 A 
ATOM     32  C   UNL     1      -7.099  -0.970  -3.385  0.00  0.00    +0.014 A 
ATOM     33  C   UNL     1      -6.115  -0.009  -3.212  0.00  0.00    +0.049 A 
ATOM     34  C   UNL     1      -5.315   0.454  -2.059  0.00  0.00    +0.254 C 
ATOM     35  O   UNL     1      -5.388   0.022  -0.927  0.00  0.00    -0.270 OA
ENDBRANCH  24  25
ENDBRANCH  23  24
ENDBRANCH  22  23
ENDBRANCH   2  22
TORSDOF 10
