REMARK  Name = ZINC01334493
REMARK  12 active torsions:
REMARK  status: ('A' for Active; 'I' for Inactive)
REMARK    1  A    between atoms: C_1  and  C_2
REMARK    2  A    between atoms: C_2  and  C_3
REMARK    3  A    between atoms: C_2  and  C_4
REMARK    4  A    between atoms: C_4  and  C_6
REMARK    5  A    between atoms: C_4  and  N_19
REMARK    6  A    between atoms: N_10  and  C_11
REMARK    7  A    between atoms: C_11  and  C_12
REMARK    8  A    between atoms: C_12  and  C_13
REMARK    9  A    between atoms: N_19  and  C_20
REMARK   10  A    between atoms: N_19  and  C_26
REMARK   11  A    between atoms: C_20  and  C_21
REMARK   12  A    between atoms: C_26  and  C_27
REMARK                            x       y       z     vdW  Elec       q    Type
REMARK                         _______ _______ _______ _____ _____    ______ ____
ROOT
ATOM      1  N   UNL     1       1.009  -2.014   1.194  0.00  0.00    -0.283 NA
ENDROOT
BRANCH   1   2
ATOM      2  C   UNL     1       1.249  -0.577   1.003  0.00  0.00    +0.130 C 
BRANCH   2   3
ATOM      3  C   UNL     1       2.726  -0.296   1.115  0.00  0.00    +0.169 A 
ATOM      4  N   UNL     1       3.697  -0.979   0.560  0.00  0.00    -0.112 NA
ATOM      5  N   UNL     1       4.812  -0.425   0.891  0.00  0.00    -0.023 NA
ATOM      6  N   UNL     1       4.578   0.593   1.643  0.00  0.00    -0.044 NA
ATOM      7  N   UNL     1       3.302   0.709   1.801  0.00  0.00    -0.227 N 
BRANCH   7   8
ATOM      8  C   UNL     1       2.612   1.738   2.582  0.00  0.00    +0.152 C 
BRANCH   8   9
ATOM      9  C   UNL     1       2.443   1.257   4.024  0.00  0.00    +0.058 C 
BRANCH   9  10
ATOM     10  C   UNL     1       1.733   2.316   4.827  0.00  0.00    -0.046 A 
ATOM     11  C   UNL     1       2.461   3.294   5.478  0.00  0.00    +0.004 A 
ATOM     12  C   UNL     1       1.810   4.266   6.215  0.00  0.00    +0.000 A 
ATOM     13  C   UNL     1       0.430   4.259   6.300  0.00  0.00    +0.000 A 
ATOM     14  C   UNL     1      -0.298   3.281   5.649  0.00  0.00    +0.000 A 
ATOM     15  C   UNL     1       0.353   2.312   4.909  0.00  0.00    +0.004 A 
ENDBRANCH   9  10
ENDBRANCH   8   9
ENDBRANCH   7   8
ENDBRANCH   2   3
BRANCH   2  17
ATOM     16  C   UNL     1       1.004   1.339  -0.581  0.00  0.00    +0.009 C 
ATOM     17  C   UNL     1       0.754  -0.157  -0.382  0.00  0.00    +0.008 C 
ATOM     18  C   UNL     1       1.507  -0.947  -1.455  0.00  0.00    +0.009 C 
ENDBRANCH   2  17
ENDBRANCH   1   2
BRANCH   1  19
ATOM     19  C   UNL     1       1.557  -2.474   2.477  0.00  0.00    +0.128 C 
BRANCH  19  20
ATOM     20  C   UNL     1       1.667  -3.977   2.467  0.00  0.00    +0.004 A 
ATOM     21  C   UNL     1       2.662  -4.756   1.978  0.00  0.00    +0.012 A 
ATOM     22  C   UNL     1       2.548  -6.130   2.080  0.00  0.00    +0.008 A 
ATOM     23  C   UNL     1       1.445  -6.657   2.665  0.00  0.00    +0.045 A 
ATOM     24  S   UNL     1       0.524  -5.192   3.102  0.00  0.00    -0.100 S 
ENDBRANCH  19  20
ENDBRANCH   1  19
BRANCH   1  25
ATOM     25  C   UNL     1      -0.423  -2.326   1.091  0.00  0.00    +0.126 C 
BRANCH  25  26
ATOM     26  C   UNL     1      -1.194  -1.474   2.066  0.00  0.00    +0.031 A 
ATOM     27  C   UNL     1      -1.729  -0.295   1.658  0.00  0.00    +0.020 A 
ATOM     28  C   UNL     1      -2.472   0.508   2.628  0.00  0.00    +0.003 A 
ATOM     29  C   UNL     1      -3.044   1.733   2.264  0.00  0.00    +0.059 A 
ATOM     30  C   UNL     1      -3.741   2.468   3.200  0.00  0.00    +0.163 A 
ATOM     31  C   UNL     1      -3.878   1.994   4.508  0.00  0.00    +0.164 A 
ATOM     32  C   UNL     1      -3.313   0.785   4.877  0.00  0.00    +0.075 A 
ATOM     33  C   UNL     1      -2.608   0.033   3.947  0.00  0.00    +0.053 A 
ATOM     34  N   UNL     1      -2.040  -1.175   4.297  0.00  0.00    -0.322 N 
ATOM     35  H   UNL     1      -2.134  -1.502   5.206  0.00  0.00    +0.169 HD
ATOM     36  C   UNL     1      -1.363  -1.908   3.397  0.00  0.00    +0.254 A 
ATOM     37  O   UNL     1      -0.878  -2.973   3.740  0.00  0.00    -0.268 OA
ATOM     38  O   UNL     1      -4.571   2.710   5.435  0.00  0.00    -0.485 OA
ATOM     39  C   UNL     1      -4.806   4.090   5.139  0.00  0.00    +0.270 C 
ATOM     40  C   UNL     1      -5.301   4.195   3.691  0.00  0.00    +0.270 C 
ATOM     41  O   UNL     1      -4.289   3.659   2.831  0.00  0.00    -0.485 OA
ENDBRANCH  25  26
ENDBRANCH   1  25
TORSDOF 10
