REMARK  Name = ZINC09449257
REMARK  6 active torsions:
REMARK  status: ('A' for Active; 'I' for Inactive)
REMARK    1  A    between atoms: C_6  and  C_7
REMARK    2  A    between atoms: C_9  and  C_13
REMARK    3  A    between atoms: C_16  and  S_19
REMARK    4  A    between atoms: N_17  and  N_18
REMARK    5  A    between atoms: S_19  and  C_20
REMARK    6  A    between atoms: C_20  and  C_21
REMARK                            x       y       z     vdW  Elec       q    Type
REMARK                         _______ _______ _______ _____ _____    ______ ____
ROOT
ATOM      1  C   UNL     1      -3.308  -3.822   0.032  0.00  0.00    +0.199 A 
ATOM      2  N   UNL     1      -2.684  -4.945  -0.243  0.00  0.00    -0.125 NA
ATOM      3  N   UNL     1      -3.498  -5.934  -0.147  0.00  0.00    -0.120 NA
ATOM      4  C   UNL     1      -4.692  -5.505   0.196  0.00  0.00    +0.209 A 
ATOM      5  N   UNL     1      -4.613  -4.148   0.327  0.00  0.00    -0.223 N 
ENDROOT
BRANCH   1   8
ATOM      6  C   UNL     1      -1.268  -0.768   0.025  0.00  0.00    +0.093 A 
ATOM      7  C   UNL     1      -1.389  -2.167   0.022  0.00  0.00    +0.061 A 
ATOM      8  C   UNL     1      -2.722  -2.470   0.031  0.00  0.00    +0.105 A 
ATOM      9  N   UNL     1      -3.410  -1.291   0.039  0.00  0.00    -0.273 N 
ATOM     10  H   UNL     1      -4.375  -1.193   0.046  0.00  0.00    +0.189 HD
ATOM     11  N   UNL     1      -2.477  -0.247   0.040  0.00  0.00    -0.173 NA
BRANCH   6  17
ATOM     12  C   UNL     1      -0.011   1.386   0.027  0.00  0.00    +0.011 A 
ATOM     13  C   UNL     1       1.176   2.090   0.021  0.00  0.00    +0.020 A 
ATOM     14  C   UNL     1       2.384   1.413   0.005  0.00  0.00    +0.041 A 
ATOM     15  C   UNL     1       2.407   0.029  -0.004  0.00  0.00    +0.020 A 
ATOM     16  C   UNL     1       1.225  -0.683   0.002  0.00  0.00    +0.011 A 
ATOM     17  C   UNL     1       0.007  -0.007   0.018  0.00  0.00    +0.002 A 
ATOM     18 CL   UNL     1       3.874   2.304  -0.003  0.00  0.00    -0.084 Cl
ENDBRANCH   6  17
ENDBRANCH   1   8
BRANCH   5  19
ATOM     19  N   UNL     1      -5.620  -3.292   0.675  0.00  0.00    -0.295 N 
ATOM     20  H   UNL     1      -6.116  -2.967  -0.141  0.00  0.00    +0.163 HD
ATOM     21  H   UNL     1      -6.250  -3.724   1.334  0.00  0.00    +0.163 HD
ENDBRANCH   5  19
BRANCH   4  22
ATOM     22  S   UNL     1      -6.127  -6.498   0.446  0.00  0.00    -0.075 S 
BRANCH  22  23
ATOM     23  C   UNL     1      -5.553  -8.188   0.123  0.00  0.00    +0.173 C 
BRANCH  23  24
ATOM     24  C   UNL     1      -6.699  -9.150   0.304  0.00  0.00    +0.229 C 
ATOM     25  O   UNL     1      -7.794  -8.737   0.620  0.00  0.00    -0.275 OA
ATOM     26  N   UNL     1      -6.506 -10.471   0.115  0.00  0.00    -0.270 N 
ATOM     27  C   UNL     1      -7.535 -11.371   0.385  0.00  0.00    +0.125 A 
ATOM     28  C   UNL     1      -7.297 -12.738   0.289  0.00  0.00    +0.045 A 
ATOM     29  C   UNL     1      -8.327 -13.621   0.560  0.00  0.00    +0.020 A 
ATOM     30  C   UNL     1      -9.566 -13.105   0.919  0.00  0.00    +0.036 A 
ATOM     31  C   UNL     1      -9.731 -11.735   0.994  0.00  0.00    +0.128 A 
ATOM     32  N   UNL     1      -8.728 -10.918   0.735  0.00  0.00    -0.239 NA
ATOM     33 BR   UNL     1     -11.011 -14.264   1.300  0.00  0.00    -0.049 Br
ATOM     34  H   UNL     1      -5.651 -10.794  -0.209  0.00  0.00    +0.156 HD
ENDBRANCH  23  24
ENDBRANCH  22  23
ENDBRANCH   4  22
TORSDOF 6
