REMARK  Name = ZINC04761859
REMARK  10 active torsions:
REMARK  status: ('A' for Active; 'I' for Inactive)
REMARK    1  A    between atoms: C_1  and  C_2
REMARK    2  A    between atoms: C_2  and  N_3
REMARK    3  A    between atoms: C_6  and  C_27
REMARK    4  A    between atoms: N_8  and  C_11
REMARK    5  A    between atoms: C_11  and  C_12
REMARK    6  A    between atoms: C_12  and  C_13
REMARK    7  A    between atoms: C_13  and  N_14
REMARK    8  A    between atoms: N_17  and  C_20
REMARK    9  A    between atoms: C_27  and  C_28
REMARK   10  A    between atoms: N_30  and  C_31
REMARK                            x       y       z     vdW  Elec       q    Type
REMARK                         _______ _______ _______ _____ _____    ______ ____
ROOT
ATOM      1  N   UNL     1      -0.884   0.230  -0.172  0.00  0.00    -0.252 N 
ATOM      2  C   UNL     1      -1.455  -0.258   0.947  0.00  0.00    +0.242 C 
ATOM      3  O   UNL     1      -1.055  -0.136   2.086  0.00  0.00    -0.273 OA
ATOM      4  C   UNL     1      -2.700  -0.989   0.488  0.00  0.00    +0.170 C 
ATOM      5  N   UNL     1      -2.686  -0.812  -0.975  0.00  0.00    -0.300 N 
ATOM      6  C   UNL     1      -1.591  -0.085  -1.263  0.00  0.00    +0.142 C 
ATOM      7  S   UNL     1      -1.151   0.382  -2.850  0.00  0.00    -0.018 S 
ENDROOT
BRANCH   1   9
ATOM      8  C   UNL     1       0.021   2.499  -0.053  0.00  0.00    +0.025 C 
ATOM      9  C   UNL     1       0.354   1.012  -0.191  0.00  0.00    +0.112 C 
ENDBRANCH   1   9
BRANCH   5  10
ATOM     10  C   UNL     1      -3.672  -1.325  -1.928  0.00  0.00    +0.106 C 
BRANCH  10  11
ATOM     11  C   UNL     1      -4.708  -0.238  -2.224  0.00  0.00    +0.000 C 
BRANCH  11  12
ATOM     12  C   UNL     1      -5.739  -0.774  -3.220  0.00  0.00    -0.077 C 
BRANCH  12  13
ATOM     13  N   UNL     1      -6.733   0.270  -3.504  0.00  0.00    +0.382 N 
ATOM     14  C   UNL     1      -7.483   0.575  -2.280  0.00  0.00    -0.060 C 
ATOM     15  C   UNL     1      -8.441   1.741  -2.546  0.00  0.00    +0.086 C 
ATOM     16  N   UNL     1      -9.281   1.400  -3.703  0.00  0.00    -0.333 N 
ATOM     17  C   UNL     1      -8.617   0.925  -4.927  0.00  0.00    +0.086 C 
ATOM     18  C   UNL     1      -7.651  -0.203  -4.548  0.00  0.00    -0.060 C 
ATOM     19  H   UNL     1      -6.263   1.103  -3.824  0.00  0.00    -0.082 HD
BRANCH  16  20
ATOM     20  C   UNL     1     -10.673   1.523  -3.643  0.00  0.00    +0.030 A 
ATOM     21  C   UNL     1     -11.273   2.087  -2.525  0.00  0.00    +0.026 A 
ATOM     22  C   UNL     1     -12.648   2.209  -2.467  0.00  0.00    +0.040 A 
ATOM     23  C   UNL     1     -13.427   1.769  -3.524  0.00  0.00    +0.124 A 
ATOM     24  C   UNL     1     -12.831   1.206  -4.640  0.00  0.00    +0.040 A 
ATOM     25  C   UNL     1     -11.457   1.088  -4.704  0.00  0.00    +0.026 A 
ATOM     26  F   UNL     1     -14.772   1.888  -3.465  0.00  0.00    -0.205 F 
ENDBRANCH  16  20
ENDBRANCH  12  13
ENDBRANCH  11  12
ENDBRANCH  10  11
ENDBRANCH   5  10
BRANCH   4  27
ATOM     27  C   UNL     1      -3.952  -0.355   1.097  0.00  0.00    +0.128 C 
BRANCH  27  28
ATOM     28  C   UNL     1      -3.947  -0.566   2.589  0.00  0.00    +0.219 C 
ATOM     29  O   UNL     1      -3.101  -1.271   3.099  0.00  0.00    -0.275 OA
ATOM     30  N   UNL     1      -4.881   0.029   3.357  0.00  0.00    -0.285 N 
ATOM     31  H   UNL     1      -5.596   0.538   2.945  0.00  0.00    +0.155 HD
BRANCH  30  32
ATOM     32  C   UNL     1      -4.819  -0.088   4.752  0.00  0.00    +0.034 A 
ATOM     33  C   UNL     1      -5.217   0.971   5.556  0.00  0.00    +0.026 A 
ATOM     34  C   UNL     1      -5.155   0.853   6.931  0.00  0.00    +0.040 A 
ATOM     35  C   UNL     1      -4.697  -0.320   7.507  0.00  0.00    +0.124 A 
ATOM     36  C   UNL     1      -4.300  -1.377   6.706  0.00  0.00    +0.040 A 
ATOM     37  C   UNL     1      -4.366  -1.266   5.331  0.00  0.00    +0.026 A 
ATOM     38  F   UNL     1      -4.637  -0.433   8.852  0.00  0.00    -0.205 F 
ENDBRANCH  30  32
ENDBRANCH  27  28
ENDBRANCH   4  27
TORSDOF 9
