REMARK  Name = ZINC67195294
REMARK  6 active torsions:
REMARK  status: ('A' for Active; 'I' for Inactive)
REMARK    1  A    between atoms: C_1  and  C_2
REMARK    2  A    between atoms: C_6  and  C_7
REMARK    3  A    between atoms: N_9  and  N_10
REMARK    4  A    between atoms: C_11  and  C_13
REMARK    5  A    between atoms: C_16  and  C_19
REMARK    6  A    between atoms: C_19  and  N_21
REMARK                            x       y       z     vdW  Elec       q    Type
REMARK                         _______ _______ _______ _____ _____    ______ ____
ROOT
ATOM      1  N   UNL     1       0.058  -0.732   4.900  0.00  0.00    -0.230 N 
ATOM      2  C   UNL     1       0.080  -1.625   5.909  0.00  0.00    +0.260 C 
ATOM      3  O   UNL     1       0.094  -2.816   5.667  0.00  0.00    -0.269 OA
ATOM      4  H   UNL     1       0.046   0.219   5.094  0.00  0.00    +0.173 HD
ENDROOT
BRANCH   2   5
ATOM      5  C   UNL     1       0.086  -1.156   7.312  0.00  0.00    +0.038 A 
ATOM      6  C   UNL     1       0.064   0.212   7.591  0.00  0.00    +0.014 A 
ATOM      7  C   UNL     1       0.069   0.649   8.897  0.00  0.00    +0.011 A 
ATOM      8  C   UNL     1       0.097  -0.276   9.943  0.00  0.00    +0.003 A 
ATOM      9  C   UNL     1       0.119  -1.644   9.664  0.00  0.00    +0.011 A 
ATOM     10  C   UNL     1       0.108  -2.081   8.357  0.00  0.00    +0.014 A 
BRANCH   8  11
ATOM     11  C   UNL     1       0.104   0.193  11.344  0.00  0.00    +0.077 C 
ATOM     12  S   UNL     1      -0.768   1.600  11.780  0.00  0.00    -0.035 S 
BRANCH  11  13
ATOM     13  N   UNL     1       0.796  -0.488  12.279  0.00  0.00    -0.352 N 
ATOM     14  H   UNL     1       1.289  -1.286  12.032  0.00  0.00    +0.143 HD
ATOM     15  H   UNL     1       0.800  -0.181  13.199  0.00  0.00    +0.143 HD
ENDBRANCH  11  13
ENDBRANCH   8  11
ENDBRANCH   2   5
BRANCH   1  18
ATOM     16  C   UNL     1       0.030  -0.283   2.562  0.00  0.00    +0.267 C 
ATOM     17  O   UNL     1       0.015   0.910   2.805  0.00  0.00    -0.268 OA
ATOM     18  N   UNL     1       0.051  -1.176   3.571  0.00  0.00    -0.230 N 
ATOM     19  H   UNL     1       0.063  -2.126   3.378  0.00  0.00    +0.173 HD
BRANCH  16  25
ATOM     20  C   UNL     1      -0.018   1.503   0.010  0.00  0.00    +0.045 C 
ATOM     21  C   UNL     1       0.002  -0.004   0.002  0.00  0.00    -0.031 A 
ATOM     22  C   UNL     1       0.007  -0.729  -1.166  0.00  0.00    +0.011 A 
ATOM     23  C   UNL     1       0.026  -2.083  -1.101  0.00  0.00    +0.046 A 
ATOM     24  S   UNL     1       0.038  -2.416   0.545  0.00  0.00    -0.092 S 
ATOM     25  C   UNL     1       0.023  -0.748   1.172  0.00  0.00    +0.078 A 
ENDBRANCH  16  25
ENDBRANCH   1  18
TORSDOF 5
