REMARK  Name = ZINC12311231
REMARK  11 active torsions:
REMARK  status: ('A' for Active; 'I' for Inactive)
REMARK    1  A    between atoms: C_1  and  N_2
REMARK    2  A    between atoms: N_2  and  C_3
REMARK    3  A    between atoms: N_2  and  C_4
REMARK    4  A    between atoms: C_7  and  C_10
REMARK    5  A    between atoms: N_19  and  C_31
REMARK    6  A    between atoms: C_20  and  C_22
REMARK    7  A    between atoms: C_25  and  N_28
REMARK    8  A    between atoms: N_28  and  C_29
REMARK    9  A    between atoms: N_28  and  C_30
REMARK   10  A    between atoms: C_31  and  N_33
REMARK   11  A    between atoms: C_34  and  C_36
REMARK                            x       y       z     vdW  Elec       q    Type
REMARK                         _______ _______ _______ _____ _____    ______ ____
ROOT
ATOM      1  C   UNL     1       4.382  -4.656  -0.958  0.00  0.00    +0.013 C 
ATOM      2  C   UNL     1       5.474  -4.164  -1.579  0.00  0.00    -0.024 C 
ATOM      3  C   UNL     1       6.627  -5.074  -1.880  0.00  0.00    +0.037 C 
ATOM      4  C   UNL     1       7.691  -4.458  -2.765  0.00  0.00    +0.005 C 
ATOM      5  C   UNL     1       7.874  -2.958  -2.545  0.00  0.00    +0.012 C 
ATOM      6  C   UNL     1       6.564  -2.255  -2.908  0.00  0.00    +0.066 C 
ATOM      7  C   UNL     1       5.518  -2.796  -1.936  0.00  0.00    +0.068 C 
ATOM      8  N   UNL     1       4.766  -1.816  -1.571  0.00  0.00    -0.182 NA
ATOM      9  N   UNL     1       5.251  -0.563  -1.966  0.00  0.00    -0.196 N 
ATOM     10  C   UNL     1       6.599  -0.762  -2.546  0.00  0.00    +0.139 C 
ENDROOT
BRANCH   1  14
ATOM     11  C   UNL     1       3.866  -8.851  -0.580  0.00  0.00    +0.029 A 
ATOM     12  C   UNL     1       5.102  -8.276  -0.302  0.00  0.00    +0.023 A 
ATOM     13  C   UNL     1       5.274  -6.915  -0.424  0.00  0.00    +0.010 A 
ATOM     14  C   UNL     1       4.203  -6.110  -0.827  0.00  0.00    -0.025 A 
ATOM     15  C   UNL     1       2.960  -6.692  -1.100  0.00  0.00    +0.010 A 
ATOM     16  C   UNL     1       2.798  -8.054  -0.982  0.00  0.00    +0.023 A 
BRANCH  11  18
ATOM     17  C   UNL     1       4.778 -11.055   0.086  0.00  0.00    +0.129 C 
ATOM     18  N   UNL     1       3.696 -10.229  -0.456  0.00  0.00    -0.336 N 
ATOM     19  C   UNL     1       2.436 -10.852  -0.867  0.00  0.00    +0.129 C 
ENDBRANCH  11  18
ENDBRANCH   1  14
BRANCH  10  20
ATOM     20  C   UNL     1       6.789   0.088  -3.776  0.00  0.00    -0.024 A 
ATOM     21  C   UNL     1       5.744   0.256  -4.667  0.00  0.00    +0.007 A 
ATOM     22  C   UNL     1       5.913   1.039  -5.792  0.00  0.00    +0.023 A 
ATOM     23  C   UNL     1       7.138   1.649  -6.034  0.00  0.00    +0.029 A 
ATOM     24  C   UNL     1       8.186   1.474  -5.140  0.00  0.00    +0.023 A 
ATOM     25  C   UNL     1       8.009   0.694  -4.014  0.00  0.00    +0.007 A 
BRANCH  23  26
ATOM     26  N   UNL     1       7.314   2.437  -7.173  0.00  0.00    -0.336 N 
ATOM     27  C   UNL     1       8.637   2.978  -7.493  0.00  0.00    +0.129 C 
ATOM     28  C   UNL     1       6.175   2.724  -8.049  0.00  0.00    +0.129 C 
ENDBRANCH  23  26
ENDBRANCH  10  20
BRANCH   9  29
ATOM     29  C   UNL     1       4.603   0.613  -1.846  0.00  0.00    +0.160 C 
ATOM     30  S   UNL     1       5.346   2.058  -2.385  0.00  0.00    -0.017 S 
BRANCH  29  31
ATOM     31  N   UNL     1       3.371   0.651  -1.301  0.00  0.00    -0.260 N 
ATOM     32  C   UNL     1       2.724   1.827  -1.181  0.00  0.00    +0.285 C 
ATOM     33  O   UNL     1       3.252   2.854  -1.563  0.00  0.00    -0.266 OA
ATOM     34  H   UNL     1       2.950  -0.168  -0.996  0.00  0.00    +0.157 HD
BRANCH  32  35
ATOM     35  C   UNL     1       1.384   1.869  -0.588  0.00  0.00    +0.189 A 
ATOM     36  C   UNL     1       0.621   2.987  -0.408  0.00  0.00    +0.054 A 
ATOM     37  C   UNL     1      -0.578   2.566   0.188  0.00  0.00    +0.042 A 
ATOM     38  C   UNL     1      -0.495   1.226   0.344  0.00  0.00    +0.196 A 
ATOM     39  O   UNL     1       0.689   0.809  -0.126  0.00  0.00    -0.458 OA
ENDBRANCH  32  35
ENDBRANCH  29  31
ENDBRANCH   9  29
TORSDOF 7
