REMARK  Name = ZINC39964953
REMARK  7 active torsions:
REMARK  status: ('A' for Active; 'I' for Inactive)
REMARK    1  A    between atoms: C_10  and  C_11
REMARK    2  A    between atoms: C_11  and  N_12
REMARK    3  A    between atoms: N_15  and  C_18
REMARK    4  A    between atoms: C_18  and  C_19
REMARK    5  A    between atoms: N_21  and  C_22
REMARK    6  A    between atoms: C_25  and  S_28
REMARK    7  A    between atoms: S_28  and  N_31
REMARK                            x       y       z     vdW  Elec       q    Type
REMARK                         _______ _______ _______ _____ _____    ______ ____
ROOT
ATOM      1  C   UNL     1       8.452   2.240   4.981  0.00  0.00    +0.201 C 
ATOM      2  O   UNL     1       9.064   2.431   3.951  0.00  0.00    -0.278 OA
ATOM      3  N   UNL     1       8.884   2.789   6.133  0.00  0.00    -0.287 N 
ATOM      4  H   UNL     1       8.359   2.693   6.943  0.00  0.00    +0.155 HD
ENDROOT
BRANCH   3   5
ATOM      5  C   UNL     1      10.090   3.498   6.161  0.00  0.00    +0.033 A 
ATOM      6  C   UNL     1      10.906   3.439   7.283  0.00  0.00    +0.025 A 
ATOM      7  C   UNL     1      12.096   4.140   7.308  0.00  0.00    +0.030 A 
ATOM      8  C   UNL     1      12.474   4.901   6.217  0.00  0.00    +0.106 A 
ATOM      9  C   UNL     1      11.664   4.963   5.099  0.00  0.00    +0.030 A 
ATOM     10  C   UNL     1      10.476   4.259   5.065  0.00  0.00    +0.025 A 
BRANCH   8  11
ATOM     11  S   UNL     1      13.993   5.794   6.253  0.00  0.00    +0.061 S 
ATOM     12  O   UNL     1      13.857   6.863   5.326  0.00  0.00    -0.153 OA
ATOM     13  O   UNL     1      14.306   6.008   7.622  0.00  0.00    -0.153 OA
BRANCH  11  14
ATOM     14  N   UNL     1      15.165   4.791   5.650  0.00  0.00    -0.177 NA
ATOM     15  C   UNL     1      15.880   3.932   6.567  0.00  0.00    +0.109 C 
ATOM     16  C   UNL     1      17.125   4.675   7.111  0.00  0.00    +0.017 C 
ATOM     17  C   UNL     1      18.141   4.810   6.057  0.00  0.00    +0.001 C 
ATOM     18  C   UNL     1      17.698   5.644   4.859  0.00  0.00    +0.001 C 
ATOM     19  C   UNL     1      16.944   4.767   3.890  0.00  0.00    +0.017 C 
ATOM     20  C   UNL     1      15.432   4.807   4.199  0.00  0.00    +0.109 C 
ENDBRANCH  11  14
ENDBRANCH   8  11
ENDBRANCH   3   5
BRANCH   1  21
ATOM     21  C   UNL     1       7.208   1.389   4.971  0.00  0.00    +0.019 C 
BRANCH  21  25
ATOM     22  N   UNL     1       5.274   0.616   1.312  0.00  0.00    -0.302 NA
ATOM     23  C   UNL     1       5.554  -0.523   2.197  0.00  0.00    +0.066 C 
ATOM     24  C   UNL     1       5.810  -0.012   3.616  0.00  0.00    -0.063 C 
ATOM     25  N   UNL     1       6.951   0.913   3.606  0.00  0.00    +0.387 N 
ATOM     26  C   UNL     1       6.647   2.058   2.737  0.00  0.00    -0.063 C 
ATOM     27  C   UNL     1       6.398   1.564   1.310  0.00  0.00    +0.066 C 
ATOM     28  H   UNL     1       7.769   0.434   3.257  0.00  0.00    -0.081 HD
BRANCH  22  29
ATOM     29  C   UNL     1       4.967   0.162  -0.050  0.00  0.00    +0.120 C 
BRANCH  29  39
ATOM     30  C   UNL     1      -0.003   1.386  -0.016  0.00  0.00    +0.001 A 
ATOM     31  C   UNL     1       1.186   2.113  -0.022  0.00  0.00    +0.001 A 
ATOM     32  C   UNL     1       2.392   1.484  -0.031  0.00  0.00    +0.009 A 
ATOM     33  C   UNL     1       2.444   0.079  -0.034  0.00  0.00    -0.013 A 
ATOM     34  C   UNL     1       1.234  -0.660  -0.028  0.00  0.00    -0.018 A 
ATOM     35  C   UNL     1       0.007   0.025  -0.019  0.00  0.00    +0.008 A 
ATOM     36  C   UNL     1       1.286  -2.065  -0.030  0.00  0.00    +0.008 A 
ATOM     37  C   UNL     1       2.492  -2.694  -0.039  0.00  0.00    +0.001 A 
ATOM     38  C   UNL     1       3.681  -1.967  -0.045  0.00  0.00    +0.005 A 
ATOM     39  C   UNL     1       3.670  -0.606  -0.043  0.00  0.00    -0.026 A 
ENDBRANCH  29  39
ENDBRANCH  22  29
ENDBRANCH  21  25
ENDBRANCH   1  21
TORSDOF 7
