REMARK  Name = ZINC07935129
REMARK  6 active torsions:
REMARK  status: ('A' for Active; 'I' for Inactive)
REMARK    1  A    between atoms: C_1  and  C_2
REMARK    2  A    between atoms: C_2  and  C_4
REMARK    3  A    between atoms: C_2  and  S_15
REMARK    4  A    between atoms: C_7  and  C_9
REMARK    5  A    between atoms: S_15  and  C_16
REMARK    6  A    between atoms: N_21  and  C_22
REMARK                            x       y       z     vdW  Elec       q    Type
REMARK                         _______ _______ _______ _____ _____    ______ ____
ROOT
ATOM      1  S   UNL     1      -4.280   5.299  -1.775  0.00  0.00    -0.084 S 
ENDROOT
BRANCH   1   2
ATOM      2  C   UNL     1      -5.053   6.866  -1.548  0.00  0.00    +0.161 A 
ATOM      3  N   UNL     1      -4.762   7.825  -0.688  0.00  0.00    -0.133 NA
ATOM      4  N   UNL     1      -5.501   8.985  -0.683  0.00  0.00    -0.125 NA
ATOM      5  C   UNL     1      -6.502   9.130  -1.529  0.00  0.00    +0.187 A 
ATOM      6  S   UNL     1      -6.443   7.579  -2.413  0.00  0.00    -0.024 S 
ATOM      7  N   UNL     1      -7.371  10.204  -1.689  0.00  0.00    -0.292 N 
ATOM      8  H   UNL     1      -8.121  10.133  -2.300  0.00  0.00    +0.154 HD
BRANCH   7   9
ATOM      9  C   UNL     1      -7.164  11.384  -0.971  0.00  0.00    +0.036 A 
ATOM     10  C   UNL     1      -5.886  11.723  -0.542  0.00  0.00    +0.023 A 
ATOM     11  C   UNL     1      -5.684  12.890   0.168  0.00  0.00    +0.005 A 
ATOM     12  C   UNL     1      -6.750  13.723   0.452  0.00  0.00    +0.038 A 
ATOM     13  C   UNL     1      -8.025  13.389   0.027  0.00  0.00    +0.125 A 
ATOM     14  C   UNL     1      -8.234  12.224  -0.689  0.00  0.00    +0.061 A 
ATOM     15  F   UNL     1      -9.066  14.204   0.306  0.00  0.00    -0.205 F 
ENDBRANCH   7   9
ENDBRANCH   1   2
BRANCH   1  17
ATOM     16  C   UNL     1      -3.554   5.307   0.862  0.00  0.00    +0.029 C 
ATOM     17  C   UNL     1      -2.949   5.283  -0.543  0.00  0.00    +0.138 C 
BRANCH  17  18
ATOM     18  C   UNL     1      -2.123   4.034  -0.713  0.00  0.00    +0.231 A 
ATOM     19  N   UNL     1      -2.581   2.826  -0.888  0.00  0.00    -0.111 NA
ATOM     20  N   UNL     1      -1.596   2.004  -0.996  0.00  0.00    -0.107 NA
ATOM     21  C   UNL     1      -0.468   2.665  -0.892  0.00  0.00    +0.248 A 
ATOM     22  O   UNL     1      -0.780   3.963  -0.706  0.00  0.00    -0.419 OA
BRANCH  21  23
ATOM     23  C   UNL     1       0.894   2.093  -0.960  0.00  0.00    +0.038 A 
ATOM     24  C   UNL     1       2.010   2.921  -0.838  0.00  0.00    +0.013 A 
ATOM     25  C   UNL     1       3.277   2.381  -0.908  0.00  0.00    +0.001 A 
ATOM     26  C   UNL     1       3.443   1.021  -1.099  0.00  0.00    +0.000 A 
ATOM     27  C   UNL     1       2.341   0.194  -1.221  0.00  0.00    +0.001 A 
ATOM     28  C   UNL     1       1.068   0.721  -1.153  0.00  0.00    +0.013 A 
ENDBRANCH  21  23
ENDBRANCH  17  18
ENDBRANCH   1  17
TORSDOF 5
