REMARK  Name = ZINC10750476
REMARK  11 active torsions:
REMARK  status: ('A' for Active; 'I' for Inactive)
REMARK    1  A    between atoms: C_1  and  C_2
REMARK    2  A    between atoms: C_5  and  C_36
REMARK    3  A    between atoms: C_6  and  N_8
REMARK    4  A    between atoms: C_9  and  C_11
REMARK    5  A    between atoms: C_11  and  C_12
REMARK    6  A    between atoms: C_14  and  C_17
REMARK    7  A    between atoms: C_17  and  O_18
REMARK    8  A    between atoms: O_18  and  C_19
REMARK    9  A    between atoms: C_19  and  C_21
REMARK   10  A    between atoms: C_21  and  N_22
REMARK   11  A    between atoms: C_30  and  C_32
REMARK                            x       y       z     vdW  Elec       q    Type
REMARK                         _______ _______ _______ _____ _____    ______ ____
ROOT
ATOM      1  C   UNL     1      -4.106  -4.097   2.125  0.00  0.00    +0.288 C 
ENDROOT
BRANCH   1   4
ATOM      2  C   UNL     1      -6.431  -6.913   2.555  0.00  0.00    +0.087 A 
ATOM      3  N   UNL     1      -5.410  -6.178   2.177  0.00  0.00    -0.245 NA
ATOM      4  C   UNL     1      -5.283  -4.927   2.567  0.00  0.00    +0.086 A 
ATOM      5  C   UNL     1      -6.234  -4.406   3.384  0.00  0.00    +0.073 A 
ATOM      6  S   UNL     1      -7.329  -5.809   3.550  0.00  0.00    -0.080 S 
BRANCH   2   7
ATOM      7  C   UNL     1      -6.743  -8.347   2.213  0.00  0.00    +0.159 C 
BRANCH   7   9
ATOM      8  N   UNL     1      -6.261 -10.592   3.133  0.00  0.00    -0.285 N 
ATOM      9  C   UNL     1      -6.114  -9.256   3.237  0.00  0.00    +0.224 C 
ATOM     10  O   UNL     1      -5.475  -8.786   4.154  0.00  0.00    -0.275 OA
ATOM     11  H   UNL     1      -6.837 -10.964   2.447  0.00  0.00    +0.155 HD
BRANCH   8  17
ATOM     12  C   UNL     1      -2.476 -11.396   6.165  0.00  0.00    +0.044 C 
ATOM     13  C   UNL     1      -3.746 -11.857   5.498  0.00  0.00    -0.049 A 
ATOM     14  C   UNL     1      -4.244 -13.120   5.758  0.00  0.00    +0.004 A 
ATOM     15  C   UNL     1      -5.409 -13.547   5.149  0.00  0.00    +0.005 A 
ATOM     16  C   UNL     1      -6.084 -12.709   4.283  0.00  0.00    -0.029 A 
ATOM     17  C   UNL     1      -5.584 -11.441   4.015  0.00  0.00    +0.037 A 
ATOM     18  C   UNL     1      -4.413 -11.016   4.629  0.00  0.00    +0.027 A 
ATOM     19  C   UNL     1      -7.358 -13.172   3.624  0.00  0.00    +0.045 C 
ENDBRANCH   8  17
ENDBRANCH   7   9
ENDBRANCH   2   7
ENDBRANCH   1   4
BRANCH   1  20
ATOM     20  O   UNL     1      -4.211  -2.766   2.696  0.00  0.00    -0.457 OA
BRANCH  20  21
ATOM     21  C   UNL     1      -3.233  -1.895   2.396  0.00  0.00    +0.326 C 
ATOM     22  O   UNL     1      -2.321  -2.235   1.681  0.00  0.00    -0.249 OA
BRANCH  21  23
ATOM     23  C   UNL     1      -3.275  -0.496   2.953  0.00  0.00    +0.238 C 
BRANCH  23  24
ATOM     24  N   UNL     1      -2.105   0.251   2.483  0.00  0.00    -0.213 N 
ATOM     25  C   UNL     1      -2.075   0.976   1.346  0.00  0.00    +0.247 C 
ATOM     26  O   UNL     1      -2.976   1.128   0.548  0.00  0.00    -0.273 OA
ATOM     27  C   UNL     1      -0.682   1.559   1.275  0.00  0.00    +0.115 C 
ATOM     28  C   UNL     1       0.039   1.063   0.027  0.00  0.00    +0.035 C 
ATOM     29  C   UNL     1      -0.691   1.569  -1.220  0.00  0.00    +0.003 C 
ATOM     30  C   UNL     1      -0.725   3.099  -1.204  0.00  0.00    +0.000 C 
ATOM     31  C   UNL     1      -1.469   3.581   0.042  0.00  0.00    +0.006 C 
ATOM     32  C   UNL     1      -0.743   3.083   1.294  0.00  0.00    +0.018 C 
ATOM     33  C   UNL     1      -1.497   3.548   2.541  0.00  0.00    +0.010 C 
ATOM     34  N   UNL     1      -0.023   1.055   2.486  0.00  0.00    -0.285 N 
ATOM     35  C   UNL     1      -0.933   0.299   3.129  0.00  0.00    +0.310 C 
ATOM     36  O   UNL     1      -0.716  -0.275   4.178  0.00  0.00    -0.252 OA
ATOM     37  H   UNL     1       0.889   1.231   2.767  0.00  0.00    +0.151 HD
ENDBRANCH  23  24
ENDBRANCH  21  23
ENDBRANCH  20  21
ENDBRANCH   1  20
TORSDOF 8
