REMARK  Name = ZINC39534015
REMARK  9 active torsions:
REMARK  status: ('A' for Active; 'I' for Inactive)
REMARK    1  A    between atoms: C_1  and  S_2
REMARK    2  A    between atoms: S_2  and  C_3
REMARK    3  A    between atoms: N_6  and  C_10
REMARK    4  A    between atoms: C_10  and  C_12
REMARK    5  A    between atoms: C_10  and  C_15
REMARK    6  A    between atoms: C_12  and  N_13
REMARK    7  A    between atoms: N_13  and  O_14
REMARK    8  A    between atoms: C_18  and  C_21
REMARK    9  A    between atoms: C_26  and  O_27
REMARK                            x       y       z     vdW  Elec       q    Type
REMARK                         _______ _______ _______ _____ _____    ______ ____
ROOT
ATOM      1  C   UNL     1      -3.649  -3.016  -1.982  0.00  0.00    -0.021 C 
ENDROOT
BRANCH   1   4
ATOM      2  C   UNL     1      -2.489  -0.593   0.640  0.00  0.00    +0.095 C 
ATOM      3  C   UNL     1      -2.415  -1.504  -0.587  0.00  0.00    -0.048 C 
ATOM      4  N   UNL     1      -3.726  -2.127  -0.815  0.00  0.00    +0.387 N 
ATOM      5  C   UNL     1      -4.729  -1.082  -1.060  0.00  0.00    -0.062 C 
ATOM      6  C   UNL     1      -4.822  -0.167   0.163  0.00  0.00    +0.063 C 
ATOM      7  N   UNL     1      -3.509   0.442   0.417  0.00  0.00    -0.308 NA
ATOM      8  H   UNL     1      -3.552   1.081   1.197  0.00  0.00    +0.123 HD
ATOM      9  H   UNL     1      -3.990  -2.662  -0.001  0.00  0.00    -0.081 HD
BRANCH   2  11
ATOM     10  C   UNL     1      -1.286   1.931   1.236  0.00  0.00    +0.086 C 
ATOM     11  S   UNL     1      -0.877   0.195   0.907  0.00  0.00    -0.147 S 
ENDBRANCH   2  11
ENDBRANCH   1   4
BRANCH   1  12
ATOM     12  C   UNL     1      -5.026  -3.535  -2.309  0.00  0.00    -0.060 A 
ATOM     13  C   UNL     1      -5.889  -3.891  -1.288  0.00  0.00    +0.002 A 
ATOM     14  C   UNL     1      -7.150  -4.367  -1.582  0.00  0.00    +0.009 A 
ATOM     15  C   UNL     1      -7.555  -4.488  -2.910  0.00  0.00    -0.014 A 
ATOM     16  C   UNL     1      -6.681  -4.127  -3.934  0.00  0.00    +0.009 A 
ATOM     17  C   UNL     1      -5.424  -3.647  -3.629  0.00  0.00    +0.002 A 
BRANCH  15  18
ATOM     18  C   UNL     1      -8.909  -5.000  -3.232  0.00  0.00    +0.024 A 
ATOM     19  C   UNL     1      -9.370  -6.176  -2.646  0.00  0.00    +0.012 A 
ATOM     20  C   UNL     1     -10.631  -6.648  -2.949  0.00  0.00    +0.001 A 
ATOM     21  C   UNL     1     -11.440  -5.956  -3.833  0.00  0.00    +0.004 A 
ATOM     22  C   UNL     1     -10.993  -4.788  -4.420  0.00  0.00    +0.046 A 
ATOM     23  C   UNL     1      -9.731  -4.300  -4.120  0.00  0.00    +0.125 A 
BRANCH  23  24
ATOM     24  O   UNL     1      -9.292  -3.149  -4.692  0.00  0.00    -0.506 OA
ATOM     25  H   UNL     1      -8.830  -3.278  -5.532  0.00  0.00    +0.292 HD
ENDBRANCH  23  24
ENDBRANCH  15  18
ENDBRANCH   1  12
BRANCH   1  26
ATOM     26  C   UNL     1      -2.723  -4.192  -1.667  0.00  0.00    +0.100 C 
BRANCH  26  27
ATOM     27  N   UNL     1      -1.346  -3.703  -1.513  0.00  0.00    -0.205 NA
ATOM     28  H   UNL     1      -1.047  -3.199  -2.335  0.00  0.00    +0.153 HD
BRANCH  27  29
ATOM     29  O   UNL     1      -0.430  -4.803  -1.211  0.00  0.00    -0.315 OA
ATOM     30  H   UNL     1       0.491  -4.529  -1.100  0.00  0.00    +0.236 HD
ENDBRANCH  27  29
ENDBRANCH  26  27
ENDBRANCH   1  26
TORSDOF 8
