REMARK  Name = ZINC12151266
REMARK  10 active torsions:
REMARK  status: ('A' for Active; 'I' for Inactive)
REMARK    1  A    between atoms: C_1  and  N_75
REMARK    2  A    between atoms: C_2  and  C_3
REMARK    3  A    between atoms: C_2  and  N_75
REMARK    4  A    between atoms: C_7  and  O_9
REMARK    5  A    between atoms: O_9  and  C_10
REMARK    6  A    between atoms: C_10  and  C_11
REMARK    7  A    between atoms: C_11  and  C_12
REMARK    8  A    between atoms: C_19  and  C_21
REMARK    9  A    between atoms: C_30  and  C_31
REMARK   10  A    between atoms: C_30  and  N_75
REMARK                            x       y       z     vdW  Elec       q    Type
REMARK                         _______ _______ _______ _____ _____    ______ ____
ROOT
ATOM      1  C   UNL     1      -0.061   3.800  -0.661  0.00  0.00    -0.060 A 
ATOM      2  C   UNL     1      -1.211   3.074  -0.909  0.00  0.00    +0.002 A 
ATOM      3  C   UNL     1      -1.167   1.693  -0.942  0.00  0.00    +0.004 A 
ATOM      4  C   UNL     1       0.027   1.034  -0.715  0.00  0.00    +0.045 A 
ATOM      5  C   UNL     1       1.182   1.760  -0.466  0.00  0.00    +0.121 A 
ATOM      6  C   UNL     1       1.136   3.146  -0.440  0.00  0.00    +0.047 A 
ENDROOT
BRANCH   1   7
ATOM      7  C   UNL     1      -0.112   5.306  -0.633  0.00  0.00    -0.043 C 
BRANCH   7   9
ATOM      8  C   UNL     1      -0.941   5.460  -2.903  0.00  0.00    -0.095 C 
ATOM      9  N   UNL     1       0.166   5.818  -1.992  0.00  0.00    +0.383 N 
ATOM     10  H   UNL     1       1.034   5.391  -2.338  0.00  0.00    -0.081 HD
BRANCH   9  11
ATOM     11  C   UNL     1       0.335   7.286  -1.954  0.00  0.00    -0.041 C 
BRANCH  11  12
ATOM     12  C   UNL     1       0.832   7.753  -3.298  0.00  0.00    -0.038 A 
ATOM     13  C   UNL     1       2.156   8.005  -3.487  0.00  0.00    +0.004 A 
ATOM     14  C   UNL     1       2.636   8.438  -4.721  0.00  0.00    +0.001 A 
ATOM     15  C   UNL     1       1.793   8.620  -5.774  0.00  0.00    +0.010 A 
ATOM     16  C   UNL     1       0.421   8.369  -5.615  0.00  0.00    +0.001 A 
ATOM     17  C   UNL     1      -0.070   7.924  -4.363  0.00  0.00    +0.072 A 
ATOM     18  N   UNL     1      -1.375   7.678  -4.208  0.00  0.00    -0.255 NA
ATOM     19  C   UNL     1      -2.219   7.835  -5.198  0.00  0.00    +0.111 A 
ATOM     20  C   UNL     1      -1.803   8.265  -6.456  0.00  0.00    +0.020 A 
ATOM     21  C   UNL     1      -0.485   8.546  -6.679  0.00  0.00    +0.011 A 
ENDBRANCH  11  12
ENDBRANCH   9  11
ENDBRANCH   7   9
ENDBRANCH   1   7
BRANCH   5  22
ATOM     22  O   UNL     1       2.358   1.114  -0.249  0.00  0.00    -0.492 OA
BRANCH  22  23
ATOM     23  C   UNL     1       2.331  -0.314  -0.291  0.00  0.00    +0.231 C 
BRANCH  23  24
ATOM     24  C   UNL     1       3.736  -0.859  -0.026  0.00  0.00    +0.063 C 
BRANCH  24  25
ATOM     25  C   UNL     1       3.684  -2.386   0.055  0.00  0.00    +0.080 C 
ATOM     26  C   UNL     1       3.128  -2.951  -1.256  0.00  0.00    +0.023 C 
ATOM     27  C   UNL     1       3.208  -4.479  -1.223  0.00  0.00    +0.003 C 
ATOM     28  C   UNL     1       4.671  -4.912  -1.093  0.00  0.00    +0.019 C 
ATOM     29  C   UNL     1       5.245  -4.369   0.219  0.00  0.00    +0.108 C 
ATOM     30  N   UNL     1       5.040  -2.914   0.260  0.00  0.00    -0.293 N 
ATOM     31  C   UNL     1       6.076  -2.081   0.480  0.00  0.00    +0.267 C 
ATOM     32  O   UNL     1       5.881  -0.887   0.598  0.00  0.00    -0.268 OA
BRANCH  31  33
ATOM     33  C   UNL     1       7.447  -2.618   0.577  0.00  0.00    +0.144 A 
ATOM     34  C   UNL     1       8.592  -1.879   0.668  0.00  0.00    +0.125 A 
ATOM     35  N   UNL     1       9.631  -2.758   0.741  0.00  0.00    -0.306 N 
ATOM     36  C   UNL     1      10.982  -2.578   0.845  0.00  0.00    +0.093 A 
ATOM     37  C   UNL     1      11.814  -3.638   0.893  0.00  0.00    +0.018 A 
ATOM     38  C   UNL     1      11.302  -4.946   0.837  0.00  0.00    +0.005 A 
ATOM     39  C   UNL     1       9.962  -5.141   0.733  0.00  0.00    +0.047 A 
ATOM     40  C   UNL     1       9.101  -4.023   0.683  0.00  0.00    +0.138 A 
ATOM     41  N   UNL     1       7.787  -3.920   0.585  0.00  0.00    -0.223 NA
ENDBRANCH  31  33
ENDBRANCH  24  25
ENDBRANCH  23  24
ENDBRANCH  22  23
ENDBRANCH   5  22
TORSDOF 9
