REMARK  Name = ZINC00739315
REMARK  10 active torsions:
REMARK  status: ('A' for Active; 'I' for Inactive)
REMARK    1  A    between atoms: C_4  and  C_7
REMARK    2  A    between atoms: C_9  and  N_19
REMARK    3  A    between atoms: N_10  and  C_12
REMARK    4  A    between atoms: C_20  and  C_22
REMARK    5  A    between atoms: C_22  and  N_23
REMARK    6  A    between atoms: N_23  and  C_24
REMARK    7  A    between atoms: C_24  and  C_25
REMARK    8  A    between atoms: C_30  and  C_32
REMARK    9  A    between atoms: C_32  and  O_33
REMARK   10  A    between atoms: O_33  and  C_34
REMARK                            x       y       z     vdW  Elec       q    Type
REMARK                         _______ _______ _______ _____ _____    ______ ____
ROOT
ATOM      1  N   UNL     1      -2.727   0.934   5.176  0.00  0.00    -0.269 N 
ATOM      2  C   UNL     1      -1.967   0.709   4.086  0.00  0.00    +0.236 C 
ATOM      3  O   UNL     1      -2.120  -0.305   3.438  0.00  0.00    -0.274 OA
ATOM      4  H   UNL     1      -2.604   1.745   5.694  0.00  0.00    +0.156 HD
ENDROOT
BRANCH   1   7
ATOM      5  C   UNL     1      -4.997  -1.811   5.642  0.00  0.00    +0.095 A 
ATOM      6  C   UNL     1      -3.964  -1.172   4.930  0.00  0.00    +0.074 A 
ATOM      7  C   UNL     1      -3.689  -0.000   5.560  0.00  0.00    +0.129 A 
ATOM      8  N   UNL     1      -4.517   0.096   6.637  0.00  0.00    -0.218 N 
ATOM      9  N   UNL     1      -5.328  -1.046   6.662  0.00  0.00    -0.165 NA
BRANCH   8  10
ATOM     10  C   UNL     1      -4.553   1.152   7.557  0.00  0.00    +0.068 A 
ATOM     11  C   UNL     1      -3.380   1.804   7.914  0.00  0.00    +0.030 A 
ATOM     12  C   UNL     1      -3.419   2.848   8.817  0.00  0.00    +0.040 A 
ATOM     13  C   UNL     1      -4.625   3.239   9.374  0.00  0.00    +0.124 A 
ATOM     14  C   UNL     1      -5.795   2.586   9.023  0.00  0.00    +0.040 A 
ATOM     15  C   UNL     1      -5.762   1.545   8.116  0.00  0.00    +0.030 A 
ATOM     16  F   UNL     1      -4.660   4.257  10.261  0.00  0.00    -0.205 F 
ENDBRANCH   8  10
BRANCH   5  20
ATOM     17  C   UNL     1      -6.751  -5.559   4.665  0.00  0.00    +0.000 A 
ATOM     18  C   UNL     1      -7.195  -4.858   5.771  0.00  0.00    +0.001 A 
ATOM     19  C   UNL     1      -6.630  -3.641   6.093  0.00  0.00    +0.010 A 
ATOM     20  C   UNL     1      -5.609  -3.119   5.301  0.00  0.00    +0.002 A 
ATOM     21  C   UNL     1      -5.169  -3.827   4.185  0.00  0.00    +0.010 A 
ATOM     22  C   UNL     1      -5.738  -5.046   3.875  0.00  0.00    +0.001 A 
ENDBRANCH   5  20
ENDBRANCH   1   7
BRANCH   2  23
ATOM     23  C   UNL     1      -0.927   1.718   3.671  0.00  0.00    +0.204 C 
BRANCH  23  24
ATOM     24  N   UNL     1      -0.242   1.246   2.466  0.00  0.00    -0.283 N 
ATOM     25  C   UNL     1      -0.718   1.572   1.248  0.00  0.00    +0.254 C 
ATOM     26  O   UNL     1      -1.714   2.256   1.150  0.00  0.00    -0.272 OA
BRANCH  24  27
ATOM     27  C   UNL     1       0.962   0.419   2.584  0.00  0.00    +0.182 C 
BRANCH  27  28
ATOM     28  C   UNL     1       2.179   1.307   2.623  0.00  0.00    +0.122 A 
ATOM     29  C   UNL     1       2.743   1.821   3.732  0.00  0.00    +0.046 A 
ATOM     30  C   UNL     1       3.853   2.587   3.309  0.00  0.00    +0.041 A 
ATOM     31  C   UNL     1       3.902   2.496   1.968  0.00  0.00    +0.195 A 
ATOM     32  O   UNL     1       2.889   1.714   1.559  0.00  0.00    -0.466 OA
ENDBRANCH  27  28
ENDBRANCH  24  27
BRANCH  25  33
ATOM     33  C   UNL     1      -0.013   1.086   0.008  0.00  0.00    +0.324 C 
BRANCH  33  34
ATOM     34  O   UNL     1      -0.704   1.559  -1.150  0.00  0.00    -0.483 OA
BRANCH  34  35
ATOM     35  C   UNL     1      -0.194   1.208  -2.359  0.00  0.00    +0.121 A 
ATOM     36  C   UNL     1       0.951   0.428  -2.431  0.00  0.00    +0.045 A 
ATOM     37  C   UNL     1       1.464   0.067  -3.662  0.00  0.00    +0.004 A 
ATOM     38  C   UNL     1       0.844   0.492  -4.822  0.00  0.00    +0.000 A 
ATOM     39  C   UNL     1      -0.294   1.274  -4.753  0.00  0.00    +0.004 A 
ATOM     40  C   UNL     1      -0.815   1.633  -3.525  0.00  0.00    +0.045 A 
ENDBRANCH  34  35
ENDBRANCH  33  34
ENDBRANCH  25  33
ENDBRANCH  23  24
ENDBRANCH   2  23
TORSDOF 10
