REMARK  Name = ZINC40349197
REMARK  4 active torsions:
REMARK  status: ('A' for Active; 'I' for Inactive)
REMARK    1  A    between atoms: C_3  and  N_21
REMARK    2  A    between atoms: C_5  and  S_7
REMARK    3  A    between atoms: S_7  and  N_10
REMARK    4  A    between atoms: N_10  and  C_11
REMARK                            x       y       z     vdW  Elec       q    Type
REMARK                         _______ _______ _______ _____ _____    ______ ____
ROOT
ATOM      1  S   UNL     1       1.225  -2.444  -0.023  0.00  0.00    +0.092 S 
ATOM      2  O   UNL     1      -0.021  -2.860  -0.565  0.00  0.00    -0.148 OA
ATOM      3  O   UNL     1       2.469  -2.834  -0.589  0.00  0.00    -0.148 OA
ENDROOT
BRANCH   1   8
ATOM      4  C   UNL     1      -0.017   1.378   0.010  0.00  0.00    +0.004 A 
ATOM      5  C   UNL     1       1.169   2.087   0.002  0.00  0.00    +0.023 A 
ATOM      6  C   UNL     1       2.381   1.409  -0.013  0.00  0.00    +0.026 A 
ATOM      7  C   UNL     1       2.396   0.020  -0.021  0.00  0.00    +0.051 A 
ATOM      8  C   UNL     1       1.207  -0.682  -0.013  0.00  0.00    +0.112 A 
ATOM      9  C   UNL     1       0.002  -0.004   0.002  0.00  0.00    +0.029 A 
BRANCH   6  10
ATOM     10  N   UNL     1       3.582   2.122  -0.021  0.00  0.00    -0.358 N 
ATOM     11  H   UNL     1       3.570   3.092  -0.016  0.00  0.00    +0.142 HD
ATOM     12  H   UNL     1       4.428   1.647  -0.032  0.00  0.00    +0.142 HD
ENDBRANCH   6  10
ENDBRANCH   1   8
BRANCH   1  13
ATOM     13  N   UNL     1       1.246  -2.943   1.556  0.00  0.00    -0.098 NA
BRANCH  13  14
ATOM     14  C   UNL     1       1.263  -4.304   1.857  0.00  0.00    +0.076 A 
ATOM     15  C   UNL     1       1.268  -5.245   0.818  0.00  0.00    +0.029 A 
ATOM     16  C   UNL     1       1.285  -6.577   1.082  0.00  0.00    +0.032 A 
ATOM     17  C   UNL     1       1.297  -7.028   2.415  0.00  0.00    +0.089 A 
ATOM     18  C   UNL     1       1.291  -6.083   3.473  0.00  0.00    +0.091 A 
ATOM     19  C   UNL     1       1.280  -4.712   3.172  0.00  0.00    +0.056 A 
ATOM     20  N   UNL     1       1.303  -6.511   4.741  0.00  0.00    -0.252 NA
ATOM     21  C   UNL     1       1.319  -7.800   4.993  0.00  0.00    +0.131 A 
ATOM     22  C   UNL     1       1.324  -8.729   3.952  0.00  0.00    +0.131 A 
ATOM     23  N   UNL     1       1.313  -8.334   2.699  0.00  0.00    -0.252 NA
ENDBRANCH  13  14
ENDBRANCH   1  13
TORSDOF 4
