REMARK  Name = ZINC33521096
REMARK  10 active torsions:
REMARK  status: ('A' for Active; 'I' for Inactive)
REMARK    1  A    between atoms: C_1  and  C_2
REMARK    2  A    between atoms: C_2  and  C_3
REMARK    3  A    between atoms: C_2  and  C_4
REMARK    4  A    between atoms: C_2  and  C_5
REMARK    5  A    between atoms: C_12  and  N_17
REMARK    6  A    between atoms: C_13  and  C_14
REMARK    7  A    between atoms: C_18  and  C_20
REMARK    8  A    between atoms: C_20  and  C_21
REMARK    9  A    between atoms: C_21  and  C_22
REMARK   10  A    between atoms: C_22  and  N_23
REMARK                            x       y       z     vdW  Elec       q    Type
REMARK                         _______ _______ _______ _____ _____    ______ ____
ROOT
ATOM      1  C   UNL     1      -4.352  -0.673  -3.490  0.00  0.00    -0.000 C 
ATOM      2  C   UNL     1      -3.686   0.699  -3.627  0.00  0.00    +0.009 C 
ATOM      3  C   UNL     1      -2.555   0.832  -2.605  0.00  0.00    +0.037 C 
ATOM      4  C   UNL     1      -3.100   0.495  -1.223  0.00  0.00    -0.023 A 
ATOM      5  C   UNL     1      -4.253  -0.194  -1.079  0.00  0.00    -0.004 A 
ATOM      6  S   UNL     1      -4.477  -0.342   0.671  0.00  0.00    -0.077 S 
ATOM      7  C   UNL     1      -3.057   0.494   1.206  0.00  0.00    +0.084 A 
ATOM      8  C   UNL     1      -2.447   0.874   0.018  0.00  0.00    +0.068 A 
ATOM      9  C   UNL     1      -5.137  -0.713  -2.171  0.00  0.00    +0.046 C 
ENDROOT
BRANCH   8  10
ATOM     10  C   UNL     1      -1.187   1.624   0.017  0.00  0.00    +0.244 C 
ATOM     11  O   UNL     1      -1.204   2.841   0.023  0.00  0.00    -0.270 OA
ATOM     12  N   UNL     1      -0.011   0.966   0.007  0.00  0.00    -0.325 N 
ATOM     13  H   UNL     1       0.934   1.529   0.006  0.00  0.00    +0.145 HD
ATOM     14  H   UNL     1       0.004  -0.134   0.001  0.00  0.00    +0.145 HD
ENDBRANCH   8  10
BRANCH   1  16
ATOM     15  C   UNL     1      -4.524  -0.842  -5.976  0.00  0.00    +0.011 C 
ATOM     16  C   UNL     1      -5.307  -0.899  -4.663  0.00  0.00    -0.035 C 
ATOM     17  C   UNL     1      -5.971  -2.271  -4.524  0.00  0.00    +0.011 C 
ATOM     18  C   UNL     1      -6.382   0.190  -4.662  0.00  0.00    +0.011 C 
ENDBRANCH   1  16
BRANCH   7  19
ATOM     19  N   UNL     1      -2.633   0.728   2.505  0.00  0.00    -0.279 N 
ATOM     20  C   UNL     1      -3.364   0.278   3.544  0.00  0.00    +0.218 C 
ATOM     21  O   UNL     1      -4.393  -0.332   3.342  0.00  0.00    -0.275 OA
ATOM     22  H   UNL     1      -1.700   1.282   2.688  0.00  0.00    +0.155 HD
BRANCH  20  23
ATOM     23  C   UNL     1      -2.904   0.533   4.956  0.00  0.00    +0.094 C 
BRANCH  23  24
ATOM     24  C   UNL     1      -3.906  -0.078   5.937  0.00  0.00    -0.010 C 
BRANCH  24  25
ATOM     25  C   UNL     1      -3.439   0.181   7.371  0.00  0.00    -0.086 C 
BRANCH  25  26
ATOM     26  N   UNL     1      -4.402  -0.406   8.313  0.00  0.00    +0.378 N 
ATOM     27  H   UNL     1      -4.066  -0.220   9.344  0.00  0.00    -0.090 HD
ATOM     28  H   UNL     1      -4.470  -1.490   8.140  0.00  0.00    -0.090 HD
ATOM     29  H   UNL     1      -5.390   0.053   8.161  0.00  0.00    -0.090 HD
ENDBRANCH  25  26
ENDBRANCH  24  25
ENDBRANCH  23  24
ENDBRANCH  20  23
ENDBRANCH   7  19
TORSDOF 7
