REMARK  Name = ZINC12648232
REMARK  10 active torsions:
REMARK  status: ('A' for Active; 'I' for Inactive)
REMARK    1  A    between atoms: C_4  and  C_7
REMARK    2  A    between atoms: C_7  and  C_8
REMARK    3  A    between atoms: C_8  and  N_9
REMARK    4  A    between atoms: C_10  and  C_28
REMARK    5  A    between atoms: C_13  and  S_14
REMARK    6  A    between atoms: S_14  and  C_15
REMARK    7  A    between atoms: C_15  and  C_16
REMARK    8  A    between atoms: N_18  and  C_19
REMARK    9  A    between atoms: C_22  and  N_25
REMARK   10  A    between atoms: C_28  and  C_29
REMARK                            x       y       z     vdW  Elec       q    Type
REMARK                         _______ _______ _______ _____ _____    ______ ____
ROOT
ATOM      1  N   UNL     1       0.520  -3.070  -2.208  0.00  0.00    -0.305 N 
ATOM      2  C   UNL     1       1.556  -2.588  -1.456  0.00  0.00    +0.139 A 
ATOM      3  N   UNL     1       2.627  -2.636  -2.196  0.00  0.00    -0.133 NA
ATOM      4  N   UNL     1       2.341  -3.108  -3.357  0.00  0.00    -0.122 NA
ATOM      5  C   UNL     1       1.060  -3.388  -3.421  0.00  0.00    +0.192 A 
ENDROOT
BRANCH   1   6
ATOM      6  C   UNL     1      -0.879  -3.212  -1.798  0.00  0.00    +0.130 C 
BRANCH   6   7
ATOM      7  C   UNL     1      -1.641  -1.928  -2.131  0.00  0.00    +0.057 C 
BRANCH   7  11
ATOM      8  C   UNL     1      -5.722  -2.343  -0.936  0.00  0.00    +0.000 A 
ATOM      9  C   UNL     1      -4.790  -1.835  -0.050  0.00  0.00    +0.000 A 
ATOM     10  C   UNL     1      -3.470  -1.701  -0.437  0.00  0.00    +0.004 A 
ATOM     11  C   UNL     1      -3.081  -2.075  -1.710  0.00  0.00    -0.046 A 
ATOM     12  C   UNL     1      -4.013  -2.577  -2.597  0.00  0.00    +0.004 A 
ATOM     13  C   UNL     1      -5.333  -2.717  -2.209  0.00  0.00    +0.000 A 
ENDBRANCH   7  11
ENDBRANCH   6   7
ENDBRANCH   1   6
BRANCH   5  14
ATOM     14  S   UNL     1       0.202  -4.055  -4.808  0.00  0.00    -0.077 S 
BRANCH  14  15
ATOM     15  C   UNL     1       1.569  -4.199  -5.985  0.00  0.00    +0.173 C 
BRANCH  15  16
ATOM     16  C   UNL     1       1.056  -4.765  -7.284  0.00  0.00    +0.227 C 
ATOM     17  O   UNL     1      -0.118  -5.044  -7.402  0.00  0.00    -0.275 OA
ATOM     18  N   UNL     1       1.903  -4.961  -8.314  0.00  0.00    -0.285 N 
ATOM     19  H   UNL     1       2.828  -4.677  -8.243  0.00  0.00    +0.155 HD
BRANCH  18  20
ATOM     20  C   UNL     1       1.448  -5.576  -9.486  0.00  0.00    +0.034 A 
ATOM     21  C   UNL     1       2.292  -6.411 -10.206  0.00  0.00    +0.025 A 
ATOM     22  C   UNL     1       1.838  -7.021 -11.359  0.00  0.00    +0.034 A 
ATOM     23  C   UNL     1       0.549  -6.792 -11.803  0.00  0.00    +0.126 A 
ATOM     24  C   UNL     1      -0.292  -5.956 -11.091  0.00  0.00    +0.034 A 
ATOM     25  C   UNL     1       0.154  -5.348  -9.934  0.00  0.00    +0.025 A 
BRANCH  23  26
ATOM     26  N   UNL     1       0.068  -7.442 -13.043  0.00  0.00    +0.056 N 
ATOM     27  O   UNL     1      -1.068  -7.241 -13.434  0.00  0.00    -0.126 OA
ATOM     28  O   UNL     1       0.807  -8.178 -13.671  0.00  0.00    -0.126 OA
ENDBRANCH  23  26
ENDBRANCH  18  20
ENDBRANCH  15  16
ENDBRANCH  14  15
ENDBRANCH   5  14
BRANCH   2  29
ATOM     29  C   UNL     1       1.474  -2.098  -0.034  0.00  0.00    +0.118 C 
BRANCH  29  30
ATOM     30  C   UNL     1       1.183  -0.620  -0.027  0.00  0.00    -0.003 A 
ATOM     31  C   UNL     1      -0.016   0.014  -0.013  0.00  0.00    +0.011 A 
ATOM     32  C   UNL     1      -0.043   1.396  -0.010  0.00  0.00    +0.008 A 
ATOM     33  C   UNL     1       1.129   2.077  -0.022  0.00  0.00    +0.045 A 
ATOM     34  S   UNL     1       2.325   0.752  -0.038  0.00  0.00    -0.101 S 
ENDBRANCH  29  30
ENDBRANCH   2  29
TORSDOF 10
