REMARK  Name = ZINC39662833
REMARK  5 active torsions:
REMARK  status: ('A' for Active; 'I' for Inactive)
REMARK    1  A    between atoms: C_3  and  C_8
REMARK    2  A    between atoms: C_12  and  C_21
REMARK    3  A    between atoms: N_23  and  C_24
REMARK    4  A    between atoms: C_24  and  C_25
REMARK    5  A    between atoms: C_28  and  C_31
REMARK                            x       y       z     vdW  Elec       q    Type
REMARK                         _______ _______ _______ _____ _____    ______ ____
ROOT
ATOM      1  C   UNL     1       3.376   1.708  -1.265  0.00  0.00    +0.219 C 
ATOM      2  O   UNL     1       3.614   2.607  -0.486  0.00  0.00    -0.275 OA
ATOM      3  N   UNL     1       4.294   1.353  -2.185  0.00  0.00    -0.300 N 
ATOM      4  C   UNL     1       4.185   0.294  -3.216  0.00  0.00    +0.121 C 
ATOM      5  C   UNL     1       4.854   0.899  -4.471  0.00  0.00    +0.100 C 
ATOM      6  C   UNL     1       5.810   1.973  -3.925  0.00  0.00    -0.004 C 
ATOM      7  C   UNL     1       5.639   1.938  -2.400  0.00  0.00    +0.115 C 
ATOM      8  C   UNL     1       5.422   3.348  -4.462  0.00  0.00    -0.010 C 
ATOM      9  C   UNL     1       6.420   4.390  -3.952  0.00  0.00    -0.082 C 
ATOM     10  N   UNL     1       7.773   4.033  -4.397  0.00  0.00    +0.379 N 
ATOM     11  C   UNL     1       8.175   2.753  -3.801  0.00  0.00    -0.082 C 
ATOM     12  C   UNL     1       7.250   1.641  -4.305  0.00  0.00    -0.010 C 
ATOM     13  H   UNL     1       7.785   3.953  -5.403  0.00  0.00    -0.086 HD
ATOM     14  H   UNL     1       8.420   4.753  -4.112  0.00  0.00    -0.086 HD
ENDROOT
BRANCH   1  17
ATOM     15  C   UNL     1      -0.200   0.958  -0.154  0.00  0.00    +0.027 C 
ATOM     16  C   UNL     1       1.197   1.578  -0.076  0.00  0.00    +0.017 C 
ATOM     17  C   UNL     1       2.054   0.987  -1.203  0.00  0.00    +0.079 C 
ATOM     18  C   UNL     1       2.285  -0.497  -0.907  0.00  0.00    +0.039 C 
ATOM     19  C   UNL     1       0.983  -1.168  -0.585  0.00  0.00    -0.030 C 
ATOM     20  C   UNL     1      -0.097  -0.536  -0.253  0.00  0.00    -0.031 C 
ENDBRANCH   1  17
BRANCH   5  21
ATOM     21  C   UNL     1       3.817   1.523  -5.369  0.00  0.00    +0.218 C 
ATOM     22  O   UNL     1       2.806   1.994  -4.892  0.00  0.00    -0.275 OA
ATOM     23  N   UNL     1       4.013   1.558  -6.702  0.00  0.00    -0.315 N 
ATOM     24  H   UNL     1       4.822   1.181  -7.083  0.00  0.00    +0.149 HD
BRANCH  23  25
ATOM     25  C   UNL     1       3.006   2.164  -7.575  0.00  0.00    +0.107 C 
BRANCH  25  26
ATOM     26  C   UNL     1       3.470   2.074  -9.030  0.00  0.00    +0.006 C 
ATOM     27  C   UNL     1       4.730   2.922  -9.216  0.00  0.00    +0.006 C 
ATOM     28  C   UNL     1       4.420   4.379  -8.870  0.00  0.00    +0.015 C 
ATOM     29  C   UNL     1       3.315   4.899  -9.791  0.00  0.00    +0.102 C 
ATOM     30  C   UNL     1       2.055   4.051  -9.605  0.00  0.00    +0.015 C 
ATOM     31  C   UNL     1       2.365   2.594  -9.951  0.00  0.00    +0.006 C 
BRANCH  29  32
ATOM     32  C   UNL     1       3.010   6.335  -9.450  0.00  0.00    +0.359 C 
ATOM     33  O   UNL     1       2.793   7.140 -10.339  0.00  0.00    -0.246 OA
ATOM     34  O   UNL     1       2.980   6.691  -8.284  0.00  0.00    -0.246 OA
ENDBRANCH  29  32
ENDBRANCH  25  26
ENDBRANCH  23  25
ENDBRANCH   5  21
TORSDOF 5
