REMARK  Name = ZINC63662002
REMARK  10 active torsions:
REMARK  status: ('A' for Active; 'I' for Inactive)
REMARK    1  A    between atoms: C_1  and  C_2
REMARK    2  A    between atoms: C_2  and  C_3
REMARK    3  A    between atoms: C_3  and  C_4
REMARK    4  A    between atoms: C_3  and  C_5
REMARK    5  A    between atoms: C_5  and  C_6
REMARK    6  A    between atoms: C_5  and  N_22
REMARK    7  A    between atoms: N_8  and  C_9
REMARK    8  A    between atoms: C_9  and  C_10
REMARK    9  A    between atoms: C_15  and  C_16
REMARK   10  A    between atoms: C_16  and  N_17
REMARK                            x       y       z     vdW  Elec       q    Type
REMARK                         _______ _______ _______ _____ _____    ______ ____
ROOT
ATOM      1  C   UNL     1      -2.802  -2.654  -0.129  0.00  0.00    +0.234 C 
ATOM      2  O   UNL     1      -3.184  -3.056  -1.208  0.00  0.00    -0.274 OA
ATOM      3  N   UNL     1      -3.648  -2.633   0.920  0.00  0.00    -0.310 N 
ATOM      4  H   UNL     1      -3.342  -2.312   1.783  0.00  0.00    +0.149 HD
ENDROOT
BRANCH   1   5
ATOM      5  C   UNL     1      -1.382  -2.179   0.038  0.00  0.00    +0.163 C 
BRANCH   5   6
ATOM      6  N   UNL     1      -0.554  -2.723  -1.042  0.00  0.00    -0.288 N 
ATOM      7  C   UNL     1      -0.075  -3.980  -0.955  0.00  0.00    +0.298 C 
ATOM      8  O   UNL     1      -0.253  -4.630   0.056  0.00  0.00    -0.253 OA
ATOM      9  N   UNL     1       0.602  -4.515  -1.990  0.00  0.00    -0.313 N 
ATOM     10  H   UNL     1      -0.352  -2.179  -1.819  0.00  0.00    +0.151 HD
ATOM     11  H   UNL     1       0.745  -3.997  -2.797  0.00  0.00    +0.146 HD
ATOM     12  H   UNL     1       0.947  -5.420  -1.928  0.00  0.00    +0.146 HD
ENDBRANCH   5   6
BRANCH   5  13
ATOM     13  C   UNL     1      -1.346  -0.650  -0.013  0.00  0.00    +0.015 C 
ATOM     14  C   UNL     1      -1.792  -0.176  -1.398  0.00  0.00    +0.010 C 
BRANCH  13  16
ATOM     15  C   UNL     1       0.092   1.364   0.331  0.00  0.00    +0.004 C 
ATOM     16  C   UNL     1       0.079  -0.164   0.258  0.00  0.00    +0.002 C 
ENDBRANCH  13  16
ENDBRANCH   5  13
ENDBRANCH   1   5
BRANCH   3  17
ATOM     17  C   UNL     1      -5.029  -3.095   0.757  0.00  0.00    +0.139 C 
BRANCH  17  18
ATOM     18  C   UNL     1      -5.758  -2.969   2.070  0.00  0.00    -0.029 A 
ATOM     19  C   UNL     1      -5.928  -4.079   2.876  0.00  0.00    +0.005 A 
ATOM     20  C   UNL     1      -6.598  -3.963   4.079  0.00  0.00    +0.000 A 
ATOM     21  C   UNL     1      -7.096  -2.737   4.478  0.00  0.00    +0.000 A 
ATOM     22  C   UNL     1      -6.926  -1.627   3.673  0.00  0.00    +0.002 A 
ATOM     23  C   UNL     1      -6.252  -1.742   2.471  0.00  0.00    -0.059 A 
BRANCH  23  24
ATOM     24  C   UNL     1      -6.061  -0.530   1.595  0.00  0.00    -0.043 C 
BRANCH  24  25
ATOM     25  N   UNL     1      -7.062  -0.540   0.520  0.00  0.00    +0.382 N 
ATOM     26  C   UNL     1      -8.418  -0.306   1.079  0.00  0.00    -0.078 C 
ATOM     27  C   UNL     1      -9.221   0.208  -0.142  0.00  0.00    -0.020 C 
ATOM     28  C   UNL     1      -8.189   1.083  -0.891  0.00  0.00    -0.020 C 
ATOM     29  C   UNL     1      -6.814   0.576  -0.418  0.00  0.00    -0.078 C 
ATOM     30  H   UNL     1      -7.035  -1.421   0.027  0.00  0.00    -0.081 HD
ENDBRANCH  24  25
ENDBRANCH  23  24
ENDBRANCH  17  18
ENDBRANCH   3  17
TORSDOF 8
