REMARK  Name = ZINC01283559
REMARK  14 active torsions:
REMARK  status: ('A' for Active; 'I' for Inactive)
REMARK    1  A    between atoms: C_1  and  C_2
REMARK    2  A    between atoms: C_3  and  C_33
REMARK    3  A    between atoms: C_4  and  C_21
REMARK    4  A    between atoms: C_9  and  S_11
REMARK    5  A    between atoms: S_11  and  C_12
REMARK    6  A    between atoms: C_12  and  C_13
REMARK    7  A    between atoms: C_24  and  O_29
REMARK    8  A    between atoms: C_25  and  O_27
REMARK    9  A    between atoms: O_27  and  C_28
REMARK   10  A    between atoms: O_29  and  C_30
REMARK   11  A    between atoms: C_30  and  C_31
REMARK   12  A    between atoms: C_30  and  C_32
REMARK   13  A    between atoms: C_33  and  O_35
REMARK   14  A    between atoms: O_35  and  C_36
REMARK                            x       y       z     vdW  Elec       q    Type
REMARK                         _______ _______ _______ _____ _____    ______ ____
ROOT
ATOM      1  C   UNL     1       0.570   1.247   0.121  0.00  0.00    +0.061 C 
ATOM      2  C   UNL     1       0.341  -0.240   0.035  0.00  0.00    +0.020 C 
ATOM      3  C   UNL     1      -0.917  -0.706   0.075  0.00  0.00    +0.082 C 
ATOM      4  C   UNL     1      -1.253  -2.172   0.007  0.00  0.00    +0.179 C 
ATOM      5  N   UNL     1      -0.067  -2.924  -0.393  0.00  0.00    -0.220 N 
ATOM      6  C   UNL     1       1.181  -2.396  -0.424  0.00  0.00    +0.219 A 
ATOM      7  N   UNL     1       2.007  -3.328  -0.815  0.00  0.00    -0.187 NA
ATOM      8  C   UNL     1       1.326  -4.460  -1.047  0.00  0.00    +0.211 A 
ATOM      9  N   UNL     1       0.051  -4.252  -0.800  0.00  0.00    -0.141 NA
ATOM     10  N   UNL     1       1.425  -1.072  -0.088  0.00  0.00    -0.287 N 
ATOM     11  H   UNL     1       2.328  -0.749   0.058  0.00  0.00    +0.155 HD
ENDROOT
BRANCH   4  12
ATOM     12  C   UNL     1      -1.715  -2.644   1.361  0.00  0.00    -0.015 A 
ATOM     13  C   UNL     1      -0.873  -2.539   2.453  0.00  0.00    +0.010 A 
ATOM     14  C   UNL     1      -1.292  -2.971   3.697  0.00  0.00    +0.050 A 
ATOM     15  C   UNL     1      -2.559  -3.511   3.853  0.00  0.00    +0.162 A 
ATOM     16  C   UNL     1      -3.407  -3.616   2.755  0.00  0.00    +0.162 A 
ATOM     17  C   UNL     1      -2.982  -3.177   1.511  0.00  0.00    +0.055 A 
BRANCH  16  18
ATOM     18  O   UNL     1      -4.651  -4.146   2.902  0.00  0.00    -0.491 OA
ATOM     19  C   UNL     1      -5.466  -4.223   1.731  0.00  0.00    +0.277 C 
ENDBRANCH  16  18
BRANCH  15  20
ATOM     20  O   UNL     1      -2.973  -3.937   5.077  0.00  0.00    -0.486 OA
BRANCH  20  21
ATOM     21  C   UNL     1      -2.099  -3.688   6.180  0.00  0.00    +0.167 C 
ATOM     22  C   UNL     1      -2.913  -3.638   7.474  0.00  0.00    +0.051 C 
ATOM     23  C   UNL     1      -1.063  -4.810   6.272  0.00  0.00    +0.051 C 
ENDBRANCH  20  21
ENDBRANCH  15  20
ENDBRANCH   4  12
BRANCH   3  24
ATOM     24  C   UNL     1      -1.976   0.223   0.185  0.00  0.00    +0.339 C 
ATOM     25  O   UNL     1      -1.736   1.415   0.241  0.00  0.00    -0.245 OA
BRANCH  24  26
ATOM     26  O   UNL     1      -3.253  -0.211   0.228  0.00  0.00    -0.465 OA
ATOM     27  C   UNL     1      -4.273   0.783   0.340  0.00  0.00    +0.280 C 
ENDBRANCH  24  26
ENDBRANCH   3  24
BRANCH   8  28
ATOM     28  S   UNL     1       2.027  -5.981  -1.594  0.00  0.00    -0.080 S 
BRANCH  28  29
ATOM     29  C   UNL     1       3.798  -5.619  -1.746  0.00  0.00    +0.114 C 
BRANCH  29  30
ATOM     30  C   UNL     1       4.525  -6.854  -2.213  0.00  0.00    -0.019 A 
ATOM     31  C   UNL     1       5.019  -7.756  -1.290  0.00  0.00    +0.006 A 
ATOM     32  C   UNL     1       5.686  -8.889  -1.718  0.00  0.00    +0.000 A 
ATOM     33  C   UNL     1       5.860  -9.119  -3.070  0.00  0.00    +0.001 A 
ATOM     34  C   UNL     1       5.366  -8.218  -3.994  0.00  0.00    +0.020 A 
ATOM     35  C   UNL     1       4.694  -7.087  -3.566  0.00  0.00    +0.045 A 
ATOM     36 CL   UNL     1       4.068  -5.957  -4.726  0.00  0.00    -0.083 Cl
ENDBRANCH  29  30
ENDBRANCH  28  29
ENDBRANCH   8  28
TORSDOF 9
