REMARK  Name = ZINC08598439
REMARK  10 active torsions:
REMARK  status: ('A' for Active; 'I' for Inactive)
REMARK    1  A    between atoms: C_1  and  C_2
REMARK    2  A    between atoms: C_5  and  N_8
REMARK    3  A    between atoms: C_11  and  C_13
REMARK    4  A    between atoms: C_14  and  C_19
REMARK    5  A    between atoms: C_16  and  C_18
REMARK    6  A    between atoms: N_21  and  C_22
REMARK    7  A    between atoms: C_25  and  O_30
REMARK    8  A    between atoms: C_27  and  O_28
REMARK    9  A    between atoms: O_28  and  C_29
REMARK   10  A    between atoms: O_30  and  C_31
REMARK                            x       y       z     vdW  Elec       q    Type
REMARK                         _______ _______ _______ _____ _____    ______ ____
ROOT
ATOM      1  N   UNL     1       0.548  -4.301  -0.059  0.00  0.00    -0.214 N 
ATOM      2  C   UNL     1       0.988  -5.102   0.966  0.00  0.00    +0.164 A 
ATOM      3  C   UNL     1       0.758  -6.431   0.556  0.00  0.00    +0.054 A 
ATOM      4  C   UNL     1       0.175  -6.376  -0.728  0.00  0.00    +0.070 A 
ATOM      5  N   UNL     1       0.051  -5.127  -1.075  0.00  0.00    -0.169 NA
ATOM      6  C   UNL     1      -0.241  -7.564  -1.556  0.00  0.00    +0.068 C 
ATOM      7  C   UNL     1       1.118  -7.486   1.424  0.00  0.00    +0.051 A 
ATOM      8  C   UNL     1       1.688  -7.152   2.652  0.00  0.00    +0.037 A 
ATOM      9  C   UNL     1       1.878  -5.817   2.972  0.00  0.00    +0.041 A 
ATOM     10  N   UNL     1       1.534  -4.853   2.147  0.00  0.00    -0.232 NA
ATOM     11  C   UNL     1       2.494  -5.461   4.301  0.00  0.00    +0.065 C 
ENDROOT
BRANCH   1  16
ATOM     12  C   UNL     1       0.692   1.371  -0.151  0.00  0.00    +0.044 C 
ATOM     13  C   UNL     1       0.653  -0.136  -0.127  0.00  0.00    -0.050 A 
ATOM     14  C   UNL     1       0.848  -0.850  -1.295  0.00  0.00    +0.005 A 
ATOM     15  C   UNL     1       0.814  -2.230  -1.276  0.00  0.00    +0.028 A 
ATOM     16  C   UNL     1       0.583  -2.901  -0.082  0.00  0.00    +0.068 A 
ATOM     17  C   UNL     1       0.388  -2.181   1.089  0.00  0.00    +0.028 A 
ATOM     18  C   UNL     1       0.428  -0.801   1.064  0.00  0.00    +0.005 A 
ENDBRANCH   1  16
BRANCH   7  19
ATOM     19  C   UNL     1       0.898  -8.897   1.044  0.00  0.00    +0.249 C 
ATOM     20  O   UNL     1      -0.105  -9.213   0.433  0.00  0.00    -0.270 OA
ATOM     21  N   UNL     1       1.809  -9.834   1.373  0.00  0.00    -0.278 N 
ATOM     22  H   UNL     1       2.576  -9.595   1.916  0.00  0.00    +0.155 HD
BRANCH  21  23
ATOM     23  C   UNL     1       1.647 -11.155   0.931  0.00  0.00    +0.077 A 
ATOM     24  C   UNL     1       0.374 -11.680   0.764  0.00  0.00    +0.050 A 
ATOM     25  C   UNL     1       0.215 -12.982   0.328  0.00  0.00    +0.084 A 
ATOM     26  C   UNL     1       1.328 -13.767   0.058  0.00  0.00    +0.142 A 
ATOM     27  C   UNL     1       2.602 -13.246   0.224  0.00  0.00    +0.094 A 
ATOM     28  C   UNL     1       2.765 -11.939   0.655  0.00  0.00    +0.145 A 
ATOM     29 CL   UNL     1      -1.379 -13.638   0.120  0.00  0.00    -0.080 Cl
BRANCH  28  30
ATOM     30  O   UNL     1       4.013 -11.425   0.813  0.00  0.00    -0.493 OA
ATOM     31  C   UNL     1       5.113 -12.286   0.510  0.00  0.00    +0.277 C 
ENDBRANCH  28  30
BRANCH  26  32
ATOM     32  O   UNL     1       1.169 -15.048  -0.369  0.00  0.00    -0.494 OA
ATOM     33  C   UNL     1       2.357 -15.798  -0.629  0.00  0.00    +0.277 C 
ENDBRANCH  26  32
ENDBRANCH  21  23
ENDBRANCH   7  19
TORSDOF 5
