REMARK  Name = ZINC62828160
REMARK  3 active torsions:
REMARK  status: ('A' for Active; 'I' for Inactive)
REMARK    1  A    between atoms: C_5  and  C_6
REMARK    2  A    between atoms: N_14  and  C_15
REMARK    3  A    between atoms: C_16  and  C_20
REMARK                            x       y       z     vdW  Elec       q    Type
REMARK                         _______ _______ _______ _____ _____    ______ ____
ROOT
ATOM      1  C   UNL     1      -1.286  -0.786   0.011  0.00  0.00    +0.108 C 
ATOM      2  C   UNL     1      -1.585  -1.289   1.439  0.00  0.00    +0.029 C 
ATOM      3  C   UNL     1      -2.169  -2.705   1.194  0.00  0.00    +0.021 C 
ATOM      4  C   UNL     1      -1.336  -3.178  -0.024  0.00  0.00    +0.110 C 
ATOM      5  N   UNL     1      -1.158  -1.969  -0.854  0.00  0.00    -0.278 N 
ATOM      6  C   UNL     1      -0.919  -1.950  -2.180  0.00  0.00    +0.307 C 
ATOM      7  O   UNL     1      -0.790  -0.890  -2.760  0.00  0.00    -0.252 OA
ATOM      8  N   UNL     1      -0.824  -3.108  -2.864  0.00  0.00    -0.263 N 
ATOM      9  H   UNL     1      -0.927  -3.954  -2.401  0.00  0.00    +0.157 HD
ENDROOT
BRANCH   1  14
ATOM     10  C   UNL     1      -0.017   1.378   0.010  0.00  0.00    +0.013 A 
ATOM     11  C   UNL     1       1.160   2.051   0.002  0.00  0.00    +0.045 A 
ATOM     12  S   UNL     1       2.348   0.719  -0.017  0.00  0.00    -0.105 S 
ATOM     13  C   UNL     1       1.196  -0.645  -0.013  0.00  0.00    +0.050 A 
ATOM     14  C   UNL     1       0.002  -0.004   0.002  0.00  0.00    -0.020 A 
ENDBRANCH   1  14
BRANCH   8  15
ATOM     15  C   UNL     1      -0.578  -3.089  -4.226  0.00  0.00    +0.087 A 
ATOM     16  C   UNL     1      -0.455  -4.173  -5.088  0.00  0.00    +0.092 A 
ATOM     17  C   UNL     1      -0.196  -3.865  -6.478  0.00  0.00    +0.024 A 
ATOM     18  C   UNL     1      -0.104  -2.559  -6.782  0.00  0.00    +0.048 A 
ATOM     19  S   UNL     1      -0.369  -1.752  -5.218  0.00  0.00    -0.081 S 
BRANCH  16  20
ATOM     20  C   UNL     1      -0.575  -5.509  -4.629  0.00  0.00    +0.389 C 
ATOM     21  O   UNL     1      -0.461  -6.440  -5.417  0.00  0.00    -0.241 OA
ATOM     22  O   UNL     1      -0.794  -5.733  -3.445  0.00  0.00    -0.241 OA
ENDBRANCH  16  20
ENDBRANCH   8  15
TORSDOF 3
