REMARK  Name = ZINC20103760
REMARK  14 active torsions:
REMARK  status: ('A' for Active; 'I' for Inactive)
REMARK    1  A    between atoms: C_1  and  C_2
REMARK    2  A    between atoms: C_2  and  C_4
REMARK    3  A    between atoms: C_2  and  O_26
REMARK    4  A    between atoms: C_7  and  S_13
REMARK    5  A    between atoms: N_8  and  C_9
REMARK    6  A    between atoms: C_9  and  C_10
REMARK    7  A    between atoms: C_10  and  C_11
REMARK    8  A    between atoms: C_10  and  C_12
REMARK    9  A    between atoms: S_13  and  C_14
REMARK   10  A    between atoms: C_14  and  C_15
REMARK   11  A    between atoms: C_21  and  C_23
REMARK   12  A    between atoms: C_23  and  C_24
REMARK   13  A    between atoms: C_23  and  C_25
REMARK   14  A    between atoms: O_26  and  C_27
REMARK                            x       y       z     vdW  Elec       q    Type
REMARK                         _______ _______ _______ _____ _____    ______ ____
ROOT
ATOM      1  C   UNL     1       0.694  -0.732   1.263  0.00  0.00    +0.175 A 
ATOM      2  N   UNL     1       0.228  -0.574   2.470  0.00  0.00    -0.130 NA
ATOM      3  N   UNL     1       1.013  -1.130   3.322  0.00  0.00    -0.122 NA
ATOM      4  C   UNL     1       2.031  -1.678   2.700  0.00  0.00    +0.192 A 
ATOM      5  N   UNL     1       1.856  -1.446   1.365  0.00  0.00    -0.303 N 
ENDROOT
BRANCH   1   7
ATOM      6  C   UNL     1       0.291   1.280  -0.129  0.00  0.00    +0.060 C 
ATOM      7  C   UNL     1       0.065  -0.228  -0.010  0.00  0.00    +0.238 C 
BRANCH   7   8
ATOM      8  O   UNL     1      -1.339  -0.499   0.012  0.00  0.00    -0.480 OA
BRANCH   8   9
ATOM      9  C   UNL     1      -1.966  -0.607  -1.189  0.00  0.00    +0.140 A 
ATOM     10  C   UNL     1      -1.272  -0.344  -2.361  0.00  0.00    +0.047 A 
ATOM     11  C   UNL     1      -1.911  -0.455  -3.581  0.00  0.00    +0.004 A 
ATOM     12  C   UNL     1      -3.242  -0.827  -3.634  0.00  0.00    +0.002 A 
ATOM     13  C   UNL     1      -3.936  -1.090  -2.468  0.00  0.00    +0.023 A 
ATOM     14  C   UNL     1      -3.300  -0.986  -1.245  0.00  0.00    +0.083 A 
ATOM     15 CL   UNL     1      -4.170  -1.323   0.218  0.00  0.00    -0.080 Cl
ENDBRANCH   8   9
ENDBRANCH   7   8
ENDBRANCH   1   7
BRANCH   5  16
ATOM     16  C   UNL     1       2.733  -1.870   0.271  0.00  0.00    +0.128 C 
BRANCH  16  17
ATOM     17  C   UNL     1       3.783  -0.787   0.010  0.00  0.00    +0.003 C 
ATOM     18  C   UNL     1       4.694  -0.656   1.232  0.00  0.00    +0.009 C 
ATOM     19  C   UNL     1       4.619  -1.173  -1.211  0.00  0.00    +0.009 C 
ENDBRANCH  16  17
ENDBRANCH   5  16
BRANCH   4  20
ATOM     20  S   UNL     1       3.366  -2.553   3.444  0.00  0.00    -0.077 S 
BRANCH  20  21
ATOM     21  C   UNL     1       2.988  -2.505   5.218  0.00  0.00    +0.173 C 
BRANCH  21  22
ATOM     22  C   UNL     1       4.067  -3.228   5.982  0.00  0.00    +0.229 C 
ATOM     23  O   UNL     1       4.999  -3.728   5.388  0.00  0.00    -0.275 OA
ATOM     24  N   UNL     1       3.996  -3.321   7.324  0.00  0.00    -0.263 N 
ATOM     25  C   UNL     1       4.992  -3.988   8.029  0.00  0.00    +0.188 A 
ATOM     26  N   UNL     1       6.075  -4.585   7.573  0.00  0.00    -0.126 NA
ATOM     27  N   UNL     1       6.897  -5.157   8.345  0.00  0.00    -0.144 NA
ATOM     28  C   UNL     1       6.666  -5.156   9.642  0.00  0.00    +0.106 A 
ATOM     29  S   UNL     1       5.132  -4.239   9.690  0.00  0.00    -0.035 S 
ATOM     30  H   UNL     1       3.250  -2.921   7.799  0.00  0.00    +0.157 HD
BRANCH  28  31
ATOM     31  C   UNL     1       7.470  -5.755  10.767  0.00  0.00    +0.040 C 
ATOM     32  C   UNL     1       7.593  -7.265  10.559  0.00  0.00    +0.014 C 
ATOM     33  C   UNL     1       8.865  -5.127  10.787  0.00  0.00    +0.014 C 
ENDBRANCH  28  31
ENDBRANCH  21  22
ENDBRANCH  20  21
ENDBRANCH   4  20
TORSDOF 9
