REMARK  Name = ZINC06321003
REMARK  4 active torsions:
REMARK  status: ('A' for Active; 'I' for Inactive)
REMARK    1  A    between atoms: C_3  and  O_21
REMARK    2  A    between atoms: C_4  and  O_20
REMARK    3  A    between atoms: C_6  and  C_7
REMARK    4  A    between atoms: C_14  and  O_18
REMARK                            x       y       z     vdW  Elec       q    Type
REMARK                         _______ _______ _______ _____ _____    ______ ____
ROOT
ATOM      1  C   UNL     1      -2.518   3.864   0.045  0.00  0.00    +0.015 C 
ATOM      2  C   UNL     1      -2.837   4.618  -1.026  0.00  0.00    +0.230 C 
ATOM      3  C   UNL     1      -4.121   5.331  -1.059  0.00  0.00    +0.233 C 
ATOM      4  O   UNL     1      -4.316   6.239  -1.847  0.00  0.00    -0.283 OA
ATOM      5  C   UNL     1      -5.167   4.910  -0.103  0.00  0.00    +0.029 A 
ATOM      6  C   UNL     1      -6.495   5.295  -0.303  0.00  0.00    +0.015 A 
ATOM      7  C   UNL     1      -7.465   4.894   0.588  0.00  0.00    +0.046 A 
ATOM      8  C   UNL     1      -7.119   4.105   1.679  0.00  0.00    +0.117 A 
ATOM      9  C   UNL     1      -5.799   3.724   1.880  0.00  0.00    +0.050 A 
ATOM     10  C   UNL     1      -4.816   4.125   0.996  0.00  0.00    -0.029 A 
ATOM     11  C   UNL     1      -3.396   3.712   1.244  0.00  0.00    +0.075 C 
ATOM     12  O   UNL     1      -1.974   4.717  -2.072  0.00  0.00    -0.283 OA
ENDROOT
BRANCH   1  18
ATOM     13  C   UNL     1      -1.216   1.747   0.017  0.00  0.00    +0.012 A 
ATOM     14  C   UNL     1      -0.013   1.076   0.008  0.00  0.00    +0.050 A 
ATOM     15  C   UNL     1       1.181   1.784   0.000  0.00  0.00    +0.158 A 
ATOM     16  C   UNL     1       1.169   3.179   0.007  0.00  0.00    +0.159 A 
ATOM     17  C   UNL     1      -0.032   3.860   0.022  0.00  0.00    +0.057 A 
ATOM     18  C   UNL     1      -1.237   3.146   0.030  0.00  0.00    -0.014 A 
BRANCH  16  19
ATOM     19  O   UNL     1       2.341   3.869  -0.000  0.00  0.00    -0.503 OA
ATOM     20  H   UNL     1       2.332   4.968   0.005  0.00  0.00    +0.292 HD
ENDBRANCH  16  19
BRANCH  15  21
ATOM     21  O   UNL     1       2.364   1.117  -0.014  0.00  0.00    -0.503 OA
ATOM     22  H   UNL     1       3.311   1.677  -0.020  0.00  0.00    +0.292 HD
ENDBRANCH  15  21
ENDBRANCH   1  18
BRANCH   8  23
ATOM     23  O   UNL     1      -8.077   3.707   2.554  0.00  0.00    -0.507 OA
ATOM     24  H   UNL     1      -7.806   3.083   3.419  0.00  0.00    +0.292 HD
ENDBRANCH   8  23
TORSDOF 4
