REMARK  Name = ZINC33077789
REMARK  12 active torsions:
REMARK  status: ('A' for Active; 'I' for Inactive)
REMARK    1  A    between atoms: C_1  and  O_2
REMARK    2  A    between atoms: O_2  and  C_3
REMARK    3  A    between atoms: C_3  and  C_4
REMARK    4  A    between atoms: C_4  and  N_5
REMARK    5  A    between atoms: C_6  and  C_8
REMARK    6  A    between atoms: C_15  and  S_27
REMARK    7  A    between atoms: N_16  and  C_19
REMARK    8  A    between atoms: C_23  and  O_25
REMARK    9  A    between atoms: O_25  and  C_26
REMARK   10  A    between atoms: S_27  and  C_28
REMARK   11  A    between atoms: C_28  and  C_29
REMARK   12  A    between atoms: C_32  and  C_35
REMARK                            x       y       z     vdW  Elec       q    Type
REMARK                         _______ _______ _______ _____ _____    ______ ____
ROOT
ATOM      1  C   UNL     1      -2.498   0.940   0.411  0.00  0.00    +0.039 A 
ATOM      2  C   UNL     1      -2.523  -0.362   0.925  0.00  0.00    +0.014 A 
ATOM      3  C   UNL     1      -3.691  -1.069   0.972  0.00  0.00    +0.016 A 
ATOM      4  C   UNL     1      -4.869  -0.496   0.492  0.00  0.00    +0.065 A 
ATOM      5  C   UNL     1      -4.859   0.816  -0.035  0.00  0.00    +0.080 A 
ATOM      6  C   UNL     1      -3.659   1.530  -0.071  0.00  0.00    +0.041 A 
ATOM      7  N   UNL     1      -6.014   1.351  -0.494  0.00  0.00    -0.223 NA
ATOM      8  C   UNL     1      -7.141   0.683  -0.462  0.00  0.00    +0.177 A 
ATOM      9  N   UNL     1      -7.239  -0.589   0.031  0.00  0.00    -0.255 N 
ATOM     10  C   UNL     1      -6.147  -1.224   0.517  0.00  0.00    +0.267 A 
ATOM     11  O   UNL     1      -6.220  -2.356   0.958  0.00  0.00    -0.267 OA
ENDROOT
BRANCH   9  12
ATOM     12  C   UNL     1      -8.479  -1.240   0.032  0.00  0.00    +0.055 A 
ATOM     13  C   UNL     1      -8.866  -2.002  -1.063  0.00  0.00    +0.026 A 
ATOM     14  C   UNL     1     -10.086  -2.649  -1.059  0.00  0.00    +0.006 A 
ATOM     15  C   UNL     1     -10.931  -2.530   0.029  0.00  0.00    +0.046 A 
ATOM     16  C   UNL     1     -10.552  -1.766   1.123  0.00  0.00    +0.122 A 
ATOM     17  C   UNL     1      -9.325  -1.120   1.125  0.00  0.00    +0.072 A 
BRANCH  16  18
ATOM     18  O   UNL     1     -11.383  -1.649   2.192  0.00  0.00    -0.495 OA
ATOM     19  C   UNL     1     -12.631  -2.342   2.121  0.00  0.00    +0.277 C 
ENDBRANCH  16  18
ENDBRANCH   9  12
BRANCH   1  21
ATOM     20  N   UNL     1      -0.093   1.123   0.843  0.00  0.00    -0.309 N 
ATOM     21  C   UNL     1      -1.222   1.691   0.376  0.00  0.00    +0.244 C 
ATOM     22  O   UNL     1      -1.194   2.820  -0.074  0.00  0.00    -0.270 OA
ATOM     23  H   UNL     1      -0.119   0.103   1.254  0.00  0.00    +0.149 HD
BRANCH  20  24
ATOM     24  C   UNL     1       1.171   1.864   0.802  0.00  0.00    +0.132 C 
BRANCH  24  25
ATOM     25  C   UNL     1       2.290   0.996   1.381  0.00  0.00    +0.178 C 
BRANCH  25  27
ATOM     26  C   UNL     1       3.522  -1.024   0.996  0.00  0.00    +0.194 C 
ATOM     27  O   UNL     1       2.492  -0.143   0.542  0.00  0.00    -0.381 OA
ENDBRANCH  25  27
ENDBRANCH  24  25
ENDBRANCH  20  24
ENDBRANCH   1  21
BRANCH   8  28
ATOM     28  S   UNL     1      -8.597   1.459  -1.080  0.00  0.00    -0.083 S 
BRANCH  28  29
ATOM     29  C   UNL     1      -7.912   3.058  -1.581  0.00  0.00    +0.112 C 
BRANCH  29  30
ATOM     30  C   UNL     1      -9.008   3.916  -2.157  0.00  0.00    -0.037 A 
ATOM     31  C   UNL     1      -9.276   3.872  -3.514  0.00  0.00    +0.005 A 
ATOM     32  C   UNL     1     -10.283   4.651  -4.047  0.00  0.00    +0.008 A 
ATOM     33  C   UNL     1     -11.024   5.492  -3.216  0.00  0.00    -0.026 A 
ATOM     34  C   UNL     1     -10.745   5.536  -1.849  0.00  0.00    +0.008 A 
ATOM     35  C   UNL     1      -9.739   4.748  -1.328  0.00  0.00    +0.005 A 
BRANCH  33  36
ATOM     36  C   UNL     1     -12.100   6.333  -3.781  0.00  0.00    +0.000 C 
ATOM     37  C   UNL     1     -12.363   6.289  -5.080  0.00  0.00    +0.009 C 
ENDBRANCH  33  36
ENDBRANCH  29  30
ENDBRANCH  28  29
ENDBRANCH   8  28
TORSDOF 10
