REMARK  Name = ZINC36051140
REMARK  10 active torsions:
REMARK  status: ('A' for Active; 'I' for Inactive)
REMARK    1  A    between atoms: C_1  and  C_2
REMARK    2  A    between atoms: C_5  and  N_8
REMARK    3  A    between atoms: C_10  and  C_32
REMARK    4  A    between atoms: C_14  and  C_16
REMARK    5  A    between atoms: C_16  and  N_17
REMARK    6  A    between atoms: N_17  and  C_18
REMARK    7  A    between atoms: C_18  and  C_19
REMARK    8  A    between atoms: C_25  and  C_27
REMARK    9  A    between atoms: C_35  and  O_38
REMARK   10  A    between atoms: O_38  and  C_39
REMARK                            x       y       z     vdW  Elec       q    Type
REMARK                         _______ _______ _______ _____ _____    ______ ____
ROOT
ATOM      1  N   UNL     1      -0.267  -4.082   0.480  0.00  0.00    -0.287 N 
ATOM      2  C   UNL     1      -1.253  -4.885  -0.043  0.00  0.00    +0.122 A 
ATOM      3  C   UNL     1      -0.940  -6.161   0.294  0.00  0.00    +0.091 A 
ATOM      4  N   UNL     1       0.208  -6.136   1.004  0.00  0.00    -0.214 NA
ATOM      5  C   UNL     1       0.621  -4.898   1.116  0.00  0.00    +0.207 A 
ATOM      6  N   UNL     1       1.770  -4.485   1.777  0.00  0.00    -0.254 N 
ATOM      7  C   UNL     1       2.570  -5.393   2.370  0.00  0.00    +0.237 C 
ATOM      8  O   UNL     1       2.286  -6.572   2.326  0.00  0.00    -0.274 OA
ATOM      9  H   UNL     1       1.997  -3.543   1.812  0.00  0.00    +0.158 HD
ENDROOT
BRANCH   1  14
ATOM     10  C   UNL     1       0.058   1.567   0.050  0.00  0.00    +0.044 C 
ATOM     11  C   UNL     1      -0.028   0.067   0.164  0.00  0.00    -0.050 A 
ATOM     12  C   UNL     1      -0.245  -0.699  -0.966  0.00  0.00    +0.005 A 
ATOM     13  C   UNL     1      -0.324  -2.075  -0.865  0.00  0.00    +0.026 A 
ATOM     14  C   UNL     1      -0.186  -2.687   0.374  0.00  0.00    +0.049 A 
ATOM     15  C   UNL     1       0.031  -1.915   1.507  0.00  0.00    +0.026 A 
ATOM     16  C   UNL     1       0.115  -0.540   1.398  0.00  0.00    +0.005 A 
ENDBRANCH   1  14
BRANCH   3  17
ATOM     17  C   UNL     1      -1.722  -7.372  -0.057  0.00  0.00    +0.002 A 
ATOM     18  C   UNL     1      -2.893  -7.255  -0.805  0.00  0.00    +0.013 A 
ATOM     19  C   UNL     1      -3.618  -8.383  -1.129  0.00  0.00    +0.046 A 
ATOM     20  C   UNL     1      -3.183  -9.633  -0.712  0.00  0.00    +0.120 A 
ATOM     21  C   UNL     1      -2.017  -9.753   0.033  0.00  0.00    +0.046 A 
ATOM     22  C   UNL     1      -1.285  -8.630   0.355  0.00  0.00    +0.013 A 
BRANCH  20  23
ATOM     23  O   UNL     1      -3.900 -10.742  -1.033  0.00  0.00    -0.495 OA
ATOM     24  C   UNL     1      -3.394 -11.997  -0.572  0.00  0.00    +0.277 C 
ENDBRANCH  20  23
ENDBRANCH   3  17
BRANCH   7  25
ATOM     25  C   UNL     1       3.817  -4.945   3.087  0.00  0.00    +0.204 C 
BRANCH  25  26
ATOM     26  N   UNL     1       4.508  -6.111   3.641  0.00  0.00    -0.282 N 
ATOM     27  C   UNL     1       4.143  -6.603   4.842  0.00  0.00    +0.283 C 
ATOM     28  O   UNL     1       4.777  -7.511   5.346  0.00  0.00    -0.267 OA
BRANCH  27  29
ATOM     29  C   UNL     1       2.982  -6.043   5.541  0.00  0.00    +0.189 A 
ATOM     30  C   UNL     1       2.571  -6.369   6.802  0.00  0.00    +0.054 A 
ATOM     31  C   UNL     1       1.428  -5.598   7.066  0.00  0.00    +0.042 A 
ATOM     32  C   UNL     1       1.195  -4.845   5.968  0.00  0.00    +0.196 A 
ATOM     33  O   UNL     1       2.136  -5.112   5.054  0.00  0.00    -0.458 OA
ENDBRANCH  27  29
BRANCH  26  34
ATOM     34  C   UNL     1       5.596  -6.744   2.890  0.00  0.00    +0.143 C 
BRANCH  34  35
ATOM     35  C   UNL     1       6.906  -6.103   3.269  0.00  0.00    -0.030 A 
ATOM     36  C   UNL     1       7.366  -5.004   2.569  0.00  0.00    +0.005 A 
ATOM     37  C   UNL     1       8.568  -4.416   2.916  0.00  0.00    +0.000 A 
ATOM     38  C   UNL     1       9.310  -4.928   3.964  0.00  0.00    +0.000 A 
ATOM     39  C   UNL     1       8.850  -6.027   4.665  0.00  0.00    +0.000 A 
ATOM     40  C   UNL     1       7.646  -6.612   4.320  0.00  0.00    +0.005 A 
ENDBRANCH  34  35
ENDBRANCH  26  34
ENDBRANCH  25  26
ENDBRANCH   7  25
TORSDOF 8
