REMARK  Name = ZINC45338211
REMARK  3 active torsions:
REMARK  status: ('A' for Active; 'I' for Inactive)
REMARK    1  A    between atoms: C_3  and  C_10
REMARK    2  A    between atoms: C_12  and  C_17
REMARK    3  A    between atoms: C_20  and  C_23
REMARK                            x       y       z     vdW  Elec       q    Type
REMARK                         _______ _______ _______ _____ _____    ______ ____
ROOT
ATOM      1  C   UNL     1       3.657   2.180  -0.022  0.00  0.00    +0.005 A 
ATOM      2  C   UNL     1       3.854   3.216  -0.938  0.00  0.00    +0.022 A 
ATOM      3  C   UNL     1       5.066   3.904  -0.907  0.00  0.00    +0.022 A 
ATOM      4  C   UNL     1       6.035   3.531   0.037  0.00  0.00    +0.124 A 
ATOM      5  N   UNL     1       5.805   2.542   0.886  0.00  0.00    -0.240 NA
ATOM      6  C   UNL     1       4.668   1.875   0.888  0.00  0.00    +0.121 A 
ATOM      7  N   UNL     1       7.246   4.205   0.081  0.00  0.00    -0.343 N 
ATOM      8  H   UNL     1       7.419   4.931  -0.539  0.00  0.00    +0.144 HD
ATOM      9  H   UNL     1       7.919   3.951   0.731  0.00  0.00    +0.144 HD
ENDROOT
BRANCH   1  12
ATOM     10  C   UNL     1      -0.017   1.379   0.010  0.00  0.00    +0.004 A 
ATOM     11  C   UNL     1       1.166   2.091   0.002  0.00  0.00    +0.012 A 
ATOM     12  C   UNL     1       2.385   1.417  -0.013  0.00  0.00    +0.029 A 
ATOM     13  C   UNL     1       2.406   0.021  -0.021  0.00  0.00    +0.174 A 
ATOM     14  C   UNL     1       1.209  -0.687  -0.013  0.00  0.00    +0.167 A 
ATOM     15  C   UNL     1       0.002  -0.004   0.002  0.00  0.00    +0.049 A 
ATOM     16  O   UNL     1       1.491  -2.023  -0.024  0.00  0.00    -0.453 OA
ATOM     17  C   UNL     1       2.863  -2.122  -0.449  0.00  0.00    +0.466 C 
ATOM     18  O   UNL     1       3.440  -0.869  -0.036  0.00  0.00    -0.452 OA
ENDBRANCH   1  12
BRANCH   3  19
ATOM     19  C   UNL     1       5.327   5.011  -1.856  0.00  0.00    -0.015 A 
ATOM     20  C   UNL     1       5.098   4.828  -3.221  0.00  0.00    +0.009 A 
ATOM     21  C   UNL     1       5.340   5.856  -4.103  0.00  0.00    +0.013 A 
ATOM     22  C   UNL     1       5.815   7.083  -3.633  0.00  0.00    +0.037 A 
ATOM     23  C   UNL     1       6.044   7.265  -2.266  0.00  0.00    +0.013 A 
ATOM     24  C   UNL     1       5.796   6.238  -1.384  0.00  0.00    +0.009 A 
BRANCH  22  25
ATOM     25  C   UNL     1       6.076   8.186  -4.579  0.00  0.00    +0.242 C 
ATOM     26  O   UNL     1       5.878   8.027  -5.768  0.00  0.00    -0.270 OA
ATOM     27  N   UNL     1       6.534   9.369  -4.125  0.00  0.00    -0.325 N 
ATOM     28  H   UNL     1       6.692   9.496  -3.176  0.00  0.00    +0.145 HD
ATOM     29  H   UNL     1       6.705  10.094  -4.746  0.00  0.00    +0.145 HD
ENDBRANCH  22  25
ENDBRANCH   3  19
TORSDOF 3
