REMARK  Name = ZINC41681801
REMARK  12 active torsions:
REMARK  status: ('A' for Active; 'I' for Inactive)
REMARK    1  A    between atoms: C_1  and  C_2
REMARK    2  A    between atoms: C_2  and  N_3
REMARK    3  A    between atoms: N_3  and  C_4
REMARK    4  A    between atoms: N_3  and  C_6
REMARK    5  A    between atoms: C_4  and  C_5
REMARK    6  A    between atoms: C_6  and  C_7
REMARK    7  A    between atoms: C_7  and  C_9
REMARK    8  A    between atoms: C_7  and  N_10
REMARK    9  A    between atoms: N_10  and  S_11
REMARK   10  A    between atoms: S_11  and  C_14
REMARK   11  A    between atoms: C_19  and  N_20
REMARK   12  A    between atoms: N_20  and  N_21
REMARK                            x       y       z     vdW  Elec       q    Type
REMARK                         _______ _______ _______ _____ _____    ______ ____
ROOT
ATOM      1  S   UNL     1      -0.648  -0.859   3.678  0.00  0.00    +0.062 S 
ATOM      2  O   UNL     1      -1.348  -0.264   4.762  0.00  0.00    -0.153 OA
ATOM      3  O   UNL     1       0.127  -2.041   3.829  0.00  0.00    -0.153 OA
ENDROOT
BRANCH   1   4
ATOM      4  C   UNL     1       0.436   0.376   3.041  0.00  0.00    +0.147 A 
ATOM      5  C   UNL     1       1.770   0.088   2.815  0.00  0.00    +0.048 A 
ATOM      6  C   UNL     1       2.588   1.092   2.311  0.00  0.00    +0.038 A 
ATOM      7  C   UNL     1       2.049   2.338   2.054  0.00  0.00    +0.128 A 
ATOM      8  N   UNL     1       0.772   2.583   2.280  0.00  0.00    -0.236 NA
ATOM      9  C   UNL     1      -0.040   1.651   2.753  0.00  0.00    +0.159 A 
ATOM     10 BR   UNL     1       4.420   0.757   1.983  0.00  0.00    -0.049 Br
BRANCH   9  11
ATOM     11  N   UNL     1      -1.381   1.951   2.970  0.00  0.00    -0.266 N 
ATOM     12  H   UNL     1      -1.966   1.291   3.373  0.00  0.00    +0.167 HD
BRANCH  11  13
ATOM     13  N   UNL     1      -1.872   3.175   2.616  0.00  0.00    -0.255 NA
ATOM     14  H   UNL     1      -1.703   3.364   1.639  0.00  0.00    +0.140 HD
ATOM     15  H   UNL     1      -2.855   3.246   2.833  0.00  0.00    +0.140 HD
ENDBRANCH  11  13
ENDBRANCH   9  11
ENDBRANCH   1   4
BRANCH   1  16
ATOM     16  N   UNL     1      -1.772  -1.176   2.505  0.00  0.00    -0.189 NA
ATOM     17  H   UNL     1      -2.705  -0.955   2.655  0.00  0.00    +0.148 HD
BRANCH  16  18
ATOM     18  C   UNL     1      -1.359  -1.791   1.241  0.00  0.00    +0.057 C 
ATOM     19  C   UNL     1      -1.513  -3.310   1.338  0.00  0.00    +0.024 C 
BRANCH  18  20
ATOM     20  C   UNL     1      -2.237  -1.261   0.105  0.00  0.00    -0.059 C 
BRANCH  20  21
ATOM     21  N   UNL     1      -2.140   0.204   0.055  0.00  0.00    +0.380 N 
ATOM     22  H   UNL     1      -2.357   0.587   0.963  0.00  0.00    -0.082 HD
BRANCH  21  24
ATOM     23  C   UNL     1      -0.470   0.064  -1.731  0.00  0.00    -0.017 C 
ATOM     24  C   UNL     1      -0.776   0.592  -0.328  0.00  0.00    -0.082 C 
ENDBRANCH  21  24
BRANCH  21  25
ATOM     25  C   UNL     1      -3.093   0.723  -0.935  0.00  0.00    -0.082 C 
ATOM     26  C   UNL     1      -3.078   2.253  -0.904  0.00  0.00    -0.017 C 
ENDBRANCH  21  25
ENDBRANCH  20  21
ENDBRANCH  18  20
ENDBRANCH  16  18
ENDBRANCH   1  16
TORSDOF 9
