REMARK  Name = ZINC40728868
REMARK  6 active torsions:
REMARK  status: ('A' for Active; 'I' for Inactive)
REMARK    1  A    between atoms: C_4  and  C_7
REMARK    2  A    between atoms: C_7  and  N_8
REMARK    3  A    between atoms: C_15  and  N_29
REMARK    4  A    between atoms: C_16  and  N_20
REMARK    5  A    between atoms: N_20  and  N_21
REMARK    6  A    between atoms: C_22  and  C_24
REMARK                            x       y       z     vdW  Elec       q    Type
REMARK                         _______ _______ _______ _____ _____    ______ ____
ROOT
ATOM      1  N   UNL     1       4.232  -0.949   1.313  0.00  0.00    +0.384 N 
ATOM      2  C   UNL     1       3.261  -1.823   1.984  0.00  0.00    -0.059 C 
ATOM      3  C   UNL     1       3.655  -1.986   3.456  0.00  0.00    +0.088 C 
ATOM      4  N   UNL     1       5.045  -2.463   3.517  0.00  0.00    -0.317 N 
ATOM      5  C   UNL     1       6.061  -1.738   2.738  0.00  0.00    +0.088 C 
ATOM      6  C   UNL     1       5.554  -1.587   1.300  0.00  0.00    -0.059 C 
ATOM      7  C   UNL     1       5.389  -3.566   4.289  0.00  0.00    +0.147 A 
ATOM      8  C   UNL     1       5.842  -3.401   5.599  0.00  0.00    +0.107 A 
ATOM      9  C   UNL     1       6.174  -4.543   6.331  0.00  0.00    +0.161 A 
ATOM     10  N   UNL     1       6.046  -5.736   5.756  0.00  0.00    -0.217 NA
ATOM     11  C   UNL     1       5.614  -5.848   4.516  0.00  0.00    +0.225 A 
ATOM     12  N   UNL     1       5.286  -4.797   3.793  0.00  0.00    -0.219 NA
ATOM     13  H   UNL     1       4.288  -0.071   1.807  0.00  0.00    -0.081 HD
ENDROOT
BRANCH   8  14
ATOM     14  N   UNL     1       5.962  -2.121   6.165  0.00  0.00    -0.353 N 
ATOM     15  H   UNL     1       5.645  -1.344   5.679  0.00  0.00    +0.143 HD
ATOM     16  H   UNL     1       6.362  -2.014   7.043  0.00  0.00    +0.143 HD
ENDBRANCH   8  14
BRANCH   9  17
ATOM     17  N   UNL     1       6.631  -4.434   7.639  0.00  0.00    -0.246 N 
ATOM     18  H   UNL     1       6.721  -3.561   8.050  0.00  0.00    +0.172 HD
BRANCH  17  19
ATOM     19  N   UNL     1       6.960  -5.587   8.363  0.00  0.00    -0.229 N 
ATOM     20  C   UNL     1       7.403  -5.482   9.632  0.00  0.00    +0.295 C 
ATOM     21  O   UNL     1       7.517  -4.386  10.148  0.00  0.00    -0.265 OA
ATOM     22  H   UNL     1       6.870  -6.461   7.952  0.00  0.00    +0.173 HD
BRANCH  20  23
ATOM     23  C   UNL     1       7.748  -6.689  10.390  0.00  0.00    +0.190 A 
ATOM     24  C   UNL     1       8.201  -6.726  11.678  0.00  0.00    +0.054 A 
ATOM     25  C   UNL     1       8.402  -8.078  11.997  0.00  0.00    +0.042 A 
ATOM     26  C   UNL     1       8.068  -8.798  10.904  0.00  0.00    +0.196 A 
ATOM     27  O   UNL     1       7.668  -7.958   9.940  0.00  0.00    -0.458 OA
ENDBRANCH  20  23
ENDBRANCH  17  19
ENDBRANCH   9  17
BRANCH   1  28
ATOM     28  C   UNL     1       3.795  -0.705  -0.068  0.00  0.00    -0.043 C 
BRANCH  28  32
ATOM     29  C   UNL     1       0.113   1.461  -0.037  0.00  0.00    +0.000 A 
ATOM     30  C   UNL     1       1.316   2.142  -0.050  0.00  0.00    +0.000 A 
ATOM     31  C   UNL     1       2.507   1.441  -0.060  0.00  0.00    +0.002 A 
ATOM     32  C   UNL     1       2.496   0.059  -0.056  0.00  0.00    -0.064 A 
ATOM     33  C   UNL     1       1.294  -0.622  -0.042  0.00  0.00    +0.002 A 
ATOM     34  C   UNL     1       0.102   0.078  -0.034  0.00  0.00    +0.000 A 
ENDBRANCH  28  32
ENDBRANCH   1  28
TORSDOF 6
