REMARK  Name = ZINC35528205
REMARK  6 active torsions:
REMARK  status: ('A' for Active; 'I' for Inactive)
REMARK    1  A    between atoms: C_1  and  C_2
REMARK    2  A    between atoms: C_8  and  N_10
REMARK    3  A    between atoms: C_11  and  C_13
REMARK    4  A    between atoms: C_13  and  C_36
REMARK    5  A    between atoms: N_25  and  C_26
REMARK    6  A    between atoms: C_26  and  C_27
REMARK                            x       y       z     vdW  Elec       q    Type
REMARK                         _______ _______ _______ _____ _____    ______ ____
ROOT
ATOM      1  C   UNL     1       0.052   0.812   4.615  0.00  0.00    +0.129 C 
ATOM      2  C   UNL     1       1.214   0.622   5.590  0.00  0.00    +0.157 C 
ATOM      3  N   UNL     1       1.266  -0.782   6.006  0.00  0.00    -0.333 N 
ATOM      4  C   UNL     1       2.360  -1.531   6.398  0.00  0.00    +0.057 A 
ATOM      5  C   UNL     1       3.744  -1.376   6.560  0.00  0.00    +0.034 A 
ATOM      6  C   UNL     1       4.498  -2.409   6.990  0.00  0.00    +0.048 A 
ATOM      7  S   UNL     1       3.293  -3.709   7.204  0.00  0.00    -0.095 S 
ATOM      8  C   UNL     1       1.852  -2.802   6.707  0.00  0.00    +0.038 A 
ATOM      9  C   UNL     1       0.478  -2.817   6.499  0.00  0.00    +0.048 A 
ATOM     10  C   UNL     1       0.124  -1.574   6.061  0.00  0.00    +0.106 A 
ATOM     11  C   UNL     1      -1.184  -1.036   5.670  0.00  0.00    +0.264 C 
ATOM     12  O   UNL     1      -2.216  -1.650   5.867  0.00  0.00    -0.268 OA
ATOM     13  N   UNL     1      -1.179   0.182   5.077  0.00  0.00    -0.276 N 
ATOM     14  C   UNL     1      -0.198   2.311   4.433  0.00  0.00    +0.043 C 
ENDROOT
BRANCH   1  16
ATOM     15  N   UNL     1       0.213  -1.089   3.041  0.00  0.00    -0.310 N 
ATOM     16  C   UNL     1       0.433   0.218   3.283  0.00  0.00    +0.238 C 
ATOM     17  O   UNL     1       0.936   0.917   2.429  0.00  0.00    -0.273 OA
ATOM     18  H   UNL     1      -0.253  -1.632   3.696  0.00  0.00    +0.149 HD
BRANCH  15  25
ATOM     19  C   UNL     1      -1.590  -2.667   1.414  0.00  0.00    +0.009 C 
ATOM     20  C   UNL     1      -0.097  -2.982   1.524  0.00  0.00    +0.006 C 
ATOM     21  C   UNL     1       0.134  -3.962   2.676  0.00  0.00    +0.005 C 
ATOM     22  C   UNL     1       1.627  -4.277   2.787  0.00  0.00    +0.000 C 
ATOM     23  C   UNL     1       2.403  -2.985   3.051  0.00  0.00    +0.002 C 
ATOM     24  C   UNL     1       2.172  -2.006   1.899  0.00  0.00    +0.022 C 
ATOM     25  C   UNL     1       0.679  -1.690   1.789  0.00  0.00    +0.076 C 
ENDBRANCH  15  25
ENDBRANCH   1  16
BRANCH  13  26
ATOM     26  C   UNL     1      -2.449   0.887   4.895  0.00  0.00    +0.144 C 
BRANCH  26  27
ATOM     27  C   UNL     1      -3.111   0.411   3.627  0.00  0.00    -0.026 A 
ATOM     28  C   UNL     1      -2.776   0.987   2.416  0.00  0.00    +0.009 A 
ATOM     29  C   UNL     1      -3.379   0.554   1.250  0.00  0.00    +0.050 A 
ATOM     30  C   UNL     1      -4.323  -0.460   1.294  0.00  0.00    +0.166 A 
ATOM     31  C   UNL     1      -4.661  -1.040   2.514  0.00  0.00    +0.167 A 
ATOM     32  C   UNL     1      -4.048  -0.604   3.678  0.00  0.00    +0.054 A 
ATOM     33  O   UNL     1      -5.603  -2.003   2.293  0.00  0.00    -0.453 OA
ATOM     34  C   UNL     1      -6.135  -1.727   0.984  0.00  0.00    +0.466 C 
ATOM     35  O   UNL     1      -5.053  -1.059   0.309  0.00  0.00    -0.453 OA
ENDBRANCH  26  27
ENDBRANCH  13  26
TORSDOF 4
