REMARK  Name = ZINC64962570
REMARK  6 active torsions:
REMARK  status: ('A' for Active; 'I' for Inactive)
REMARK    1  A    between atoms: C_1  and  C_2
REMARK    2  A    between atoms: C_5  and  C_22
REMARK    3  A    between atoms: N_7  and  S_8
REMARK    4  A    between atoms: S_8  and  C_11
REMARK    5  A    between atoms: C_14  and  S_17
REMARK    6  A    between atoms: S_17  and  C_18
REMARK                            x       y       z     vdW  Elec       q    Type
REMARK                         _______ _______ _______ _____ _____    ______ ____
ROOT
ATOM      1  S   UNL     1       2.152  -1.298   1.043  0.00  0.00    +0.061 S 
ATOM      2  O   UNL     1       2.292  -2.098   2.209  0.00  0.00    -0.153 OA
ATOM      3  O   UNL     1       2.175  -1.850  -0.266  0.00  0.00    -0.153 OA
ENDROOT
BRANCH   1  10
ATOM      4  C   UNL     1      -0.019   1.526   0.010  0.00  0.00    +0.026 C 
ATOM      5  C   UNL     1       0.002  -0.004   0.002  0.00  0.00    +0.077 C 
ATOM      6  C   UNL     1      -1.434  -0.537   0.031  0.00  0.00    +0.021 C 
ATOM      7  C   UNL     1      -2.091  -0.151   1.358  0.00  0.00    +0.015 C 
ATOM      8  C   UNL     1      -1.316  -0.786   2.516  0.00  0.00    +0.090 C 
ATOM      9  C   UNL     1       0.121  -0.256   2.515  0.00  0.00    +0.122 C 
ATOM     10  N   UNL     1       0.712  -0.494   1.192  0.00  0.00    -0.173 NA
BRANCH   8  11
ATOM     11  C   UNL     1      -1.983  -0.432   3.820  0.00  0.00    +0.215 C 
ATOM     12  O   UNL     1      -1.369   0.181   4.668  0.00  0.00    -0.276 OA
ATOM     13  N   UNL     1      -3.260  -0.796   4.045  0.00  0.00    -0.329 N 
ATOM     14  H   UNL     1      -3.751  -1.287   3.367  0.00  0.00    +0.145 HD
ATOM     15  H   UNL     1      -3.689  -0.569   4.885  0.00  0.00    +0.145 HD
ENDBRANCH   8  11
ENDBRANCH   1  10
BRANCH   1  16
ATOM     16  C   UNL     1       3.433  -0.090   1.103  0.00  0.00    +0.106 A 
ATOM     17  C   UNL     1       3.874   0.506  -0.064  0.00  0.00    +0.029 A 
ATOM     18  C   UNL     1       4.878   1.453  -0.021  0.00  0.00    +0.017 A 
ATOM     19  C   UNL     1       5.445   1.807   1.198  0.00  0.00    +0.016 A 
ATOM     20  C   UNL     1       4.999   1.206   2.369  0.00  0.00    +0.017 A 
ATOM     21  C   UNL     1       3.991   0.264   2.318  0.00  0.00    +0.029 A 
BRANCH  19  22
ATOM     22  S   UNL     1       6.727   3.015   1.258  0.00  0.00    -0.016 S 
BRANCH  22  23
ATOM     23  C   UNL     1       7.134   3.135   3.022  0.00  0.00    +0.448 C 
ATOM     24  F   UNL     1       7.563   1.887   3.488  0.00  0.00    -0.160 F 
ATOM     25  F   UNL     1       8.154   4.076   3.202  0.00  0.00    -0.160 F 
ATOM     26  F   UNL     1       5.999   3.535   3.736  0.00  0.00    -0.160 F 
ENDBRANCH  22  23
ENDBRANCH  19  22
ENDBRANCH   1  16
TORSDOF 5
