REMARK  Name = ZINC29908920
REMARK  8 active torsions:
REMARK  status: ('A' for Active; 'I' for Inactive)
REMARK    1  A    between atoms: C_1  and  C_2
REMARK    2  A    between atoms: C_2  and  C_3
REMARK    3  A    between atoms: C_3  and  C_5
REMARK    4  A    between atoms: C_3  and  N_20
REMARK    5  A    between atoms: C_5  and  N_6
REMARK    6  A    between atoms: C_7  and  C_9
REMARK    7  A    between atoms: C_12  and  C_15
REMARK    8  A    between atoms: C_15  and  N_16
REMARK                            x       y       z     vdW  Elec       q    Type
REMARK                         _______ _______ _______ _____ _____    ______ ____
ROOT
ATOM      1  N   UNL     1       1.621   6.218  -1.188  0.00  0.00    -0.313 N 
ATOM      2  C   UNL     1       0.347   5.854  -1.433  0.00  0.00    +0.244 C 
ATOM      3  O   UNL     1      -0.207   5.053  -0.704  0.00  0.00    -0.270 OA
ATOM      4  H   UNL     1       2.123   6.942  -1.847  0.00  0.00    +0.149 HD
ENDROOT
BRANCH   2   5
ATOM      5  C   UNL     1      -0.378   6.428  -2.586  0.00  0.00    +0.037 A 
ATOM      6  C   UNL     1      -1.698   6.053  -2.842  0.00  0.00    +0.013 A 
ATOM      7  C   UNL     1      -2.368   6.592  -3.921  0.00  0.00    +0.006 A 
ATOM      8  C   UNL     1      -1.734   7.503  -4.748  0.00  0.00    -0.030 A 
ATOM      9  C   UNL     1      -0.426   7.879  -4.500  0.00  0.00    +0.006 A 
ATOM     10  C   UNL     1       0.256   7.346  -3.425  0.00  0.00    +0.013 A 
BRANCH   8  11
ATOM     11  C   UNL     1      -2.473   8.088  -5.924  0.00  0.00    +0.141 C 
BRANCH  11  12
ATOM     12  N   UNL     1      -3.161   9.313  -5.509  0.00  0.00    -0.295 N 
ATOM     13  C   UNL     1      -3.890  10.012  -6.402  0.00  0.00    +0.297 C 
ATOM     14  O   UNL     1      -3.976   9.625  -7.551  0.00  0.00    -0.253 OA
ATOM     15  N   UNL     1      -4.523  11.139  -6.020  0.00  0.00    -0.313 N 
ATOM     16  H   UNL     1      -3.082   9.662  -4.469  0.00  0.00    +0.151 HD
ATOM     17  H   UNL     1      -5.118  11.709  -6.748  0.00  0.00    +0.146 HD
ATOM     18  H   UNL     1      -4.444  11.488  -4.980  0.00  0.00    +0.146 HD
ENDBRANCH  11  12
ENDBRANCH   8  11
ENDBRANCH   2   5
BRANCH   1  19
ATOM     19  C   UNL     1       2.339   5.649  -0.045  0.00  0.00    +0.089 C 
BRANCH  19  20
ATOM     20  C   UNL     1       3.791   6.131  -0.062  0.00  0.00    -0.051 C 
BRANCH  20  21
ATOM     21  N   UNL     1       4.548   5.446   0.994  0.00  0.00    +0.385 N 
ATOM     22  C   UNL     1       4.747   4.026   0.663  0.00  0.00    -0.073 C 
ATOM     23  C   UNL     1       5.828   3.461   1.585  0.00  0.00    +0.017 C 
ATOM     24  C   UNL     1       5.511   3.800   3.018  0.00  0.00    -0.048 A 
ATOM     25  C   UNL     1       6.156   3.094   4.023  0.00  0.00    +0.004 A 
ATOM     26  C   UNL     1       5.900   3.379   5.350  0.00  0.00    +0.000 A 
ATOM     27  C   UNL     1       4.996   4.372   5.678  0.00  0.00    +0.000 A 
ATOM     28  C   UNL     1       4.351   5.073   4.679  0.00  0.00    +0.002 A 
ATOM     29  C   UNL     1       4.606   4.787   3.345  0.00  0.00    -0.061 A 
ATOM     30  C   UNL     1       3.875   5.576   2.291  0.00  0.00    -0.042 C 
ATOM     31  H   UNL     1       5.532   5.931   1.066  0.00  0.00    -0.081 HD
ENDBRANCH  20  21
BRANCH  20  33
ATOM     32  C   UNL     1       5.267   8.144   0.039  0.00  0.00    +0.002 C 
ATOM     33  C   UNL     1       3.829   7.641   0.180  0.00  0.00    -0.017 C 
ENDBRANCH  20  33
ENDBRANCH  19  20
ENDBRANCH   1  19
TORSDOF 7
