REMARK  Name = ZINC20872841
REMARK  8 active torsions:
REMARK  status: ('A' for Active; 'I' for Inactive)
REMARK    1  A    between atoms: C_9  and  O_25
REMARK    2  A    between atoms: C_10  and  C_11
REMARK    3  A    between atoms: C_11  and  N_12
REMARK    4  A    between atoms: N_12  and  C_13
REMARK    5  A    between atoms: C_13  and  C_14
REMARK    6  A    between atoms: C_14  and  C_15
REMARK    7  A    between atoms: O_25  and  C_26
REMARK    8  A    between atoms: C_26  and  C_27
REMARK                            x       y       z     vdW  Elec       q    Type
REMARK                         _______ _______ _______ _____ _____    ______ ____
ROOT
ATOM      1  C   UNL     1      -0.013   1.076   0.008  0.00  0.00    +0.001 A 
ATOM      2  C   UNL     1      -1.235   1.746   0.017  0.00  0.00    +0.001 A 
ATOM      3  C   UNL     1      -1.288   3.105   0.030  0.00  0.00    +0.009 A 
ATOM      4  C   UNL     1      -0.095   3.849   0.023  0.00  0.00    -0.013 A 
ATOM      5  C   UNL     1       1.148   3.167   0.008  0.00  0.00    -0.017 A 
ATOM      6  C   UNL     1       1.163   1.762   0.000  0.00  0.00    +0.008 A 
ATOM      7  C   UNL     1       2.342   3.909  -0.001  0.00  0.00    +0.012 A 
ATOM      8  C   UNL     1       2.292   5.268   0.006  0.00  0.00    +0.046 A 
ATOM      9  C   UNL     1       1.067   5.942   0.021  0.00  0.00    +0.123 A 
ATOM     10  C   UNL     1      -0.112   5.253   0.029  0.00  0.00    -0.015 A 
ENDROOT
BRANCH  10  11
ATOM     11  C   UNL     1      -1.423   5.995   0.046  0.00  0.00    -0.042 C 
BRANCH  11  12
ATOM     12  N   UNL     1      -1.836   6.230   1.436  0.00  0.00    +0.382 N 
ATOM     13  H   UNL     1      -1.954   5.265   1.951  0.00  0.00    -0.085 HD
ATOM     14  H   UNL     1      -1.069   6.828   1.950  0.00  0.00    -0.085 HD
BRANCH  12  15
ATOM     15  C   UNL     1      -3.113   6.953   1.491  0.00  0.00    -0.077 C 
BRANCH  15  16
ATOM     16  C   UNL     1      -3.509   7.178   2.952  0.00  0.00    +0.018 C 
BRANCH  16  17
ATOM     17  C   UNL     1      -4.820   7.920   3.009  0.00  0.00    -0.024 A 
ATOM     18  C   UNL     1      -4.982   9.246   3.138  0.00  0.00    +0.087 A 
ATOM     19  N   UNL     1      -6.315   9.554   3.149  0.00  0.00    -0.360 N 
ATOM     20  H   UNL     1      -6.636  10.602   3.242  0.00  0.00    +0.165 HD
ATOM     21  C   UNL     1      -7.062   8.404   3.033  0.00  0.00    +0.047 A 
ATOM     22  C   UNL     1      -6.159   7.329   2.940  0.00  0.00    +0.003 A 
ATOM     23  C   UNL     1      -6.638   6.025   2.811  0.00  0.00    +0.010 A 
ATOM     24  C   UNL     1      -7.986   5.798   2.776  0.00  0.00    +0.001 A 
ATOM     25  C   UNL     1      -8.881   6.854   2.868  0.00  0.00    +0.002 A 
ATOM     26  C   UNL     1      -8.429   8.150   2.995  0.00  0.00    +0.026 A 
ENDBRANCH  16  17
ENDBRANCH  15  16
ENDBRANCH  12  15
ENDBRANCH  11  12
ENDBRANCH  10  11
BRANCH   9  27
ATOM     27  O   UNL     1       1.050   7.301   0.027  0.00  0.00    -0.483 OA
BRANCH  27  28
ATOM     28  C   UNL     1       2.315   7.966   0.018  0.00  0.00    +0.324 C 
BRANCH  28  29
ATOM     29  C   UNL     1       2.098   9.457   0.027  0.00  0.00    +0.248 C 
ATOM     30  O   UNL     1       0.971   9.906   0.040  0.00  0.00    -0.272 OA
ATOM     31  N   UNL     1       3.156  10.292   0.021  0.00  0.00    -0.327 N 
ATOM     32  H   UNL     1       2.998  11.380   0.027  0.00  0.00    +0.145 HD
ATOM     33  H   UNL     1       4.178   9.885   0.009  0.00  0.00    +0.145 HD
ENDBRANCH  28  29
ENDBRANCH  27  28
ENDBRANCH   9  27
TORSDOF 8
