REMARK  Name = ZINC47747686
REMARK  6 active torsions:
REMARK  status: ('A' for Active; 'I' for Inactive)
REMARK    1  A    between atoms: C_1  and  C_2
REMARK    2  A    between atoms: C_2  and  C_4
REMARK    3  A    between atoms: C_2  and  N_17
REMARK    4  A    between atoms: C_7  and  N_10
REMARK    5  A    between atoms: N_13  and  C_14
REMARK    6  A    between atoms: N_20  and  C_21
REMARK                            x       y       z     vdW  Elec       q    Type
REMARK                         _______ _______ _______ _____ _____    ______ ____
ROOT
ATOM      1  C   UNL     1       0.374   1.463  -0.153  0.00  0.00    +0.033 C 
ATOM      2  C   UNL     1       0.453  -0.059  -0.017  0.00  0.00    +0.102 C 
ENDROOT
BRANCH   2   3
ATOM      3  C   UNL     1       1.116  -0.639  -1.240  0.00  0.00    -0.027 A 
ATOM      4  C   UNL     1       0.389  -0.808  -2.404  0.00  0.00    +0.007 A 
ATOM      5  C   UNL     1       0.993  -1.339  -3.527  0.00  0.00    +0.023 A 
ATOM      6  C   UNL     1       2.333  -1.703  -3.486  0.00  0.00    +0.035 A 
ATOM      7  C   UNL     1       3.060  -1.531  -2.316  0.00  0.00    +0.023 A 
ATOM      8  C   UNL     1       2.451  -0.995  -1.198  0.00  0.00    +0.007 A 
BRANCH   6   9
ATOM      9  N   UNL     1       2.948  -2.242  -4.621  0.00  0.00    -0.269 N 
ATOM     10  C   UNL     1       2.577  -1.828  -5.849  0.00  0.00    +0.304 C 
ATOM     11  O   UNL     1       1.776  -0.921  -5.969  0.00  0.00    -0.253 OA
ATOM     12  N   UNL     1       3.095  -2.419  -6.944  0.00  0.00    -0.296 N 
ATOM     13  H   UNL     1       3.642  -2.913  -4.525  0.00  0.00    +0.156 HD
ATOM     14  H   UNL     1       3.734  -3.142  -6.849  0.00  0.00    +0.151 HD
BRANCH  12  15
ATOM     15  C   UNL     1       2.691  -1.969  -8.279  0.00  0.00    +0.075 C 
ATOM     16  C   UNL     1       2.386  -3.044  -9.325  0.00  0.00    +0.024 C 
ATOM     17  C   UNL     1       3.667  -2.214  -9.432  0.00  0.00    +0.024 C 
ENDBRANCH  12  15
ENDBRANCH   6   9
ENDBRANCH   2   3
BRANCH   2  18
ATOM     18  N   UNL     1      -0.899  -0.608   0.112  0.00  0.00    -0.293 N 
ATOM     19  C   UNL     1      -1.492  -0.661   1.321  0.00  0.00    +0.304 C 
ATOM     20  O   UNL     1      -0.906  -0.252   2.304  0.00  0.00    -0.252 OA
ATOM     21  N   UNL     1      -2.736  -1.166   1.440  0.00  0.00    -0.268 N 
ATOM     22  H   UNL     1      -1.367  -0.934  -0.673  0.00  0.00    +0.151 HD
ATOM     23  H   UNL     1      -3.179  -1.552   0.668  0.00  0.00    +0.156 HD
BRANCH  21  24
ATOM     24  C   UNL     1      -3.388  -1.133   2.675  0.00  0.00    +0.061 A 
ATOM     25  C   UNL     1      -2.668  -1.248   3.843  0.00  0.00    +0.025 A 
ATOM     26  C   UNL     1      -3.305  -1.217   5.080  0.00  0.00    +0.003 A 
ATOM     27  C   UNL     1      -4.656  -1.073   5.169  0.00  0.00    +0.010 A 
ATOM     28  C   UNL     1      -5.426  -0.953   4.001  0.00  0.00    +0.002 A 
ATOM     29  C   UNL     1      -4.790  -0.977   2.735  0.00  0.00    +0.092 A 
ATOM     30  N   UNL     1      -5.519  -0.858   1.622  0.00  0.00    -0.253 NA
ATOM     31  C   UNL     1      -6.821  -0.712   1.671  0.00  0.00    +0.111 A 
ATOM     32  C   UNL     1      -7.508  -0.675   2.883  0.00  0.00    +0.020 A 
ATOM     33  C   UNL     1      -6.825  -0.804   4.058  0.00  0.00    +0.011 A 
ENDBRANCH  21  24
ENDBRANCH   2  18
TORSDOF 5
