REMARK  Name = ZINC08682382
REMARK  10 active torsions:
REMARK  status: ('A' for Active; 'I' for Inactive)
REMARK    1  A    between atoms: C_3  and  S_23
REMARK    2  A    between atoms: C_6  and  C_7
REMARK    3  A    between atoms: C_7  and  C_8
REMARK    4  A    between atoms: C_8  and  N_9
REMARK    5  A    between atoms: N_9  and  C_10
REMARK    6  A    between atoms: C_10  and  N_12
REMARK    7  A    between atoms: N_12  and  C_13
REMARK    8  A    between atoms: C_16  and  S_19
REMARK    9  A    between atoms: S_19  and  N_22
REMARK   10  A    between atoms: S_23  and  N_26
REMARK                            x       y       z     vdW  Elec       q    Type
REMARK                         _______ _______ _______ _____ _____    ______ ____
ROOT
ATOM      1  N   UNL     1      -2.821  -2.152  -1.440  0.00  0.00    -0.326 N 
ATOM      2  H   UNL     1      -3.315  -2.142  -0.605  0.00  0.00    +0.148 HD
ENDROOT
BRANCH   1   3
ATOM      3  C   UNL     1      -3.443  -2.487  -2.587  0.00  0.00    +0.135 C 
ATOM      4  S   UNL     1      -2.570  -2.505  -4.060  0.00  0.00    -0.019 S 
BRANCH   3   5
ATOM      5  N   UNL     1      -4.752  -2.807  -2.576  0.00  0.00    -0.297 N 
ATOM      6  H   UNL     1      -5.232  -2.856  -1.734  0.00  0.00    +0.154 HD
BRANCH   5   7
ATOM      7  C   UNL     1      -5.419  -3.067  -3.778  0.00  0.00    +0.033 A 
ATOM      8  C   UNL     1      -4.835  -3.888  -4.734  0.00  0.00    +0.025 A 
ATOM      9  C   UNL     1      -5.496  -4.144  -5.919  0.00  0.00    +0.030 A 
ATOM     10  C   UNL     1      -6.738  -3.583  -6.154  0.00  0.00    +0.105 A 
ATOM     11  C   UNL     1      -7.322  -2.766  -5.204  0.00  0.00    +0.030 A 
ATOM     12  C   UNL     1      -6.669  -2.511  -4.015  0.00  0.00    +0.025 A 
BRANCH  10  13
ATOM     13  S   UNL     1      -7.578  -3.911  -7.668  0.00  0.00    +0.056 S 
ATOM     14  O   UNL     1      -8.479  -2.832  -7.875  0.00  0.00    -0.153 OA
ATOM     15  O   UNL     1      -6.581  -4.264  -8.618  0.00  0.00    -0.153 OA
BRANCH  13  16
ATOM     16  N   UNL     1      -8.505  -5.263  -7.431  0.00  0.00    -0.204 NA
ATOM     17  H   UNL     1      -8.502  -5.708  -6.569  0.00  0.00    +0.144 HD
ATOM     18  H   UNL     1      -9.050  -5.611  -8.155  0.00  0.00    +0.144 HD
ENDBRANCH  13  16
ENDBRANCH  10  13
ENDBRANCH   5   7
ENDBRANCH   3   5
ENDBRANCH   1   3
BRANCH   1  19
ATOM     19  C   UNL     1      -1.398  -1.804  -1.452  0.00  0.00    +0.108 C 
BRANCH  19  20
ATOM     20  C   UNL     1      -0.943  -1.468  -0.031  0.00  0.00    +0.054 C 
BRANCH  20  26
ATOM     21  C   UNL     1       0.910   0.203  -0.231  0.00  0.00    +0.005 A 
ATOM     22  C   UNL     1       2.253   0.532  -0.242  0.00  0.00    +0.029 A 
ATOM     23  C   UNL     1       3.207  -0.453  -0.066  0.00  0.00    +0.105 A 
ATOM     24  C   UNL     1       2.818  -1.766   0.122  0.00  0.00    +0.029 A 
ATOM     25  C   UNL     1       1.475  -2.095   0.134  0.00  0.00    +0.005 A 
ATOM     26  C   UNL     1       0.521  -1.110  -0.043  0.00  0.00    -0.046 A 
BRANCH  23  27
ATOM     27  S   UNL     1       4.918  -0.035  -0.082  0.00  0.00    +0.056 S 
ATOM     28  O   UNL     1       5.622  -1.217  -0.440  0.00  0.00    -0.153 OA
ATOM     29  O   UNL     1       5.035   1.174  -0.820  0.00  0.00    -0.153 OA
BRANCH  27  30
ATOM     30  N   UNL     1       5.350   0.319   1.477  0.00  0.00    -0.204 NA
ATOM     31  H   UNL     1       4.690   0.269   2.187  0.00  0.00    +0.144 HD
ATOM     32  H   UNL     1       6.263   0.575   1.681  0.00  0.00    +0.144 HD
ENDBRANCH  27  30
ENDBRANCH  23  27
ENDBRANCH  20  26
ENDBRANCH  19  20
ENDBRANCH   1  19
TORSDOF 10
