REMARK  Name = ZINC40704590
REMARK  7 active torsions:
REMARK  status: ('A' for Active; 'I' for Inactive)
REMARK    1  A    between atoms: C_1  and  C_2
REMARK    2  A    between atoms: C_5  and  C_25
REMARK    3  A    between atoms: C_6  and  N_8
REMARK    4  A    between atoms: C_10  and  N_24
REMARK    5  A    between atoms: C_11  and  N_15
REMARK    6  A    between atoms: N_15  and  C_16
REMARK    7  A    between atoms: C_16  and  C_17
REMARK                            x       y       z     vdW  Elec       q    Type
REMARK                         _______ _______ _______ _____ _____    ______ ____
ROOT
ATOM      1  N   UNL     1       0.052  -2.797   2.391  0.00  0.00    -0.298 N 
ATOM      2  C   UNL     1       0.154  -2.113   3.597  0.00  0.00    +0.149 A 
ATOM      3  C   UNL     1       0.281  -2.812   4.800  0.00  0.00    +0.105 A 
ATOM      4  C   UNL     1       0.380  -2.076   5.982  0.00  0.00    +0.145 A 
ATOM      5  N   UNL     1       0.349  -0.747   5.919  0.00  0.00    -0.219 NA
ATOM      6  C   UNL     1       0.227  -0.127   4.763  0.00  0.00    +0.225 A 
ATOM      7  N   UNL     1       0.137  -0.783   3.624  0.00  0.00    -0.219 NA
ATOM      8  H   UNL     1      -0.018  -3.764   2.386  0.00  0.00    +0.154 HD
ENDROOT
BRANCH   1  14
ATOM      9  C   UNL     1       1.274   1.226  -0.156  0.00  0.00    +0.044 C 
ATOM     10  C   UNL     1       0.636  -0.138  -0.078  0.00  0.00    -0.049 A 
ATOM     11  C   UNL     1       0.050  -0.691  -1.202  0.00  0.00    +0.004 A 
ATOM     12  C   UNL     1      -0.536  -1.942  -1.135  0.00  0.00    +0.005 A 
ATOM     13  C   UNL     1      -0.537  -2.643   0.055  0.00  0.00    -0.029 A 
ATOM     14  C   UNL     1       0.052  -2.090   1.185  0.00  0.00    +0.036 A 
ATOM     15  C   UNL     1       0.644  -0.835   1.113  0.00  0.00    +0.027 A 
ATOM     16  C   UNL     1      -1.175  -4.006   0.127  0.00  0.00    +0.045 C 
ENDBRANCH   1  14
BRANCH   3  17
ATOM     17  N   UNL     1       0.308  -4.215   4.819  0.00  0.00    -0.353 N 
ATOM     18  H   UNL     1       0.239  -4.713   3.989  0.00  0.00    +0.143 HD
ATOM     19  H   UNL     1       0.397  -4.687   5.662  0.00  0.00    +0.143 HD
ENDBRANCH   3  17
BRANCH   4  20
ATOM     20  N   UNL     1       0.507  -2.722   7.206  0.00  0.00    -0.323 N 
ATOM     21  H   UNL     1       0.529  -3.691   7.243  0.00  0.00    +0.148 HD
BRANCH  20  22
ATOM     22  C   UNL     1       0.610  -1.939   8.440  0.00  0.00    +0.138 C 
BRANCH  22  23
ATOM     23  C   UNL     1       0.738  -2.871   9.617  0.00  0.00    -0.030 A 
ATOM     24  C   UNL     1      -0.395  -3.324  10.266  0.00  0.00    +0.006 A 
ATOM     25  C   UNL     1      -0.278  -4.179  11.346  0.00  0.00    +0.020 A 
ATOM     26  C   UNL     1       0.974  -4.581  11.777  0.00  0.00    +0.041 A 
ATOM     27  C   UNL     1       2.108  -4.127  11.127  0.00  0.00    +0.020 A 
ATOM     28  C   UNL     1       1.989  -3.276  10.044  0.00  0.00    +0.006 A 
ATOM     29 CL   UNL     1       1.122  -5.654  13.133  0.00  0.00    -0.084 Cl
ENDBRANCH  22  23
ENDBRANCH  20  22
ENDBRANCH   4  20
TORSDOF 5
