REMARK  Name = ZINC04226065
REMARK  9 active torsions:
REMARK  status: ('A' for Active; 'I' for Inactive)
REMARK    1  A    between atoms: C_1  and  C_2
REMARK    2  A    between atoms: C_2  and  C_3
REMARK    3  A    between atoms: C_2  and  C_4
REMARK    4  A    between atoms: C_2  and  C_5
REMARK    5  A    between atoms: C_8  and  C_11
REMARK    6  A    between atoms: C_12  and  C_13
REMARK    7  A    between atoms: C_12  and  N_17
REMARK    8  A    between atoms: N_15  and  N_16
REMARK    9  A    between atoms: C_18  and  C_20
REMARK                            x       y       z     vdW  Elec       q    Type
REMARK                         _______ _______ _______ _____ _____    ______ ____
ROOT
ATOM      1  C   UNL     1      -3.600   1.956  -0.428  0.00  0.00    +0.036 C 
ATOM      2  C   UNL     1      -2.579   1.176  -0.006  0.00  0.00    +0.098 C 
ENDROOT
BRANCH   1   6
ATOM      3  C   UNL     1      -7.136   0.178  -1.954  0.00  0.00    -0.042 A 
ATOM      4  C   UNL     1      -7.205   1.396  -1.300  0.00  0.00    +0.005 A 
ATOM      5  C   UNL     1      -6.060   1.981  -0.801  0.00  0.00    +0.008 A 
ATOM      6  C   UNL     1      -4.827   1.339  -0.957  0.00  0.00    -0.023 A 
ATOM      7  C   UNL     1      -4.765   0.111  -1.623  0.00  0.00    +0.008 A 
ATOM      8  C   UNL     1      -5.920  -0.463  -2.112  0.00  0.00    +0.005 A 
BRANCH   3  10
ATOM      9  C   UNL     1      -9.033   0.484  -3.522  0.00  0.00    +0.015 C 
ATOM     10  C   UNL     1      -8.393  -0.453  -2.496  0.00  0.00    -0.013 C 
ATOM     11  C   UNL     1      -8.046  -1.784  -3.167  0.00  0.00    +0.015 C 
ATOM     12  C   UNL     1      -9.375  -0.701  -1.349  0.00  0.00    +0.015 C 
ENDBRANCH   3  10
ENDBRANCH   1   6
BRANCH   2  13
ATOM     13  C   UNL     1      -2.740  -0.285   0.040  0.00  0.00    +0.272 C 
ATOM     14  O   UNL     1      -2.085  -0.993  -0.702  0.00  0.00    -0.268 OA
ATOM     15  N   UNL     1      -3.612  -0.840   0.905  0.00  0.00    -0.249 N 
ATOM     16  H   UNL     1      -4.185  -0.274   1.446  0.00  0.00    +0.169 HD
BRANCH  15  17
ATOM     17  N   UNL     1      -3.689  -2.199   1.019  0.00  0.00    -0.254 NA
ATOM     18  H   UNL     1      -2.789  -2.595   1.245  0.00  0.00    +0.140 HD
ATOM     19  H   UNL     1      -4.383  -2.465   1.702  0.00  0.00    +0.140 HD
ENDBRANCH  15  17
ENDBRANCH   2  13
BRANCH   2  20
ATOM     20  N   UNL     1      -1.370   1.758   0.386  0.00  0.00    -0.277 N 
ATOM     21  C   UNL     1      -0.395   0.995   0.917  0.00  0.00    +0.248 C 
ATOM     22  O   UNL     1      -0.594  -0.186   1.128  0.00  0.00    -0.270 OA
ATOM     23  H   UNL     1      -1.233   2.712   0.275  0.00  0.00    +0.155 HD
BRANCH  21  24
ATOM     24  C   UNL     1       0.918   1.592   1.238  0.00  0.00    +0.037 A 
ATOM     25  C   UNL     1       1.152   2.946   0.992  0.00  0.00    +0.013 A 
ATOM     26  C   UNL     1       2.379   3.498   1.299  0.00  0.00    +0.001 A 
ATOM     27  C   UNL     1       3.380   2.710   1.840  0.00  0.00    +0.000 A 
ATOM     28  C   UNL     1       3.156   1.366   2.081  0.00  0.00    +0.001 A 
ATOM     29  C   UNL     1       1.933   0.803   1.784  0.00  0.00    +0.013 A 
ENDBRANCH  21  24
ENDBRANCH   2  20
TORSDOF 6
