REMARK  Name = ZINC31155636
REMARK  13 active torsions:
REMARK  status: ('A' for Active; 'I' for Inactive)
REMARK    1  A    between atoms: C_1  and  C_2
REMARK    2  A    between atoms: C_2  and  C_28
REMARK    3  A    between atoms: C_7  and  C_26
REMARK    4  A    between atoms: C_7  and  O_27
REMARK    5  A    between atoms: C_8  and  C_17
REMARK    6  A    between atoms: C_10  and  C_16
REMARK    7  A    between atoms: C_13  and  O_15
REMARK    8  A    between atoms: C_17  and  C_18
REMARK    9  A    between atoms: C_18  and  C_19
REMARK   10  A    between atoms: C_19  and  C_21
REMARK   11  A    between atoms: C_21  and  C_23
REMARK   12  A    between atoms: C_21  and  O_25
REMARK   13  A    between atoms: C_23  and  O_24
REMARK                            x       y       z     vdW  Elec       q    Type
REMARK                         _______ _______ _______ _____ _____    ______ ____
ROOT
ATOM      1  C   UNL     1      -1.393   3.374  -3.004  0.00  0.00    +0.014 C 
ATOM      2  C   UNL     1      -0.687   2.454  -1.982  0.00  0.00    -0.006 C 
ATOM      3  C   UNL     1      -1.351   2.583  -0.619  0.00  0.00    +0.004 C 
ATOM      4  C   UNL     1      -1.664   4.053  -0.319  0.00  0.00    +0.007 C 
ATOM      5  C   UNL     1      -2.512   4.140   0.952  0.00  0.00    +0.035 C 
ATOM      6  C   UNL     1      -1.726   3.625   2.148  0.00  0.00    +0.067 C 
ATOM      7  C   UNL     1      -1.149   2.248   1.903  0.00  0.00    +0.027 C 
ATOM      8  C   UNL     1      -0.545   1.990   0.525  0.00  0.00    -0.023 C 
ATOM      9  C   UNL     1       0.896   2.504   0.499  0.00  0.00    +0.010 C 
ATOM     10  C   UNL     1       1.550   2.168  -0.840  0.00  0.00    +0.032 C 
ATOM     11  C   UNL     1       0.786   2.848  -1.969  0.00  0.00    +0.120 C 
ATOM     12  C   UNL     1      -0.502   0.449   0.408  0.00  0.00    +0.012 C 
ATOM     13  C   UNL     1      -0.629   4.621   2.533  0.00  0.00    +0.041 C 
ATOM     14  C   UNL     1      -0.833   1.035  -2.551  0.00  0.00    +0.014 C 
ENDROOT
BRANCH  11  15
ATOM     15  O   UNL     1       0.909   4.268  -1.852  0.00  0.00    -0.391 OA
ATOM     16  H   UNL     1       1.906   4.733  -1.827  0.00  0.00    +0.210 HD
ENDBRANCH  11  15
BRANCH   6  17
ATOM     17  O   UNL     1      -2.636   3.538   3.267  0.00  0.00    -0.389 OA
ATOM     18  H   UNL     1      -2.275   3.184   4.244  0.00  0.00    +0.210 HD
ENDBRANCH   6  17
BRANCH   7  19
ATOM     19  C   UNL     1      -2.226   1.185   2.177  0.00  0.00    +0.011 C 
BRANCH  19  20
ATOM     20  C   UNL     1      -3.249   1.191   1.040  0.00  0.00    +0.033 C 
BRANCH  20  21
ATOM     21  C   UNL     1      -4.318   0.167   1.321  0.00  0.00    -0.046 C 
ATOM     22  C   UNL     1      -5.433   0.527   1.907  0.00  0.00    +0.010 C 
BRANCH  21  23
ATOM     23  C   UNL     1      -4.105  -1.272   0.927  0.00  0.00    +0.165 C 
BRANCH  23  24
ATOM     24  O   UNL     1      -3.794  -1.344  -0.466  0.00  0.00    -0.385 OA
ATOM     25  H   UNL     1      -3.605  -2.319  -0.938  0.00  0.00    +0.210 HD
ENDBRANCH  23  24
BRANCH  23  26
ATOM     26  C   UNL     1      -2.947  -1.857   1.738  0.00  0.00    +0.191 C 
BRANCH  26  27
ATOM     27  O   UNL     1      -2.819  -3.251   1.450  0.00  0.00    -0.392 OA
ATOM     28  H   UNL     1      -2.035  -3.844   1.943  0.00  0.00    +0.210 HD
ENDBRANCH  26  27
ENDBRANCH  23  26
ENDBRANCH  21  23
ENDBRANCH  20  21
ENDBRANCH  19  20
ENDBRANCH   7  19
TORSDOF 9
