REMARK  Name = ZINC40620627
REMARK  8 active torsions:
REMARK  status: ('A' for Active; 'I' for Inactive)
REMARK    1  A    between atoms: C_1  and  C_2
REMARK    2  A    between atoms: C_7  and  C_8
REMARK    3  A    between atoms: N_10  and  N_11
REMARK    4  A    between atoms: C_13  and  N_27
REMARK    5  A    between atoms: C_14  and  N_18
REMARK    6  A    between atoms: N_18  and  C_19
REMARK    7  A    between atoms: C_23  and  C_26
REMARK    8  A    between atoms: C_24  and  C_25
REMARK                            x       y       z     vdW  Elec       q    Type
REMARK                         _______ _______ _______ _____ _____    ______ ____
ROOT
ATOM      1  N   UNL     1      -0.296  -0.056   5.043  0.00  0.00    -0.246 N 
ATOM      2  C   UNL     1       0.176  -0.727   6.161  0.00  0.00    +0.171 A 
ATOM      3  C   UNL     1       0.470  -0.031   7.330  0.00  0.00    +0.207 A 
ATOM      4  C   UNL     1       0.941  -0.751   8.424  0.00  0.00    +0.159 A 
ATOM      5  N   UNL     1       1.091  -2.070   8.314  0.00  0.00    -0.218 NA
ATOM      6  C   UNL     1       0.801  -2.692   7.189  0.00  0.00    +0.225 A 
ATOM      7  N   UNL     1       0.349  -2.047   6.133  0.00  0.00    -0.217 NA
ATOM      8  H   UNL     1      -0.420   0.906   5.071  0.00  0.00    +0.172 HD
ENDROOT
BRANCH   1  11
ATOM      9  C   UNL     1      -1.054  -0.114   2.787  0.00  0.00    +0.260 C 
ATOM     10  O   UNL     1      -1.209   1.091   2.822  0.00  0.00    -0.269 OA
ATOM     11  N   UNL     1      -0.595  -0.766   3.874  0.00  0.00    -0.231 N 
ATOM     12  H   UNL     1      -0.472  -1.728   3.846  0.00  0.00    +0.173 HD
BRANCH   9  19
ATOM     13  C   UNL     1      -2.206   1.273   0.525  0.00  0.00    +0.044 C 
ATOM     14  C   UNL     1      -1.925  -0.206   0.455  0.00  0.00    -0.038 A 
ATOM     15  C   UNL     1      -2.211  -0.910  -0.696  0.00  0.00    +0.004 A 
ATOM     16  C   UNL     1      -1.954  -2.268  -0.761  0.00  0.00    +0.000 A 
ATOM     17  C   UNL     1      -1.409  -2.928   0.326  0.00  0.00    +0.001 A 
ATOM     18  C   UNL     1      -1.118  -2.236   1.483  0.00  0.00    +0.013 A 
ATOM     19  C   UNL     1      -1.369  -0.864   1.553  0.00  0.00    +0.041 A 
ENDBRANCH   9  19
ENDBRANCH   1  11
BRANCH   3  20
ATOM     20  N   UNL     1       0.288   1.436   7.407  0.00  0.00    +0.063 N 
ATOM     21  O   UNL     1      -0.770   1.895   7.770  0.00  0.00    -0.126 OA
ATOM     22  O   UNL     1       1.197   2.175   7.108  0.00  0.00    -0.126 OA
ENDBRANCH   3  20
BRANCH   4  23
ATOM     23  N   UNL     1       1.249  -0.104   9.612  0.00  0.00    -0.297 N 
ATOM     24  H   UNL     1       1.232   0.865   9.655  0.00  0.00    +0.154 HD
BRANCH  23  25
ATOM     25  C   UNL     1       1.583  -0.849  10.747  0.00  0.00    +0.036 A 
ATOM     26  C   UNL     1       1.125  -2.153  10.883  0.00  0.00    +0.023 A 
ATOM     27  C   UNL     1       1.458  -2.886  12.005  0.00  0.00    +0.002 A 
ATOM     28  C   UNL     1       2.246  -2.323  12.992  0.00  0.00    +0.004 A 
ATOM     29  C   UNL     1       2.703  -1.025  12.860  0.00  0.00    -0.046 A 
ATOM     30  C   UNL     1       2.379  -0.288  11.737  0.00  0.00    -0.026 A 
ATOM     31  C   UNL     1       2.883   1.125  11.591  0.00  0.00    +0.046 C 
ATOM     32  C   UNL     1       3.561  -0.415  13.939  0.00  0.00    +0.044 C 
ENDBRANCH  23  25
ENDBRANCH   4  23
TORSDOF 5
