REMARK  Name = ZINC32620158
REMARK  5 active torsions:
REMARK  status: ('A' for Active; 'I' for Inactive)
REMARK    1  A    between atoms: C_6  and  C_7
REMARK    2  A    between atoms: N_9  and  C_10
REMARK    3  A    between atoms: C_10  and  C_12
REMARK    4  A    between atoms: C_10  and  N_16
REMARK    5  A    between atoms: C_24  and  N_25
REMARK                            x       y       z     vdW  Elec       q    Type
REMARK                         _______ _______ _______ _____ _____    ______ ____
ROOT
ATOM      1  C   UNL     1       2.453  -4.278  -0.043  0.00  0.00    +0.229 C 
ENDROOT
BRANCH   1   2
ATOM      2  N   UNL     1       3.719  -4.747   0.526  0.00  0.00    -0.291 N 
ATOM      3  C   UNL     1       4.867  -4.022   0.645  0.00  0.00    +0.203 A 
ATOM      4  N   UNL     1       5.797  -4.749   1.195  0.00  0.00    -0.231 NA
ATOM      5  C   UNL     1       5.305  -5.982   1.463  0.00  0.00    +0.148 A 
ATOM      6  C   UNL     1       3.965  -5.994   1.042  0.00  0.00    +0.167 A 
ATOM      7  N   UNL     1       3.251  -7.105   1.191  0.00  0.00    -0.216 NA
ATOM      8  C   UNL     1       3.785  -8.178   1.734  0.00  0.00    +0.225 A 
ATOM      9  N   UNL     1       5.038  -8.213   2.150  0.00  0.00    -0.218 NA
ATOM     10  C   UNL     1       5.831  -7.152   2.037  0.00  0.00    +0.152 A 
BRANCH  10  11
ATOM     11  N   UNL     1       7.143  -7.198   2.475  0.00  0.00    -0.313 N 
ATOM     12  C   UNL     1       8.071  -6.839   1.395  0.00  0.00    +0.106 C 
ATOM     13  C   UNL     1       9.495  -6.759   1.950  0.00  0.00    +0.019 C 
ATOM     14  C   UNL     1       9.880  -8.114   2.550  0.00  0.00    +0.003 C 
ATOM     15  C   UNL     1       8.870  -8.487   3.639  0.00  0.00    +0.019 C 
ATOM     16  C   UNL     1       7.464  -8.517   3.035  0.00  0.00    +0.106 C 
ENDBRANCH  10  11
ENDBRANCH   1   2
BRANCH   1  19
ATOM     17  C   UNL     1       1.248  -2.160  -0.021  0.00  0.00    +0.246 C 
ATOM     18  O   UNL     1       0.207  -2.787  -0.014  0.00  0.00    -0.270 OA
ATOM     19  N   UNL     1       2.427  -2.813  -0.036  0.00  0.00    -0.287 N 
ATOM     20  H   UNL     1       3.370  -2.246  -0.042  0.00  0.00    +0.151 HD
BRANCH  17  26
ATOM     21  C   UNL     1       0.002  -0.004   0.002  0.00  0.00    +0.016 A 
ATOM     22  C   UNL     1      -0.017   1.374   0.010  0.00  0.00    +0.039 A 
ATOM     23  C   UNL     1       1.173   2.086   0.002  0.00  0.00    +0.123 A 
ATOM     24  C   UNL     1       2.387   1.417  -0.013  0.00  0.00    +0.039 A 
ATOM     25  C   UNL     1       2.417   0.039  -0.021  0.00  0.00    +0.016 A 
ATOM     26  C   UNL     1       1.222  -0.683  -0.013  0.00  0.00    +0.037 A 
ATOM     27  F   UNL     1       1.149   3.437   0.009  0.00  0.00    -0.205 F 
ENDBRANCH  17  26
ENDBRANCH   1  19
BRANCH   1  28
ATOM     28  C   UNL     1       2.323  -4.783  -1.482  0.00  0.00    +0.227 C 
ATOM     29 CL   UNL     1       3.695  -4.152  -2.467  0.00  0.00    -0.079 Cl
ATOM     30 CL   UNL     1       2.355  -6.586  -1.491  0.00  0.00    -0.079 Cl
ATOM     31 CL   UNL     1       0.765  -4.206  -2.182  0.00  0.00    -0.079 Cl
ENDBRANCH   1  28
TORSDOF 5
