REMARK  Name = ZINC66782047
REMARK  9 active torsions:
REMARK  status: ('A' for Active; 'I' for Inactive)
REMARK    1  A    between atoms: C_1  and  C_2
REMARK    2  A    between atoms: C_2  and  C_3
REMARK    3  A    between atoms: C_3  and  C_4
REMARK    4  A    between atoms: C_4  and  C_5
REMARK    5  A    between atoms: C_5  and  C_7
REMARK    6  A    between atoms: C_5  and  N_22
REMARK    7  A    between atoms: N_9  and  C_10
REMARK    8  A    between atoms: C_14  and  C_16
REMARK    9  A    between atoms: C_17  and  C_21
REMARK                            x       y       z     vdW  Elec       q    Type
REMARK                         _______ _______ _______ _____ _____    ______ ____
ROOT
ATOM      1  C   UNL     1       1.932  -3.979  -2.609  0.00  0.00    +0.238 C 
ATOM      2  O   UNL     1       1.138  -4.625  -3.260  0.00  0.00    -0.273 OA
ATOM      3  N   UNL     1       2.808  -4.606  -1.800  0.00  0.00    -0.284 N 
ATOM      4  H   UNL     1       3.489  -4.096  -1.334  0.00  0.00    +0.155 HD
ENDROOT
BRANCH   3   5
ATOM      5  C   UNL     1       2.735  -5.994  -1.631  0.00  0.00    +0.034 A 
ATOM      6  C   UNL     1       3.025  -6.560  -0.395  0.00  0.00    +0.023 A 
ATOM      7  C   UNL     1       2.955  -7.929  -0.223  0.00  0.00    +0.002 A 
ATOM      8  C   UNL     1       2.597  -8.744  -1.278  0.00  0.00    +0.009 A 
ATOM      9  C   UNL     1       2.304  -8.186  -2.523  0.00  0.00    -0.009 A 
ATOM     10  C   UNL     1       2.369  -6.803  -2.695  0.00  0.00    +0.032 A 
BRANCH   9  11
ATOM     11  C   UNL     1       1.921  -9.056  -3.655  0.00  0.00    +0.022 A 
ATOM     12  C   UNL     1       2.506 -10.215  -4.089  0.00  0.00    -0.036 A 
ATOM     13  C   UNL     1       1.967 -10.862  -5.179  0.00  0.00    +0.011 A 
ATOM     14  C   UNL     1       0.875 -10.333  -5.788  0.00  0.00    +0.046 A 
ATOM     15  S   UNL     1       0.569  -8.874  -4.807  0.00  0.00    -0.096 S 
ATOM     16  C   UNL     1       3.719 -10.772  -3.388  0.00  0.00    +0.045 C 
ENDBRANCH   9  11
ENDBRANCH   3   5
BRANCH   1  17
ATOM     17  C   UNL     1       1.938  -2.475  -2.705  0.00  0.00    +0.161 C 
BRANCH  17  18
ATOM     18  N   UNL     1       1.273  -2.062  -3.943  0.00  0.00    -0.288 N 
ATOM     19  C   UNL     1      -0.014  -2.397  -4.161  0.00  0.00    +0.298 C 
ATOM     20  O   UNL     1      -0.624  -3.042  -3.329  0.00  0.00    -0.253 OA
ATOM     21  N   UNL     1      -0.626  -2.017  -5.300  0.00  0.00    -0.313 N 
ATOM     22  H   UNL     1       1.759  -1.548  -4.607  0.00  0.00    +0.151 HD
ATOM     23  H   UNL     1      -0.140  -1.503  -5.963  0.00  0.00    +0.146 HD
ATOM     24  H   UNL     1      -1.552  -2.258  -5.457  0.00  0.00    +0.146 HD
ENDBRANCH  17  18
BRANCH  17  25
ATOM     25  C   UNL     1       1.195  -1.884  -1.505  0.00  0.00    +0.032 C 
BRANCH  25  26
ATOM     26  C   UNL     1       1.308  -0.359  -1.536  0.00  0.00    +0.002 C 
BRANCH  26  28
ATOM     27  C   UNL     1       0.678   1.758  -0.368  0.00  0.00    +0.004 C 
ATOM     28  C   UNL     1       0.565   0.232  -0.337  0.00  0.00    -0.003 C 
ENDBRANCH  26  28
ENDBRANCH  25  26
ENDBRANCH  17  25
ENDBRANCH   1  17
TORSDOF 7
