REMARK  Name = ZINC25390328
REMARK  9 active torsions:
REMARK  status: ('A' for Active; 'I' for Inactive)
REMARK    1  A    between atoms: C_1  and  C_2
REMARK    2  A    between atoms: C_2  and  C_3
REMARK    3  A    between atoms: C_3  and  N_4
REMARK    4  A    between atoms: C_14  and  S_15
REMARK    5  A    between atoms: S_15  and  C_16
REMARK    6  A    between atoms: C_19  and  S_25
REMARK    7  A    between atoms: C_21  and  N_22
REMARK    8  A    between atoms: S_25  and  N_28
REMARK    9  A    between atoms: N_28  and  C_29
REMARK                            x       y       z     vdW  Elec       q    Type
REMARK                         _______ _______ _______ _____ _____    ______ ____
ROOT
ATOM      1  C   UNL     1      -3.264  -1.620   2.289  0.00  0.00    +0.046 A 
ATOM      2  C   UNL     1      -3.798  -0.876   3.334  0.00  0.00    +0.019 A 
ATOM      3  C   UNL     1      -4.900  -1.345   4.021  0.00  0.00    +0.030 A 
ATOM      4  C   UNL     1      -5.472  -2.555   3.671  0.00  0.00    +0.111 A 
ATOM      5  C   UNL     1      -4.943  -3.298   2.631  0.00  0.00    +0.062 A 
ATOM      6  C   UNL     1      -3.844  -2.832   1.936  0.00  0.00    +0.142 A 
ENDROOT
BRANCH   6   7
ATOM      7  N   UNL     1      -3.283  -3.625   0.820  0.00  0.00    +0.058 N 
ATOM      8  O   UNL     1      -3.792  -4.688   0.511  0.00  0.00    -0.126 OA
ATOM      9  O   UNL     1      -2.311  -3.216   0.210  0.00  0.00    -0.126 OA
ENDBRANCH   6   7
BRANCH   4  10
ATOM     10  S   UNL     1      -6.878  -3.150   4.551  0.00  0.00    +0.072 S 
ATOM     11  O   UNL     1      -6.833  -4.568   4.476  0.00  0.00    -0.150 OA
ATOM     12  O   UNL     1      -6.907  -2.453   5.789  0.00  0.00    -0.150 OA
BRANCH  10  13
ATOM     13  N   UNL     1      -8.221  -2.673   3.708  0.00  0.00    -0.216 N 
ATOM     14  H   UNL     1      -8.938  -1.975   4.164  0.00  0.00    +0.174 HD
BRANCH  13  15
ATOM     15  C   UNL     1      -8.443  -3.158   2.417  0.00  0.00    +0.048 A 
ATOM     16  C   UNL     1      -8.247  -2.330   1.319  0.00  0.00    +0.024 A 
ATOM     17  C   UNL     1      -8.463  -2.814   0.044  0.00  0.00    +0.002 A 
ATOM     18  C   UNL     1      -8.885  -4.118  -0.141  0.00  0.00    +0.000 A 
ATOM     19  C   UNL     1      -9.087  -4.943   0.951  0.00  0.00    +0.002 A 
ATOM     20  C   UNL     1      -8.867  -4.467   2.228  0.00  0.00    +0.024 A 
ENDBRANCH  13  15
ENDBRANCH  10  13
ENDBRANCH   4  10
BRANCH   1  21
ATOM     21  S   UNL     1      -1.858  -1.025   1.409  0.00  0.00    -0.049 S 
BRANCH  21  32
ATOM     22  N   UNL     1       0.664  -1.950   1.616  0.00  0.00    -0.287 N 
ATOM     23  C   UNL     1       1.659  -2.711   2.129  0.00  0.00    +0.262 A 
ATOM     24  O   UNL     1       2.792  -2.652   1.687  0.00  0.00    -0.267 OA
ATOM     25  C   UNL     1       1.322  -3.607   3.244  0.00  0.00    +0.065 A 
ATOM     26  C   UNL     1       2.276  -4.427   3.844  0.00  0.00    +0.015 A 
ATOM     27  C   UNL     1       1.907  -5.246   4.875  0.00  0.00    +0.001 A 
ATOM     28  C   UNL     1       0.595  -5.269   5.330  0.00  0.00    +0.002 A 
ATOM     29  C   UNL     1      -0.360  -4.476   4.759  0.00  0.00    +0.028 A 
ATOM     30  C   UNL     1      -0.015  -3.628   3.702  0.00  0.00    +0.079 A 
ATOM     31  N   UNL     1      -0.925  -2.829   3.111  0.00  0.00    -0.223 NA
ATOM     32  C   UNL     1      -0.602  -2.034   2.122  0.00  0.00    +0.177 A 
BRANCH  22  33
ATOM     33  C   UNL     1       0.946  -1.036   0.507  0.00  0.00    +0.127 C 
BRANCH  33  35
ATOM     34  C   UNL     1       1.646   1.286  -0.096  0.00  0.00    +0.005 C 
ATOM     35  C   UNL     1       1.352   0.331   1.063  0.00  0.00    +0.018 C 
ENDBRANCH  33  35
ENDBRANCH  22  33
ENDBRANCH  21  32
ENDBRANCH   1  21
TORSDOF 8
