REMARK  Name = ZINC65508690
REMARK  7 active torsions:
REMARK  status: ('A' for Active; 'I' for Inactive)
REMARK    1  A    between atoms: C_1  and  C_2
REMARK    2  A    between atoms: C_2  and  C_4
REMARK    3  A    between atoms: C_2  and  N_17
REMARK    4  A    between atoms: C_13  and  O_16
REMARK    5  A    between atoms: C_26  and  C_28
REMARK    6  A    between atoms: C_28  and  C_29
REMARK    7  A    between atoms: C_29  and  N_30
REMARK                            x       y       z     vdW  Elec       q    Type
REMARK                         _______ _______ _______ _____ _____    ______ ____
ROOT
ATOM      1  N   UNL     1      -1.372  -0.511   0.012  0.00  0.00    -0.325 N 
ATOM      2  C   UNL     1      -2.066  -0.646  -1.171  0.00  0.00    +0.130 A 
ATOM      3  C   UNL     1      -3.398  -1.129  -1.183  0.00  0.00    +0.040 A 
ATOM      4  C   UNL     1      -4.069  -1.488  -0.009  0.00  0.00    +0.013 A 
ATOM      5  C   UNL     1      -5.352  -1.947  -0.083  0.00  0.00    +0.001 A 
ATOM      6  C   UNL     1      -6.001  -2.062  -1.309  0.00  0.00    +0.002 A 
ATOM      7  C   UNL     1      -5.374  -1.719  -2.470  0.00  0.00    +0.028 A 
ATOM      8  C   UNL     1      -4.056  -1.244  -2.431  0.00  0.00    +0.076 A 
ATOM      9  N   UNL     1      -3.394  -0.893  -3.544  0.00  0.00    -0.232 NA
ATOM     10  C   UNL     1      -2.161  -0.452  -3.473  0.00  0.00    +0.130 A 
ATOM     11  N   UNL     1      -1.507  -0.322  -2.329  0.00  0.00    -0.217 NA
ATOM     12  H   UNL     1      -1.794  -0.752   0.852  0.00  0.00    +0.148 HD
ENDROOT
BRANCH   1  14
ATOM     13  C   UNL     1      -0.019   1.526   0.010  0.00  0.00    +0.028 C 
ATOM     14  C   UNL     1       0.002  -0.004   0.002  0.00  0.00    +0.075 C 
BRANCH  14  15
ATOM     15  C   UNL     1       0.742  -0.511   1.242  0.00  0.00    -0.008 C 
ATOM     16  C   UNL     1       0.026  -0.018   2.500  0.00  0.00    +0.012 C 
ATOM     17  C   UNL     1       0.766  -0.524   3.740  0.00  0.00    -0.007 C 
ATOM     18  C   UNL     1       0.787  -2.054   3.732  0.00  0.00    +0.007 C 
ATOM     19  C   UNL     1       1.503  -2.548   2.473  0.00  0.00    -0.007 C 
ATOM     20  C   UNL     1       0.763  -2.041   1.233  0.00  0.00    +0.012 C 
ATOM     21  C   UNL     1       2.938  -2.018   2.462  0.00  0.00    +0.038 C 
ATOM     22  C   UNL     1       2.917  -0.488   2.470  0.00  0.00    +0.067 C 
ATOM     23  C   UNL     1       2.201   0.005   3.729  0.00  0.00    +0.038 C 
ATOM     24  C   UNL     1       2.178   0.019   1.231  0.00  0.00    +0.043 C 
BRANCH  22  25
ATOM     25  O   UNL     1       4.258   0.006   2.460  0.00  0.00    -0.389 OA
ATOM     26  H   UNL     1       4.787  -0.276   3.219  0.00  0.00    +0.210 HD
ENDBRANCH  22  25
ENDBRANCH  14  15
ENDBRANCH   1  14
BRANCH  10  27
ATOM     27  C   UNL     1      -1.459  -0.069  -4.750  0.00  0.00    +0.057 C 
BRANCH  27  28
ATOM     28  C   UNL     1      -1.712   1.410  -5.048  0.00  0.00    -0.079 C 
BRANCH  28  29
ATOM     29  N   UNL     1      -1.028   1.782  -6.294  0.00  0.00    +0.378 N 
ATOM     30  H   UNL     1      -1.382   1.221  -7.053  0.00  0.00    -0.090 HD
ATOM     31  H   UNL     1      -1.195   2.758  -6.490  0.00  0.00    -0.090 HD
ATOM     32  H   UNL     1      -0.036   1.624  -6.193  0.00  0.00    -0.090 HD
ENDBRANCH  28  29
ENDBRANCH  27  28
ENDBRANCH  10  27
TORSDOF 6
