REMARK  Name = ZINC39631422
REMARK  13 active torsions:
REMARK  status: ('A' for Active; 'I' for Inactive)
REMARK    1  A    between atoms: C_1  and  C_2
REMARK    2  A    between atoms: C_2  and  C_4
REMARK    3  A    between atoms: C_2  and  N_11
REMARK    4  A    between atoms: C_4  and  C_5
REMARK    5  A    between atoms: C_5  and  C_6
REMARK    6  A    between atoms: C_6  and  C_7
REMARK    7  A    between atoms: C_7  and  C_8
REMARK    8  A    between atoms: C_7  and  C_9
REMARK    9  A    between atoms: C_7  and  O_10
REMARK   10  A    between atoms: C_12  and  C_14
REMARK   11  A    between atoms: C_25  and  C_27
REMARK   12  A    between atoms: C_30  and  O_33
REMARK   13  A    between atoms: O_33  and  C_34
REMARK                            x       y       z     vdW  Elec       q    Type
REMARK                         _______ _______ _______ _____ _____    ______ ____
ROOT
ATOM      1  C   UNL     1      -4.042  -1.422  -0.878  0.00  0.00    +0.100 C 
ATOM      2  C   UNL     1      -4.676  -0.290  -0.040  0.00  0.00    +0.121 C 
ATOM      3  N   UNL     1      -5.230   0.652  -1.042  0.00  0.00    -0.296 N 
ATOM      4  C   UNL     1      -5.794  -0.223  -2.098  0.00  0.00    +0.115 C 
ATOM      5  C   UNL     1      -4.780  -1.378  -2.226  0.00  0.00    -0.004 C 
ATOM      6  C   UNL     1      -5.509  -2.695  -2.474  0.00  0.00    -0.010 C 
ATOM      7  C   UNL     1      -6.187  -2.648  -3.846  0.00  0.00    -0.082 C 
ATOM      8  N   UNL     1      -5.176  -2.422  -4.886  0.00  0.00    +0.379 N 
ATOM      9  C   UNL     1      -4.545  -1.111  -4.694  0.00  0.00    -0.082 C 
ATOM     10  C   UNL     1      -3.797  -1.093  -3.358  0.00  0.00    -0.010 C 
ATOM     11  C   UNL     1      -5.223   1.999  -1.002  0.00  0.00    +0.247 C 
ATOM     12  O   UNL     1      -4.611   2.578  -0.125  0.00  0.00    -0.270 OA
ATOM     13  H   UNL     1      -4.473  -3.144  -4.832  0.00  0.00    -0.086 HD
ATOM     14  H   UNL     1      -5.616  -2.453  -5.793  0.00  0.00    -0.086 HD
ENDROOT
BRANCH  11  15
ATOM     15  C   UNL     1      -5.959   2.771  -2.022  0.00  0.00    +0.037 A 
ATOM     16  C   UNL     1      -6.994   2.171  -2.744  0.00  0.00    +0.016 A 
ATOM     17  C   UNL     1      -7.678   2.895  -3.694  0.00  0.00    +0.047 A 
ATOM     18  C   UNL     1      -7.340   4.221  -3.936  0.00  0.00    +0.130 A 
ATOM     19  C   UNL     1      -6.311   4.822  -3.220  0.00  0.00    +0.047 A 
ATOM     20  C   UNL     1      -5.626   4.107  -2.264  0.00  0.00    +0.016 A 
BRANCH  18  21
ATOM     21  O   UNL     1      -8.017   4.932  -4.875  0.00  0.00    -0.406 OA
BRANCH  21  22
ATOM     22  C   UNL     1      -7.618   6.290  -5.072  0.00  0.00    +0.575 C 
ATOM     23  F   UNL     1      -6.276   6.329  -5.466  0.00  0.00    -0.133 F 
ATOM     24  F   UNL     1      -8.413   6.869  -6.067  0.00  0.00    -0.133 F 
ATOM     25  F   UNL     1      -7.774   7.000  -3.878  0.00  0.00    -0.133 F 
ENDBRANCH  21  22
ENDBRANCH  18  21
ENDBRANCH  11  15
BRANCH   1  27
ATOM     26  N   UNL     1      -1.732  -2.196  -1.312  0.00  0.00    -0.312 N 
ATOM     27  C   UNL     1      -2.570  -1.166  -1.077  0.00  0.00    +0.218 C 
ATOM     28  O   UNL     1      -2.139  -0.033  -1.026  0.00  0.00    -0.275 OA
ATOM     29  H   UNL     1      -2.077  -3.102  -1.352  0.00  0.00    +0.149 HD
BRANCH  26  31
ATOM     30  C   UNL     1       0.394  -1.882  -0.144  0.00  0.00    +0.028 C 
ATOM     31  C   UNL     1      -0.302  -1.946  -1.505  0.00  0.00    +0.070 C 
BRANCH  31  32
ATOM     32  C   UNL     1       0.306  -3.079  -2.335  0.00  0.00    +0.022 C 
BRANCH  32  33
ATOM     33  C   UNL     1      -0.301  -3.065  -3.739  0.00  0.00    +0.005 C 
BRANCH  33  34
ATOM     34  C   UNL     1       0.306  -4.198  -4.569  0.00  0.00    +0.034 C 
BRANCH  34  35
ATOM     35  C   UNL     1      -0.301  -4.184  -5.973  0.00  0.00    +0.061 C 
ATOM     36  C   UNL     1       0.212  -5.389  -6.763  0.00  0.00    +0.041 C 
ATOM     37  C   UNL     1      -1.826  -4.253  -5.871  0.00  0.00    +0.041 C 
BRANCH  35  38
ATOM     38  O   UNL     1       0.077  -2.979  -6.644  0.00  0.00    -0.389 OA
ATOM     39  H   UNL     1      -0.273  -2.902  -7.542  0.00  0.00    +0.210 HD
ENDBRANCH  35  38
ENDBRANCH  34  35
ENDBRANCH  33  34
ENDBRANCH  32  33
ENDBRANCH  31  32
ENDBRANCH  26  31
ENDBRANCH   1  27
TORSDOF 10
