REMARK  Name = ZINC64427866
REMARK  11 active torsions:
REMARK  status: ('A' for Active; 'I' for Inactive)
REMARK    1  A    between atoms: C_1  and  C_2
REMARK    2  A    between atoms: C_5  and  C_8
REMARK    3  A    between atoms: C_8  and  N_9
REMARK    4  A    between atoms: N_12  and  C_13
REMARK    5  A    between atoms: C_13  and  C_14
REMARK    6  A    between atoms: C_13  and  C_18
REMARK    7  A    between atoms: C_14  and  C_15
REMARK    8  A    between atoms: C_15  and  C_16
REMARK    9  A    between atoms: C_15  and  C_17
REMARK   10  A    between atoms: N_20  and  N_21
REMARK   11  A    between atoms: N_24  and  C_25
REMARK                            x       y       z     vdW  Elec       q    Type
REMARK                         _______ _______ _______ _____ _____    ______ ____
ROOT
ATOM      1  C   UNL     1       3.099  -7.720   0.133  0.00  0.00    +0.162 C 
ENDROOT
BRANCH   1   5
ATOM      2  N   UNL     1       0.905  -4.772   0.111  0.00  0.00    -0.295 N 
ATOM      3  C   UNL     1       1.351  -6.034  -0.053  0.00  0.00    +0.300 C 
ATOM      4  O   UNL     1       0.591  -6.903  -0.433  0.00  0.00    -0.253 OA
ATOM      5  N   UNL     1       2.640  -6.331   0.204  0.00  0.00    -0.288 N 
ATOM      6  H   UNL     1       1.511  -4.079   0.415  0.00  0.00    +0.151 HD
ATOM      7  H   UNL     1       3.264  -5.625   0.437  0.00  0.00    +0.151 HD
BRANCH   2   8
ATOM      8  C   UNL     1      -0.496  -4.449  -0.169  0.00  0.00    +0.141 C 
BRANCH   8  13
ATOM      9  C   UNL     1      -1.416   1.168   0.830  0.00  0.00    +0.044 C 
ATOM     10  C   UNL     1      -1.176  -0.297   0.569  0.00  0.00    -0.050 A 
ATOM     11  C   UNL     1      -0.781  -0.720  -0.686  0.00  0.00    +0.003 A 
ATOM     12  C   UNL     1      -0.561  -2.064  -0.925  0.00  0.00    +0.005 A 
ATOM     13  C   UNL     1      -0.735  -2.984   0.092  0.00  0.00    -0.030 A 
ATOM     14  C   UNL     1      -1.130  -2.561   1.347  0.00  0.00    +0.005 A 
ATOM     15  C   UNL     1      -1.346  -1.216   1.587  0.00  0.00    +0.003 A 
ENDBRANCH   8  13
ENDBRANCH   2   8
ENDBRANCH   1   5
BRANCH   1  16
ATOM     16  C   UNL     1       4.256  -7.916   1.078  0.00  0.00    +0.249 C 
ATOM     17  O   UNL     1       4.880  -6.957   1.480  0.00  0.00    -0.272 OA
ATOM     18  N   UNL     1       4.597  -9.158   1.478  0.00  0.00    -0.232 N 
ATOM     19  H   UNL     1       4.145  -9.929   1.102  0.00  0.00    +0.173 HD
BRANCH  18  20
ATOM     20  N   UNL     1       5.605  -9.333   2.434  0.00  0.00    -0.218 N 
ATOM     21  C   UNL     1       5.947 -10.575   2.834  0.00  0.00    +0.316 C 
ATOM     22  O   UNL     1       6.821 -10.727   3.664  0.00  0.00    -0.251 OA
ATOM     23  N   UNL     1       5.318 -11.647   2.312  0.00  0.00    -0.295 N 
ATOM     24  H   UNL     1       6.058  -8.562   2.810  0.00  0.00    +0.174 HD
ATOM     25  H   UNL     1       4.620 -11.525   1.650  0.00  0.00    +0.151 HD
BRANCH  23  26
ATOM     26  C   UNL     1       5.689 -12.996   2.746  0.00  0.00    +0.075 C 
ATOM     27  C   UNL     1       5.835 -14.070   1.667  0.00  0.00    +0.024 C 
ATOM     28  C   UNL     1       4.633 -14.096   2.614  0.00  0.00    +0.024 C 
ENDBRANCH  23  26
ENDBRANCH  18  20
ENDBRANCH   1  16
BRANCH   1  29
ATOM     29  C   UNL     1       3.549  -8.036  -1.296  0.00  0.00    +0.035 C 
BRANCH  29  30
ATOM     30  C   UNL     1       3.905  -9.520  -1.403  0.00  0.00    -0.015 C 
ATOM     31  C   UNL     1       2.639 -10.361  -1.222  0.00  0.00    +0.007 C 
ATOM     32  C   UNL     1       4.512  -9.801  -2.778  0.00  0.00    +0.007 C 
ENDBRANCH  29  30
ENDBRANCH   1  29
TORSDOF 8
