REMARK  Name = ZINC37136404
REMARK  5 active torsions:
REMARK  status: ('A' for Active; 'I' for Inactive)
REMARK    1  A    between atoms: C_1  and  C_2
REMARK    2  A    between atoms: C_6  and  C_7
REMARK    3  A    between atoms: C_7  and  N_8
REMARK    4  A    between atoms: N_8  and  C_9
REMARK    5  A    between atoms: C_12  and  N_15
REMARK                            x       y       z     vdW  Elec       q    Type
REMARK                         _______ _______ _______ _____ _____    ______ ____
ROOT
ATOM      1  C   UNL     1      -1.590   0.426   4.354  0.00  0.00    +0.027 A 
ATOM      2  C   UNL     1      -0.541   0.594   5.250  0.00  0.00    +0.025 A 
ATOM      3  C   UNL     1      -0.790   1.064   6.524  0.00  0.00    +0.025 A 
ATOM      4  C   UNL     1      -2.088   1.369   6.910  0.00  0.00    +0.035 A 
ATOM      5  C   UNL     1      -3.137   1.202   6.015  0.00  0.00    +0.025 A 
ATOM      6  C   UNL     1      -2.888   0.737   4.739  0.00  0.00    +0.025 A 
ENDROOT
BRANCH   4   7
ATOM      7  N   UNL     1      -2.341   1.846   8.204  0.00  0.00    -0.270 N 
ATOM      8  C   UNL     1      -1.430   2.620   8.826  0.00  0.00    +0.301 C 
ATOM      9  O   UNL     1      -0.434   2.985   8.232  0.00  0.00    -0.253 OA
ATOM     10  N   UNL     1      -1.623   2.990  10.108  0.00  0.00    -0.313 N 
ATOM     11  H   UNL     1      -3.171   1.618   8.651  0.00  0.00    +0.156 HD
ATOM     12  H   UNL     1      -2.418   2.699  10.582  0.00  0.00    +0.146 HD
ATOM     13  H   UNL     1      -0.968   3.547  10.556  0.00  0.00    +0.146 HD
ENDBRANCH   4   7
BRANCH   1  14
ATOM     14  N   UNL     1      -1.338  -0.050   3.063  0.00  0.00    -0.339 N 
ATOM     15  H   UNL     1      -2.070  -0.163   2.436  0.00  0.00    +0.146 HD
BRANCH  14  16
ATOM     16  C   UNL     1       0.031  -0.378   2.657  0.00  0.00    +0.144 C 
BRANCH  16  22
ATOM     17  C   UNL     1       0.348   1.342   0.132  0.00  0.00    +0.044 C 
ATOM     18  C   UNL     1       0.165  -0.153   0.086  0.00  0.00    -0.039 A 
ATOM     19  C   UNL     1       0.139  -0.820  -1.125  0.00  0.00    +0.011 A 
ATOM     20  C   UNL     1      -0.027  -2.165  -1.131  0.00  0.00    +0.046 A 
ATOM     21  S   UNL     1      -0.153  -2.530   0.612  0.00  0.00    -0.100 S 
ATOM     22  C   UNL     1       0.029  -0.865   1.231  0.00  0.00    +0.010 A 
ENDBRANCH  16  22
ENDBRANCH  14  16
ENDBRANCH   1  14
TORSDOF 4
