REMARK  Name = ZINC58201428
REMARK  12 active torsions:
REMARK  status: ('A' for Active; 'I' for Inactive)
REMARK    1  A    between atoms: C_1  and  C_2
REMARK    2  A    between atoms: C_5  and  N_13
REMARK    3  A    between atoms: C_7  and  N_8
REMARK    4  A    between atoms: N_8  and  S_9
REMARK    5  A    between atoms: S_9  and  C_12
REMARK    6  A    between atoms: N_13  and  C_14
REMARK    7  A    between atoms: C_14  and  C_16
REMARK    8  A    between atoms: C_14  and  C_17
REMARK    9  A    between atoms: N_22  and  C_23
REMARK   10  A    between atoms: C_23  and  C_24
REMARK   11  A    between atoms: C_23  and  C_25
REMARK   12  A    between atoms: C_23  and  C_26
REMARK                            x       y       z     vdW  Elec       q    Type
REMARK                         _______ _______ _______ _____ _____    ______ ____
ROOT
ATOM      1  N   UNL     1       0.058  -4.172  -0.027  0.00  0.00    -0.333 N 
ATOM      2  H   UNL     1       0.069  -4.665   0.808  0.00  0.00    +0.147 HD
ENDROOT
BRANCH   1   7
ATOM      3  C   UNL     1      -0.018   1.503   0.010  0.00  0.00    +0.046 C 
ATOM      4  C   UNL     1       0.002  -0.004   0.002  0.00  0.00    -0.026 A 
ATOM      5  C   UNL     1       0.006  -0.688  -1.199  0.00  0.00    +0.007 A 
ATOM      6  C   UNL     1       0.024  -2.069  -1.211  0.00  0.00    +0.023 A 
ATOM      7  C   UNL     1       0.040  -2.776  -0.014  0.00  0.00    +0.030 A 
ATOM      8  C   UNL     1       0.036  -2.092   1.193  0.00  0.00    +0.049 A 
ATOM      9  C   UNL     1       0.023  -0.704   1.202  0.00  0.00    +0.079 A 
BRANCH   9  10
ATOM     10  N   UNL     1       0.025  -0.013   2.415  0.00  0.00    -0.103 NA
BRANCH  10  11
ATOM     11  S   UNL     1       0.050  -0.848   3.845  0.00  0.00    +0.059 S 
ATOM     12  O   UNL     1      -1.175  -1.568   3.865  0.00  0.00    -0.154 OA
ATOM     13  O   UNL     1       1.294  -1.535   3.842  0.00  0.00    -0.154 OA
ATOM     14  C   UNL     1       0.046   0.430   5.132  0.00  0.00    +0.220 C 
ENDBRANCH  10  11
ENDBRANCH   9  10
ENDBRANCH   1   7
BRANCH   1  15
ATOM     15  C   UNL     1       0.061  -4.893  -1.303  0.00  0.00    +0.154 C 
ATOM     16  C   UNL     1       1.498  -5.015  -1.816  0.00  0.00    +0.038 C 
BRANCH  15  17
ATOM     17  C   UNL     1      -0.520  -6.269  -1.104  0.00  0.00    +0.240 C 
ATOM     18  O   UNL     1      -0.899  -6.613  -0.005  0.00  0.00    -0.273 OA
ATOM     19  N   UNL     1      -0.618  -7.116  -2.147  0.00  0.00    -0.239 N 
ATOM     20  C   UNL     1      -1.138  -8.347  -1.969  0.00  0.00    +0.306 C 
ATOM     21  O   UNL     1      -1.518  -8.692  -0.868  0.00  0.00    -0.252 OA
ATOM     22  N   UNL     1      -1.236  -9.194  -3.013  0.00  0.00    -0.294 N 
ATOM     23  H   UNL     1      -0.314  -6.840  -3.026  0.00  0.00    +0.159 HD
ATOM     24  H   UNL     1      -0.932  -8.919  -3.892  0.00  0.00    +0.151 HD
BRANCH  22  25
ATOM     25  C   UNL     1      -1.801 -10.532  -2.819  0.00  0.00    +0.028 C 
ATOM     26  C   UNL     1      -3.237 -10.410  -2.306  0.00  0.00    +0.031 C 
ATOM     27  C   UNL     1      -1.797 -11.285  -4.151  0.00  0.00    +0.031 C 
ATOM     28  C   UNL     1      -0.958 -11.299  -1.798  0.00  0.00    +0.031 C 
ENDBRANCH  22  25
ENDBRANCH  15  17
ENDBRANCH   1  15
TORSDOF 6
