REMARK  Name = ZINC40962273
REMARK  16 active torsions:
REMARK  status: ('A' for Active; 'I' for Inactive)
REMARK    1  A    between atoms: C_1  and  C_2
REMARK    2  A    between atoms: C_3  and  C_17
REMARK    3  A    between atoms: C_5  and  C_7
REMARK    4  A    between atoms: C_11  and  O_15
REMARK    5  A    between atoms: C_12  and  O_13
REMARK    6  A    between atoms: O_13  and  C_14
REMARK    7  A    between atoms: O_15  and  C_16
REMARK    8  A    between atoms: C_17  and  N_18
REMARK    9  A    between atoms: N_21  and  C_24
REMARK   10  A    between atoms: C_24  and  C_25
REMARK   11  A    between atoms: C_28  and  O_35
REMARK   12  A    between atoms: C_29  and  O_33
REMARK   13  A    between atoms: C_30  and  O_31
REMARK   14  A    between atoms: O_31  and  C_32
REMARK   15  A    between atoms: O_33  and  C_34
REMARK   16  A    between atoms: O_35  and  C_36
REMARK                            x       y       z     vdW  Elec       q    Type
REMARK                         _______ _______ _______ _____ _____    ______ ____
ROOT
ATOM      1  N   UNL     1      -2.988  -0.232  -1.371  0.00  0.00    +0.385 N 
ATOM      2  C   UNL     1      -2.255   0.860  -2.025  0.00  0.00    -0.063 C 
ATOM      3  C   UNL     1      -2.736   1.003  -3.470  0.00  0.00    +0.066 C 
ATOM      4  N   UNL     1      -4.179   1.285  -3.478  0.00  0.00    -0.302 NA
ATOM      5  C   UNL     1      -4.924   0.212  -2.804  0.00  0.00    +0.066 C 
ATOM      6  C   UNL     1      -4.424   0.076  -1.364  0.00  0.00    -0.063 C 
ATOM      7  H   UNL     1      -2.830  -1.091  -1.875  0.00  0.00    -0.081 HD
ENDROOT
BRANCH   1   8
ATOM      8  C   UNL     1      -2.513  -0.381   0.011  0.00  0.00    -0.019 C 
BRANCH   8  11
ATOM      9  C   UNL     1      -0.018   1.503   0.010  0.00  0.00    +0.088 C 
ATOM     10  C   UNL     1       0.002  -0.004   0.002  0.00  0.00    +0.124 A 
ATOM     11  C   UNL     1      -1.070  -0.816   0.003  0.00  0.00    +0.066 A 
ATOM     12  N   UNL     1      -0.627  -2.083  -0.006  0.00  0.00    -0.216 NA
ATOM     13  C   UNL     1       0.686  -2.068  -0.012  0.00  0.00    +0.231 A 
ATOM     14  O   UNL     1       1.099  -0.788  -0.013  0.00  0.00    -0.440 OA
BRANCH  13  15
ATOM     15  C   UNL     1       1.562  -3.257  -0.023  0.00  0.00    +0.082 A 
ATOM     16  C   UNL     1       1.006  -4.538  -0.033  0.00  0.00    +0.017 A 
ATOM     17  C   UNL     1       1.826  -5.646  -0.043  0.00  0.00    +0.005 A 
ATOM     18  C   UNL     1       3.203  -5.496  -0.042  0.00  0.00    +0.049 A 
ATOM     19  C   UNL     1       3.768  -4.231  -0.032  0.00  0.00    +0.162 A 
ATOM     20  C   UNL     1       2.952  -3.105  -0.028  0.00  0.00    +0.174 A 
BRANCH  20  21
ATOM     21  O   UNL     1       3.503  -1.863  -0.024  0.00  0.00    -0.491 OA
ATOM     22  C   UNL     1       3.772  -1.277   1.251  0.00  0.00    +0.277 C 
ENDBRANCH  20  21
BRANCH  19  23
ATOM     23  O   UNL     1       5.121  -4.091  -0.031  0.00  0.00    -0.491 OA
ATOM     24  C   UNL     1       5.897  -5.290  -0.040  0.00  0.00    +0.277 C 
ENDBRANCH  19  23
ENDBRANCH  13  15
ENDBRANCH   8  11
ENDBRANCH   1   8
BRANCH   4  25
ATOM     25  C   UNL     1      -4.669   1.486  -4.848  0.00  0.00    +0.123 C 
BRANCH  25  26
ATOM     26  C   UNL     1      -6.081   2.010  -4.805  0.00  0.00    +0.012 A 
ATOM     27  C   UNL     1      -7.144   1.148  -5.002  0.00  0.00    +0.012 A 
ATOM     28  C   UNL     1      -8.441   1.623  -4.963  0.00  0.00    +0.050 A 
ATOM     29  C   UNL     1      -8.681   2.969  -4.726  0.00  0.00    +0.165 A 
ATOM     30  C   UNL     1      -7.616   3.838  -4.527  0.00  0.00    +0.204 A 
ATOM     31  C   UNL     1      -6.313   3.355  -4.561  0.00  0.00    +0.170 A 
BRANCH  31  32
ATOM     32  O   UNL     1      -5.268   4.201  -4.362  0.00  0.00    -0.491 OA
ATOM     33  C   UNL     1      -4.720   4.840  -5.517  0.00  0.00    +0.277 C 
ENDBRANCH  31  32
BRANCH  30  34
ATOM     34  O   UNL     1      -7.848   5.159  -4.293  0.00  0.00    -0.488 OA
ATOM     35  C   UNL     1      -8.005   5.559  -2.931  0.00  0.00    +0.277 C 
ENDBRANCH  30  34
BRANCH  29  36
ATOM     36  O   UNL     1      -9.958   3.436  -4.689  0.00  0.00    -0.491 OA
ATOM     37  C   UNL     1     -11.003   2.485  -4.902  0.00  0.00    +0.277 C 
ENDBRANCH  29  36
ENDBRANCH  25  26
ENDBRANCH   4  25
TORSDOF 10
