REMARK  Name = ZINC19904760
REMARK  13 active torsions:
REMARK  status: ('A' for Active; 'I' for Inactive)
REMARK    1  A    between atoms: C_1  and  C_2
REMARK    2  A    between atoms: C_3  and  C_35
REMARK    3  A    between atoms: C_4  and  C_25
REMARK    4  A    between atoms: C_10  and  C_15
REMARK    5  A    between atoms: C_18  and  O_23
REMARK    6  A    between atoms: C_19  and  O_21
REMARK    7  A    between atoms: O_21  and  C_22
REMARK    8  A    between atoms: O_23  and  C_24
REMARK    9  A    between atoms: C_35  and  O_37
REMARK   10  A    between atoms: O_37  and  C_38
REMARK   11  A    between atoms: C_38  and  C_39
REMARK   12  A    between atoms: C_39  and  O_40
REMARK   13  A    between atoms: O_40  and  C_41
REMARK                            x       y       z     vdW  Elec       q    Type
REMARK                         _______ _______ _______ _____ _____    ______ ____
ROOT
ATOM      1  C   UNL     1       1.633  -0.367  -0.420  0.00  0.00    +0.061 C 
ATOM      2  C   UNL     1       1.958   1.099  -0.290  0.00  0.00    +0.016 C 
ATOM      3  C   UNL     1       0.970   2.008  -0.331  0.00  0.00    +0.065 C 
ATOM      4  C   UNL     1       1.257   3.477  -0.220  0.00  0.00    +0.093 C 
ATOM      5  C   UNL     1       2.629   3.715   0.364  0.00  0.00    +0.024 C 
ATOM      6  C   UNL     1       3.553   2.731   0.378  0.00  0.00    +0.016 C 
ATOM      7  N   UNL     1       3.257   1.494  -0.131  0.00  0.00    -0.321 N 
ATOM      8  C   UNL     1       4.927   2.962   0.954  0.00  0.00    +0.059 C 
ATOM      9  C   UNL     1       5.324   4.428   0.764  0.00  0.00    +0.032 C 
ATOM     10  C   UNL     1       4.275   5.308   1.452  0.00  0.00    +0.088 C 
ATOM     11  C   UNL     1       2.919   4.989   0.883  0.00  0.00    +0.162 C 
ATOM     12  O   UNL     1       2.060   5.848   0.872  0.00  0.00    -0.292 OA
ATOM     13  H   UNL     1       4.077   0.817  -0.413  0.00  0.00    +0.152 HD
ENDROOT
BRANCH   4  14
ATOM     14  C   UNL     1       1.182   4.101  -1.589  0.00  0.00    -0.027 A 
ATOM     15  C   UNL     1       2.088   3.762  -2.547  0.00  0.00    +0.005 A 
ATOM     16  C   UNL     1       2.034   4.328  -3.818  0.00  0.00    +0.001 A 
ATOM     17  C   UNL     1       1.074   5.238  -4.140  0.00  0.00    +0.008 A 
ATOM     18  C   UNL     1       0.121   5.613  -3.178  0.00  0.00    -0.018 A 
ATOM     19  C   UNL     1       0.173   5.033  -1.886  0.00  0.00    -0.014 A 
ATOM     20  C   UNL     1      -0.777   5.412  -0.921  0.00  0.00    +0.009 A 
ATOM     21  C   UNL     1      -1.737   6.322  -1.243  0.00  0.00    +0.001 A 
ATOM     22  C   UNL     1      -1.790   6.889  -2.515  0.00  0.00    +0.001 A 
ATOM     23  C   UNL     1      -0.885   6.550  -3.473  0.00  0.00    +0.008 A 
ENDBRANCH   4  14
BRANCH   9  24
ATOM     24  C   UNL     1       6.676   4.676   1.382  0.00  0.00    -0.040 A 
ATOM     25  C   UNL     1       6.873   4.436   2.729  0.00  0.00    +0.008 A 
ATOM     26  C   UNL     1       8.112   4.661   3.300  0.00  0.00    +0.049 A 
ATOM     27  C   UNL     1       9.159   5.128   2.522  0.00  0.00    +0.161 A 
ATOM     28  C   UNL     1       8.961   5.368   1.166  0.00  0.00    +0.162 A 
ATOM     29  C   UNL     1       7.718   5.136   0.599  0.00  0.00    +0.053 A 
BRANCH  28  30
ATOM     30  O   UNL     1       9.986   5.826   0.398  0.00  0.00    -0.491 OA
ATOM     31  C   UNL     1       9.709   6.051  -0.986  0.00  0.00    +0.277 C 
ENDBRANCH  28  30
BRANCH  27  32
ATOM     32  O   UNL     1      10.378   5.349   3.083  0.00  0.00    -0.491 OA
ATOM     33  C   UNL     1      10.509   5.080   4.480  0.00  0.00    +0.277 C 
ENDBRANCH  27  32
ENDBRANCH   9  24
BRANCH   3  34
ATOM     34  C   UNL     1      -0.367   1.573  -0.489  0.00  0.00    +0.338 C 
ATOM     35  O   UNL     1      -1.114   1.543   0.471  0.00  0.00    -0.245 OA
BRANCH  34  36
ATOM     36  O   UNL     1      -0.812   1.187  -1.703  0.00  0.00    -0.459 OA
BRANCH  36  37
ATOM     37  C   UNL     1      -2.171   0.754  -1.788  0.00  0.00    +0.260 C 
BRANCH  37  38
ATOM     38  C   UNL     1      -2.491   0.358  -3.231  0.00  0.00    +0.200 C 
BRANCH  38  39
ATOM     39  O   UNL     1      -1.708  -0.780  -3.597  0.00  0.00    -0.380 OA
ATOM     40  C   UNL     1      -1.932  -1.233  -4.934  0.00  0.00    +0.194 C 
ENDBRANCH  38  39
ENDBRANCH  37  38
ENDBRANCH  36  37
ENDBRANCH  34  36
ENDBRANCH   3  34
TORSDOF 9
