REMARK  Name = ZINC29300731
REMARK  5 active torsions:
REMARK  status: ('A' for Active; 'I' for Inactive)
REMARK    1  A    between atoms: C_1  and  C_2
REMARK    2  A    between atoms: C_7  and  C_8
REMARK    3  A    between atoms: C_10  and  C_13
REMARK    4  A    between atoms: C_13  and  N_14
REMARK    5  A    between atoms: C_22  and  C_23
REMARK                            x       y       z     vdW  Elec       q    Type
REMARK                         _______ _______ _______ _____ _____    ______ ____
ROOT
ATOM      1  C   UNL     1      -0.025  -0.178   6.195  0.00  0.00    +0.222 C 
ENDROOT
BRANCH   1   2
ATOM      2  N   UNL     1       1.366  -0.059   6.639  0.00  0.00    -0.311 N 
ATOM      3  C   UNL     1       2.311  -1.065   6.648  0.00  0.00    +0.069 A 
ATOM      4  C   UNL     1       2.301  -2.405   6.284  0.00  0.00    +0.028 A 
ATOM      5  C   UNL     1       3.447  -3.159   6.421  0.00  0.00    +0.002 A 
ATOM      6  C   UNL     1       4.609  -2.587   6.920  0.00  0.00    +0.002 A 
ATOM      7  C   UNL     1       4.638  -1.271   7.283  0.00  0.00    +0.030 A 
ATOM      8  C   UNL     1       3.488  -0.487   7.153  0.00  0.00    +0.090 A 
ATOM      9  N   UNL     1       3.207   0.814   7.420  0.00  0.00    -0.224 NA
ATOM     10  C   UNL     1       1.967   1.065   7.114  0.00  0.00    +0.216 A 
BRANCH  10  11
ATOM     11  C   UNL     1       1.295   2.405   7.266  0.00  0.00    +0.451 C 
ATOM     12  F   UNL     1       2.266   3.396   7.448  0.00  0.00    -0.163 F 
ATOM     13  F   UNL     1       0.551   2.687   6.115  0.00  0.00    -0.163 F 
ATOM     14  F   UNL     1       0.444   2.376   8.376  0.00  0.00    -0.163 F 
ENDBRANCH  10  11
ENDBRANCH   1   2
BRANCH   1  17
ATOM     15  C   UNL     1      -0.122  -0.120   2.567  0.00  0.00    +0.202 A 
ATOM     16  N   UNL     1       0.006  -0.736   3.756  0.00  0.00    -0.190 NA
ATOM     17  C   UNL     1      -0.110   0.129   4.722  0.00  0.00    +0.248 A 
ATOM     18  O   UNL     1      -0.317   1.339   4.186  0.00  0.00    -0.336 OA
ATOM     19  N   UNL     1      -0.316   1.159   2.777  0.00  0.00    -0.056 NA
BRANCH  15  26
ATOM     20  C   UNL     1       2.011  -1.993   2.010  0.00  0.00    +0.044 C 
ATOM     21  C   UNL     1       0.975  -1.681   0.961  0.00  0.00    -0.040 A 
ATOM     22  C   UNL     1       1.035  -2.294  -0.274  0.00  0.00    +0.004 A 
ATOM     23  C   UNL     1       0.085  -2.008  -1.238  0.00  0.00    +0.000 A 
ATOM     24  C   UNL     1      -0.930  -1.107  -0.970  0.00  0.00    +0.001 A 
ATOM     25  C   UNL     1      -1.000  -0.489   0.262  0.00  0.00    +0.012 A 
ATOM     26  C   UNL     1      -0.048  -0.777   1.238  0.00  0.00    +0.025 A 
ENDBRANCH  15  26
ENDBRANCH   1  17
TORSDOF 4
