REMARK  Name = ZINC01337552
REMARK  10 active torsions:
REMARK  status: ('A' for Active; 'I' for Inactive)
REMARK    1  A    between atoms: C_1  and  C_2
REMARK    2  A    between atoms: C_5  and  C_7
REMARK    3  A    between atoms: C_7  and  C_9
REMARK    4  A    between atoms: C_7  and  N_15
REMARK    5  A    between atoms: N_11  and  C_12
REMARK    6  A    between atoms: N_15  and  C_16
REMARK    7  A    between atoms: C_23  and  C_25
REMARK    8  A    between atoms: C_25  and  N_26
REMARK    9  A    between atoms: C_28  and  C_31
REMARK   10  A    between atoms: C_34  and  C_37
REMARK                            x       y       z     vdW  Elec       q    Type
REMARK                         _______ _______ _______ _____ _____    ______ ____
ROOT
ATOM      1  N   UNL     1      -4.749   2.230   2.810  0.00  0.00    -0.251 N 
ATOM      2  C   UNL     1      -5.739   1.417   3.227  0.00  0.00    +0.244 C 
ATOM      3  O   UNL     1      -5.635   0.826   4.281  0.00  0.00    -0.273 OA
ENDROOT
BRANCH   1   4
ATOM      4  C   UNL     1      -4.799   2.794   1.529  0.00  0.00    +0.038 A 
ATOM      5  C   UNL     1      -4.042   3.920   1.235  0.00  0.00    +0.026 A 
ATOM      6  C   UNL     1      -4.088   4.471  -0.030  0.00  0.00    +0.040 A 
ATOM      7  C   UNL     1      -4.897   3.908  -1.003  0.00  0.00    +0.124 A 
ATOM      8  C   UNL     1      -5.657   2.788  -0.710  0.00  0.00    +0.040 A 
ATOM      9  C   UNL     1      -5.609   2.230   0.553  0.00  0.00    +0.026 A 
ATOM     10  F   UNL     1      -4.945   4.451  -2.239  0.00  0.00    -0.205 F 
ENDBRANCH   1   4
BRANCH   1  11
ATOM     11  C   UNL     1      -3.620   2.525   3.696  0.00  0.00    +0.233 C 
BRANCH  11  16
ATOM     12  C   UNL     1      -0.106   1.618   0.194  0.00  0.00    +0.086 C 
ATOM     13  C   UNL     1      -0.811   1.673   1.525  0.00  0.00    +0.102 A 
ATOM     14  C   UNL     1      -0.326   1.213   2.692  0.00  0.00    +0.045 A 
ATOM     15  C   UNL     1      -1.311   1.468   3.674  0.00  0.00    +0.047 A 
ATOM     16  C   UNL     1      -2.339   2.068   3.048  0.00  0.00    +0.135 A 
ATOM     17  O   UNL     1      -2.029   2.195   1.747  0.00  0.00    -0.462 OA
ENDBRANCH  11  16
BRANCH  11  18
ATOM     18  C   UNL     1      -3.554   4.009   3.949  0.00  0.00    +0.242 C 
ATOM     19  O   UNL     1      -4.369   4.748   3.438  0.00  0.00    -0.273 OA
ATOM     20  N   UNL     1      -2.589   4.515   4.742  0.00  0.00    -0.311 N 
ATOM     21  H   UNL     1      -1.937   3.924   5.150  0.00  0.00    +0.149 HD
BRANCH  20  22
ATOM     22  C   UNL     1      -2.524   5.958   4.987  0.00  0.00    +0.073 C 
ATOM     23  C   UNL     1      -1.147   6.623   4.933  0.00  0.00    +0.024 C 
ATOM     24  C   UNL     1      -1.849   6.426   6.278  0.00  0.00    +0.024 C 
ENDBRANCH  20  22
ENDBRANCH  11  18
ENDBRANCH   1  11
BRANCH   2  25
ATOM     25  C   UNL     1      -6.976   1.242   2.384  0.00  0.00    +0.264 C 
BRANCH  25  26
ATOM     26  N   UNL     1      -8.133   1.016   3.255  0.00  0.00    -0.154 N 
ATOM     27  N   UNL     1      -8.550  -0.136   3.655  0.00  0.00    -0.130 NA
ATOM     28  C   UNL     1      -9.605   0.061   4.420  0.00  0.00    +0.205 A 
ATOM     29  N   UNL     1      -9.810   1.385   4.458  0.00  0.00    -0.108 NA
ATOM     30  N   UNL     1      -8.894   1.935   3.737  0.00  0.00    -0.045 NA
BRANCH  28  31
ATOM     31  C   UNL     1     -10.413  -0.982   5.103  0.00  0.00    +0.023 A 
ATOM     32  C   UNL     1     -10.079  -2.327   4.964  0.00  0.00    +0.012 A 
ATOM     33  C   UNL     1     -10.829  -3.292   5.605  0.00  0.00    +0.013 A 
ATOM     34  C   UNL     1     -11.918  -2.925   6.375  0.00  0.00    +0.055 A 
ATOM     35  C   UNL     1     -12.258  -1.591   6.512  0.00  0.00    +0.013 A 
ATOM     36  C   UNL     1     -11.510  -0.618   5.879  0.00  0.00    +0.012 A 
BRANCH  34  37
ATOM     37  C   UNL     1     -12.739  -3.983   7.067  0.00  0.00    +0.417 C 
ATOM     38  F   UNL     1     -13.772  -4.400   6.221  0.00  0.00    -0.166 F 
ATOM     39  F   UNL     1     -11.922  -5.076   7.379  0.00  0.00    -0.166 F 
ATOM     40  F   UNL     1     -13.283  -3.456   8.243  0.00  0.00    -0.166 F 
ENDBRANCH  34  37
ENDBRANCH  28  31
ENDBRANCH  25  26
ENDBRANCH   2  25
TORSDOF 9
