REMARK  Name = ZINC39571040
REMARK  3 active torsions:
REMARK  status: ('A' for Active; 'I' for Inactive)
REMARK    1  A    between atoms: C_6  and  C_7
REMARK    2  A    between atoms: C_7  and  C_9
REMARK    3  A    between atoms: C_7  and  C_21
REMARK                            x       y       z     vdW  Elec       q    Type
REMARK                         _______ _______ _______ _____ _____    ______ ____
ROOT
ATOM      1  C   UNL     1      -1.375  -1.649  -1.242  0.00  0.00    +0.192 C 
ATOM      2  C   UNL     1      -1.292  -0.770  -2.460  0.00  0.00    +0.242 C 
ATOM      3  O   UNL     1      -0.223  -0.588  -3.002  0.00  0.00    -0.273 OA
ATOM      4  N   UNL     1      -2.409  -0.180  -2.956  0.00  0.00    -0.252 N 
ATOM      5  C   UNL     1      -3.612  -0.533  -2.341  0.00  0.00    +0.242 A 
ATOM      6  N   UNL     1      -4.784   0.018  -2.417  0.00  0.00    -0.110 NA
ATOM      7  N   UNL     1      -5.659  -0.722  -1.605  0.00  0.00    -0.110 NA
ATOM      8  C   UNL     1      -4.977  -1.705  -1.062  0.00  0.00    +0.233 A 
ATOM      9  N   UNL     1      -3.696  -1.618  -1.500  0.00  0.00    -0.202 N 
ATOM     10  N   UNL     1      -2.627  -2.413  -1.212  0.00  0.00    -0.266 N 
ATOM     11  N   UNL     1      -5.478  -2.664  -0.192  0.00  0.00    -0.326 N 
ATOM     12  H   UNL     1      -2.374   0.449  -3.694  0.00  0.00    +0.158 HD
ATOM     13  H   UNL     1      -2.584  -3.202  -1.841  0.00  0.00    +0.167 HD
ATOM     14  H   UNL     1      -6.413  -2.644   0.064  0.00  0.00    +0.145 HD
ATOM     15  H   UNL     1      -4.893  -3.353   0.159  0.00  0.00    +0.145 HD
ENDROOT
BRANCH   1  16
ATOM     16  C   UNL     1      -1.293  -0.775   0.011  0.00  0.00    +0.162 C 
BRANCH  16  22
ATOM     17  C   UNL     1      -0.017   1.378   0.010  0.00  0.00    +0.006 A 
ATOM     18  C   UNL     1       1.171   2.086   0.002  0.00  0.00    +0.020 A 
ATOM     19  C   UNL     1       2.378   1.410  -0.013  0.00  0.00    +0.041 A 
ATOM     20  C   UNL     1       2.396   0.027  -0.021  0.00  0.00    +0.020 A 
ATOM     21  C   UNL     1       1.208  -0.679  -0.013  0.00  0.00    +0.006 A 
ATOM     22  C   UNL     1       0.002  -0.004   0.002  0.00  0.00    -0.031 A 
ATOM     23 CL   UNL     1       3.870   2.298  -0.023  0.00  0.00    -0.084 Cl
ENDBRANCH  16  22
BRANCH  16  24
ATOM     24  C   UNL     1      -1.349  -1.649   1.237  0.00  0.00    +0.366 C 
ATOM     25  O   UNL     1      -0.423  -1.646   2.031  0.00  0.00    -0.246 OA
ATOM     26  O   UNL     1      -2.320  -2.359   1.436  0.00  0.00    -0.246 OA
ENDBRANCH  16  24
ENDBRANCH   1  16
TORSDOF 3
