REMARK  Name = ZINC62134707
REMARK  2 active torsions:
REMARK  status: ('A' for Active; 'I' for Inactive)
REMARK    1  A    between atoms: C_5  and  C_7
REMARK    2  A    between atoms: C_15  and  C_18
REMARK                            x       y       z     vdW  Elec       q    Type
REMARK                         _______ _______ _______ _____ _____    ______ ____
ROOT
ATOM      1  C   UNL     1      -0.042   1.629  -0.265  0.00  0.00    +0.035 C 
ATOM      2  C   UNL     1       1.461   1.966  -0.177  0.00  0.00    +0.110 C 
ATOM      3  N   UNL     1       2.202   0.785  -0.643  0.00  0.00    -0.285 N 
ATOM      4  C   UNL     1       1.234  -0.254  -1.038  0.00  0.00    +0.124 C 
ATOM      5  C   UNL     1      -0.052   0.077  -0.240  0.00  0.00    +0.121 C 
ATOM      6  C   UNL     1       3.543   0.672  -0.701  0.00  0.00    +0.305 C 
ATOM      7  O   UNL     1       4.052  -0.395  -0.989  0.00  0.00    -0.252 OA
ATOM      8  N   UNL     1       4.322   1.740  -0.439  0.00  0.00    -0.285 N 
ATOM      9  C   UNL     1       3.744   2.967   0.126  0.00  0.00    +0.110 C 
ATOM     10  C   UNL     1       4.135   4.152  -0.764  0.00  0.00    +0.032 C 
ATOM     11  C   UNL     1       5.657   4.187  -0.919  0.00  0.00    +0.078 C 
ATOM     12  C   UNL     1       6.133   2.899  -1.593  0.00  0.00    +0.032 C 
ATOM     13  C   UNL     1       5.766   1.698  -0.708  0.00  0.00    +0.110 C 
ENDROOT
BRANCH  11  14
ATOM     14  C   UNL     1       6.048   5.371  -1.766  0.00  0.00    +0.214 C 
ATOM     15  O   UNL     1       5.193   6.113  -2.203  0.00  0.00    -0.276 OA
ATOM     16  N   UNL     1       7.347   5.605  -2.038  0.00  0.00    -0.329 N 
ATOM     17  H   UNL     1       8.030   5.012  -1.689  0.00  0.00    +0.145 HD
ATOM     18  H   UNL     1       7.598   6.367  -2.583  0.00  0.00    +0.145 HD
ENDBRANCH  11  14
BRANCH   5  19
ATOM     19  C   UNL     1      -1.274  -0.466  -0.935  0.00  0.00    +0.361 C 
ATOM     20  O   UNL     1      -2.103   0.298  -1.397  0.00  0.00    -0.246 OA
ATOM     21  O   UNL     1      -1.433  -1.671  -1.034  0.00  0.00    -0.246 OA
ENDBRANCH   5  19
TORSDOF 2
