REMARK  Name = ZINC38918001
REMARK  11 active torsions:
REMARK  status: ('A' for Active; 'I' for Inactive)
REMARK    1  A    between atoms: C_1  and  C_2
REMARK    2  A    between atoms: C_19  and  C_21
REMARK    3  A    between atoms: C_21  and  N_22
REMARK    4  A    between atoms: N_22  and  C_23
REMARK    5  A    between atoms: C_23  and  C_24
REMARK    6  A    between atoms: C_24  and  C_25
REMARK    7  A    between atoms: C_25  and  C_33
REMARK    8  A    between atoms: C_29  and  C_31
REMARK    9  A    between atoms: C_29  and  C_32
REMARK   10  A    between atoms: C_36  and  O_39
REMARK   11  A    between atoms: O_39  and  C_40
REMARK                            x       y       z     vdW  Elec       q    Type
REMARK                         _______ _______ _______ _____ _____    ______ ____
ROOT
ATOM      1  N   UNL     1       4.524  -2.575   2.068  0.00  0.00    +0.380 N 
ATOM      2  H   UNL     1       5.048  -3.437   2.083  0.00  0.00    -0.086 HD
ATOM      3  H   UNL     1       4.271  -2.351   1.117  0.00  0.00    -0.086 HD
ENDROOT
BRANCH   1   4
ATOM      4  C   UNL     1       3.307  -2.729   2.876  0.00  0.00    -0.068 C 
BRANCH   4  20
ATOM      5  C   UNL     1      -1.036  -0.510   3.904  0.00  0.00    +0.012 C 
ATOM      6  C   UNL     1      -0.607  -1.980   3.840  0.00  0.00    -0.022 C 
ATOM      7  C   UNL     1      -1.709  -2.864   4.409  0.00  0.00    +0.007 C 
ATOM      8  C   UNL     1      -2.014  -2.510   5.863  0.00  0.00    +0.005 C 
ATOM      9  C   UNL     1      -0.758  -2.681   6.723  0.00  0.00    +0.030 C 
ATOM     10  C   UNL     1       0.372  -1.895   6.096  0.00  0.00    -0.073 C 
ATOM     11  C   UNL     1       1.056  -1.018   6.788  0.00  0.00    +0.008 C 
ATOM     12  C   UNL     1       0.690  -2.165   4.634  0.00  0.00    +0.021 C 
ATOM     13  C   UNL     1       1.164  -3.608   4.520  0.00  0.00    +0.016 C 
ATOM     14  C   UNL     1       1.215  -4.179   3.138  0.00  0.00    +0.042 C 
ATOM     15  C   UNL     1       0.040  -3.798   2.222  0.00  0.00    +0.181 C 
ATOM     16  C   UNL     1      -0.338  -2.327   2.379  0.00  0.00    +0.052 C 
ATOM     17  O   UNL     1       0.612  -3.931   0.893  0.00  0.00    -0.461 OA
ATOM     18  C   UNL     1       1.872  -3.451   0.950  0.00  0.00    +0.309 C 
ATOM     19  O   UNL     1       2.437  -2.819   0.093  0.00  0.00    -0.251 OA
ATOM     20  C   UNL     1       2.453  -3.853   2.299  0.00  0.00    +0.087 C 
ENDBRANCH   4  20
ENDBRANCH   1   4
BRANCH   1  21
ATOM     21  C   UNL     1       5.346  -1.492   2.623  0.00  0.00    -0.082 C 
BRANCH  21  22
ATOM     22  C   UNL     1       6.614  -1.331   1.782  0.00  0.00    -0.007 C 
BRANCH  22  23
ATOM     23  C   UNL     1       7.538  -0.306   2.443  0.00  0.00    -0.001 C 
ATOM     24  C   UNL     1       8.846  -0.210   1.651  0.00  0.00    +0.039 C 
ATOM     25  C   UNL     1       9.562  -1.562   1.698  0.00  0.00    +0.161 C 
ATOM     26  O   UNL     1       9.797  -1.929   3.059  0.00  0.00    -0.374 OA
ATOM     27  C   UNL     1       8.608  -2.080   3.836  0.00  0.00    +0.065 C 
ATOM     28  C   UNL     1       7.853  -0.749   3.875  0.00  0.00    +0.046 C 
ATOM     29  C   UNL     1       8.979  -2.498   5.260  0.00  0.00    +0.041 C 
ATOM     30  C   UNL     1       7.718  -3.152   3.204  0.00  0.00    +0.041 C 
BRANCH  23  31
ATOM     31  C   UNL     1       6.862   1.040   2.468  0.00  0.00    -0.041 A 
ATOM     32  C   UNL     1       6.525   1.621   3.677  0.00  0.00    +0.008 A 
ATOM     33  C   UNL     1       5.904   2.854   3.703  0.00  0.00    +0.046 A 
ATOM     34  C   UNL     1       5.619   3.511   2.514  0.00  0.00    +0.120 A 
ATOM     35  C   UNL     1       5.958   2.926   1.303  0.00  0.00    +0.046 A 
ATOM     36  C   UNL     1       6.583   1.695   1.283  0.00  0.00    +0.008 A 
BRANCH  34  37
ATOM     37  O   UNL     1       5.008   4.725   2.537  0.00  0.00    -0.495 OA
ATOM     38  C   UNL     1       4.745   5.342   1.275  0.00  0.00    +0.277 C 
ENDBRANCH  34  37
ENDBRANCH  23  31
ENDBRANCH  22  23
ENDBRANCH  21  22
ENDBRANCH   1  21
TORSDOF 7
