REMARK  Name = ZINC63641420
REMARK  3 active torsions:
REMARK  status: ('A' for Active; 'I' for Inactive)
REMARK    1  A    between atoms: C_2  and  C_3
REMARK    2  A    between atoms: C_3  and  N_4
REMARK    3  A    between atoms: C_7  and  C_13
REMARK                            x       y       z     vdW  Elec       q    Type
REMARK                         _______ _______ _______ _____ _____    ______ ____
ROOT
ATOM      1  C   UNL     1      -2.401  -1.752  -4.727  0.00  0.00    -0.003 C 
ATOM      2  C   UNL     1      -3.895  -1.454  -4.587  0.00  0.00    +0.097 C 
ATOM      3  C   UNL     1      -4.342  -0.884  -5.929  0.00  0.00    -0.041 C 
ATOM      4  C   UNL     1      -5.373  -1.617  -6.324  0.00  0.00    -0.001 A 
ATOM      5  C   UNL     1      -6.275  -1.502  -7.481  0.00  0.00    +0.010 A 
ATOM      6  C   UNL     1      -7.238  -2.455  -7.588  0.00  0.00    +0.001 A 
ATOM      7  C   UNL     1      -7.392  -3.500  -6.672  0.00  0.00    +0.002 A 
ATOM      8  C   UNL     1      -6.613  -3.679  -5.575  0.00  0.00    +0.026 A 
ATOM      9  C   UNL     1      -5.568  -2.737  -5.352  0.00  0.00    +0.043 A 
ATOM     10  N   UNL     1      -4.694  -2.658  -4.367  0.00  0.00    -0.379 N 
ATOM     11  C   UNL     1      -3.584   0.236  -6.601  0.00  0.00    +0.014 C 
ATOM     12  C   UNL     1      -2.097  -0.159  -6.542  0.00  0.00    -0.077 C 
ATOM     13  N   UNL     1      -1.723  -0.525  -5.174  0.00  0.00    +0.386 N 
ATOM     14  H   UNL     1      -1.970   0.231  -4.553  0.00  0.00    -0.085 HD
ATOM     15  H   UNL     1      -4.590  -3.282  -3.631  0.00  0.00    +0.160 HD
ATOM     16  H   UNL     1      -0.725  -0.668  -5.133  0.00  0.00    -0.085 HD
ENDROOT
BRANCH   1  20
ATOM     17  N   UNL     1      -1.318  -1.700  -1.126  0.00  0.00    -0.284 N 
ATOM     18  C   UNL     1      -1.821  -1.293  -2.308  0.00  0.00    +0.260 A 
ATOM     19  O   UNL     1      -2.254  -0.161  -2.434  0.00  0.00    -0.267 OA
ATOM     20  C   UNL     1      -1.843  -2.184  -3.396  0.00  0.00    +0.070 A 
ATOM     21  C   UNL     1      -1.352  -3.445  -3.229  0.00  0.00    +0.257 A 
ATOM     22  N   UNL     1      -0.849  -3.818  -2.009  0.00  0.00    -0.302 N 
ATOM     23  C   UNL     1      -0.833  -2.947  -0.983  0.00  0.00    +0.164 A 
ATOM     24  S   UNL     1      -0.193  -3.435   0.528  0.00  0.00    -0.013 S 
ATOM     25  O   UNL     1      -1.361  -4.321  -4.257  0.00  0.00    -0.267 OA
ATOM     26  H   UNL     1      -0.499  -4.714  -1.885  0.00  0.00    +0.171 HD
BRANCH  17  27
ATOM     27  C   UNL     1      -1.293  -0.775   0.010  0.00  0.00    +0.154 C 
BRANCH  27  29
ATOM     28  C   UNL     1      -0.016   1.306   0.009  0.00  0.00    +0.005 C 
ATOM     29  C   UNL     1       0.002  -0.004   0.002  0.00  0.00    -0.013 C 
ENDBRANCH  27  29
ENDBRANCH  17  27
ENDBRANCH   1  20
TORSDOF 3
