REMARK  Name = ZINC00305523
REMARK  8 active torsions:
REMARK  status: ('A' for Active; 'I' for Inactive)
REMARK    1  A    between atoms: C_1  and  C_2
REMARK    2  A    between atoms: C_7  and  N_8
REMARK    3  A    between atoms: C_9  and  C_11
REMARK    4  A    between atoms: C_15  and  N_16
REMARK    5  A    between atoms: C_18  and  C_22
REMARK    6  A    between atoms: C_22  and  C_23
REMARK    7  A    between atoms: C_22  and  C_24
REMARK    8  A    between atoms: C_22  and  C_25
REMARK                            x       y       z     vdW  Elec       q    Type
REMARK                         _______ _______ _______ _____ _____    ______ ____
ROOT
ATOM      1  C   UNL     1      -2.182   2.819   2.612  0.00  0.00    +0.068 A 
ATOM      2  C   UNL     1      -1.663   2.559   1.278  0.00  0.00    -0.023 A 
ATOM      3  C   UNL     1      -0.731   1.586   1.203  0.00  0.00    -0.004 A 
ATOM      4  S   UNL     1      -0.534   1.014   2.867  0.00  0.00    -0.078 S 
ATOM      5  C   UNL     1      -1.674   2.053   3.657  0.00  0.00    +0.076 A 
ATOM      6  C   UNL     1      -0.027   1.104  -0.028  0.00  0.00    +0.046 C 
ATOM      7  C   UNL     1      -0.789   1.622  -1.256  0.00  0.00    -0.000 C 
ATOM      8  C   UNL     1      -1.072   3.115  -1.067  0.00  0.00    +0.009 C 
ATOM      9  C   UNL     1      -2.116   3.312   0.033  0.00  0.00    +0.037 C 
ENDROOT
BRANCH   1  11
ATOM     10  N   UNL     1      -2.824   5.111   3.127  0.00  0.00    -0.281 N 
ATOM     11  C   UNL     1      -3.197   3.847   2.847  0.00  0.00    +0.251 C 
ATOM     12  O   UNL     1      -4.379   3.560   2.788  0.00  0.00    -0.270 OA
ATOM     13  H   UNL     1      -1.886   5.323   3.253  0.00  0.00    +0.155 HD
BRANCH  10  20
ATOM     14  C   UNL     1      -2.205   7.402   4.698  0.00  0.00    +0.045 C 
ATOM     15  C   UNL     1      -3.529   7.252   3.993  0.00  0.00    -0.029 A 
ATOM     16  C   UNL     1      -4.484   8.244   4.099  0.00  0.00    +0.005 A 
ATOM     17  C   UNL     1      -5.699   8.108   3.453  0.00  0.00    +0.000 A 
ATOM     18  C   UNL     1      -5.962   6.979   2.699  0.00  0.00    +0.002 A 
ATOM     19  C   UNL     1      -5.009   5.986   2.585  0.00  0.00    +0.023 A 
ATOM     20  C   UNL     1      -3.790   6.117   3.237  0.00  0.00    +0.037 A 
ENDBRANCH  10  20
ENDBRANCH   1  11
BRANCH   7  21
ATOM     21  C   UNL     1       0.060   1.415  -2.512  0.00  0.00    -0.035 C 
ATOM     22  C   UNL     1       0.356  -0.075  -2.688  0.00  0.00    +0.011 C 
ATOM     23  C   UNL     1      -0.701   1.932  -3.734  0.00  0.00    +0.011 C 
ATOM     24  C   UNL     1       1.376   2.183  -2.369  0.00  0.00    +0.011 C 
ENDBRANCH   7  21
BRANCH   5  25
ATOM     25  N   UNL     1      -2.000   2.108   4.999  0.00  0.00    -0.352 N 
ATOM     26  H   UNL     1      -1.567   1.510   5.628  0.00  0.00    +0.143 HD
ATOM     27  H   UNL     1      -2.662   2.744   5.312  0.00  0.00    +0.143 HD
ENDBRANCH   5  25
TORSDOF 4
