REMARK  Name = ZINC32684637
REMARK  9 active torsions:
REMARK  status: ('A' for Active; 'I' for Inactive)
REMARK    1  A    between atoms: C_1  and  O_2
REMARK    2  A    between atoms: O_2  and  C_3
REMARK    3  A    between atoms: C_5  and  N_31
REMARK    4  A    between atoms: C_8  and  N_9
REMARK    5  A    between atoms: C_10  and  C_12
REMARK    6  A    between atoms: C_12  and  N_13
REMARK    7  A    between atoms: C_21  and  S_22
REMARK    8  A    between atoms: S_22  and  C_23
REMARK    9  A    between atoms: C_23  and  C_24
REMARK                            x       y       z     vdW  Elec       q    Type
REMARK                         _______ _______ _______ _____ _____    ______ ____
ROOT
ATOM      1  N   UNL     1       3.502  -2.408   0.266  0.00  0.00    -0.310 N 
ATOM      2  C   UNL     1       3.405  -3.294  -0.795  0.00  0.00    +0.070 A 
ATOM      3  C   UNL     1       3.492  -3.157  -2.172  0.00  0.00    +0.028 A 
ATOM      4  C   UNL     1       3.347  -4.264  -2.982  0.00  0.00    +0.002 A 
ATOM      5  C   UNL     1       3.115  -5.514  -2.429  0.00  0.00    +0.002 A 
ATOM      6  C   UNL     1       3.026  -5.669  -1.063  0.00  0.00    +0.030 A 
ATOM      7  C   UNL     1       3.170  -4.557  -0.229  0.00  0.00    +0.090 A 
ATOM      8  N   UNL     1       3.135  -4.392   1.119  0.00  0.00    -0.222 NA
ATOM      9  C   UNL     1       3.335  -3.131   1.413  0.00  0.00    +0.171 A 
ENDROOT
BRANCH   1  10
ATOM     10  C   UNL     1       3.744  -0.966   0.175  0.00  0.00    +0.220 C 
BRANCH  10  12
ATOM     11  N   UNL     1       2.403   1.104  -0.015  0.00  0.00    -0.281 N 
ATOM     12  C   UNL     1       2.427  -0.240   0.078  0.00  0.00    +0.237 C 
ATOM     13  O   UNL     1       1.388  -0.866   0.085  0.00  0.00    -0.274 OA
ATOM     14  H   UNL     1       3.344   1.665  -0.113  0.00  0.00    +0.155 HD
BRANCH  11  20
ATOM     15  C   UNL     1       1.068   3.043  -0.579  0.00  0.00    +0.143 A 
ATOM     16  C   UNL     1      -0.144   3.714  -0.549  0.00  0.00    +0.080 A 
ATOM     17  C   UNL     1      -1.239   3.135   0.065  0.00  0.00    +0.130 A 
ATOM     18  C   UNL     1      -1.131   1.885   0.646  0.00  0.00    +0.035 A 
ATOM     19  C   UNL     1       0.076   1.213   0.626  0.00  0.00    +0.029 A 
ATOM     20  C   UNL     1       1.180   1.787   0.012  0.00  0.00    +0.076 A 
BRANCH  17  21
ATOM     21  N   UNL     1      -2.534   3.853   0.094  0.00  0.00    +0.057 N 
ATOM     22  O   UNL     1      -2.633   4.951  -0.422  0.00  0.00    -0.126 OA
ATOM     23  O   UNL     1      -3.500   3.345   0.634  0.00  0.00    -0.126 OA
ENDBRANCH  17  21
BRANCH  15  25
ATOM     24  C   UNL     1       1.958   4.902  -1.766  0.00  0.00    +0.277 C 
ATOM     25  O   UNL     1       2.146   3.611  -1.182  0.00  0.00    -0.493 OA
ENDBRANCH  15  25
ENDBRANCH  11  20
ENDBRANCH  10  12
ENDBRANCH   1  10
BRANCH   9  26
ATOM     26  S   UNL     1       3.378  -2.466   3.045  0.00  0.00    -0.083 S 
BRANCH  26  27
ATOM     27  C   UNL     1       3.090  -3.972   4.006  0.00  0.00    +0.112 C 
BRANCH  27  28
ATOM     28  C   UNL     1       3.085  -3.637   5.475  0.00  0.00    -0.037 A 
ATOM     29  C   UNL     1       4.262  -3.684   6.198  0.00  0.00    +0.007 A 
ATOM     30  C   UNL     1       4.259  -3.372   7.545  0.00  0.00    +0.038 A 
ATOM     31  C   UNL     1       3.075  -3.023   8.172  0.00  0.00    +0.123 A 
ATOM     32  C   UNL     1       1.896  -2.981   7.447  0.00  0.00    +0.038 A 
ATOM     33  C   UNL     1       1.902  -3.288   6.100  0.00  0.00    +0.007 A 
ATOM     34  F   UNL     1       3.071  -2.722   9.489  0.00  0.00    -0.205 F 
ENDBRANCH  27  28
ENDBRANCH  26  27
ENDBRANCH   9  26
TORSDOF 8
