REMARK  Name = ZINC15911158
REMARK  6 active torsions:
REMARK  status: ('A' for Active; 'I' for Inactive)
REMARK    1  A    between atoms: C_1  and  C_2
REMARK    2  A    between atoms: C_5  and  C_31
REMARK    3  A    between atoms: C_6  and  N_8
REMARK    4  A    between atoms: N_19  and  S_20
REMARK    5  A    between atoms: S_20  and  C_23
REMARK    6  A    between atoms: C_28  and  C_29
REMARK                            x       y       z     vdW  Elec       q    Type
REMARK                         _______ _______ _______ _____ _____    ______ ____
ROOT
ATOM      1  N   UNL     1       2.292   0.971  -0.017  0.00  0.00    -0.296 N 
ATOM      2  C   UNL     1       2.365  -0.396   0.208  0.00  0.00    +0.165 A 
ATOM      3  C   UNL     1       3.629  -1.026   0.304  0.00  0.00    +0.179 A 
ATOM      4  N   UNL     1       3.712  -2.323   0.518  0.00  0.00    -0.226 NA
ATOM      5  C   UNL     1       2.592  -3.051   0.645  0.00  0.00    +0.091 A 
ATOM      6  C   UNL     1       2.655  -4.435   0.873  0.00  0.00    +0.030 A 
ATOM      7  C   UNL     1       1.504  -5.152   0.999  0.00  0.00    +0.002 A 
ATOM      8  C   UNL     1       0.261  -4.532   0.904  0.00  0.00    +0.002 A 
ATOM      9  C   UNL     1       0.163  -3.192   0.682  0.00  0.00    +0.030 A 
ATOM     10  C   UNL     1       1.329  -2.421   0.548  0.00  0.00    +0.091 A 
ATOM     11  N   UNL     1       1.258  -1.098   0.336  0.00  0.00    -0.227 NA
ATOM     12  N   UNL     1       4.786  -0.274   0.173  0.00  0.00    -0.197 N 
ATOM     13  H   UNL     1       3.104   1.486  -0.147  0.00  0.00    +0.154 HD
ATOM     14  H   UNL     1       4.730   0.691   0.094  0.00  0.00    +0.175 HD
ENDROOT
BRANCH   1  20
ATOM     15  C   UNL     1      -2.487   0.850  -1.161  0.00  0.00    +0.044 C 
ATOM     16  C   UNL     1      -1.286   1.572  -0.607  0.00  0.00    -0.049 A 
ATOM     17  C   UNL     1      -1.415   2.866  -0.136  0.00  0.00    +0.004 A 
ATOM     18  C   UNL     1      -0.315   3.534   0.368  0.00  0.00    +0.005 A 
ATOM     19  C   UNL     1       0.916   2.909   0.409  0.00  0.00    -0.029 A 
ATOM     20  C   UNL     1       1.048   1.607  -0.057  0.00  0.00    +0.036 A 
ATOM     21  C   UNL     1      -0.060   0.939  -0.564  0.00  0.00    +0.027 A 
ATOM     22  C   UNL     1       2.115   3.638   0.958  0.00  0.00    +0.045 C 
ENDBRANCH   1  20
BRANCH  12  23
ATOM     23  S   UNL     1       6.263  -1.023   0.151  0.00  0.00    +0.074 S 
ATOM     24  O   UNL     1       6.170  -2.076  -0.799  0.00  0.00    -0.150 OA
ATOM     25  O   UNL     1       7.238   0.006   0.056  0.00  0.00    -0.150 OA
BRANCH  23  26
ATOM     26  C   UNL     1       6.484  -1.783   1.725  0.00  0.00    +0.112 A 
ATOM     27  C   UNL     1       6.623  -3.155   1.816  0.00  0.00    +0.032 A 
ATOM     28  C   UNL     1       6.798  -3.752   3.050  0.00  0.00    +0.040 A 
ATOM     29  C   UNL     1       6.834  -2.975   4.196  0.00  0.00    +0.124 A 
ATOM     30  C   UNL     1       6.695  -1.601   4.104  0.00  0.00    +0.043 A 
ATOM     31  C   UNL     1       6.525  -1.006   2.868  0.00  0.00    -0.021 A 
ATOM     32  C   UNL     1       6.380   0.491   2.766  0.00  0.00    +0.046 C 
ATOM     33  F   UNL     1       7.004  -3.558   5.403  0.00  0.00    -0.205 F 
ENDBRANCH  23  26
ENDBRANCH  12  23
TORSDOF 3
