REMARK  Name = ZINC13747859
REMARK  6 active torsions:
REMARK  status: ('A' for Active; 'I' for Inactive)
REMARK    1  A    between atoms: C_1  and  O_2
REMARK    2  A    between atoms: O_2  and  C_3
REMARK    3  A    between atoms: C_6  and  C_9
REMARK    4  A    between atoms: C_11  and  C_22
REMARK    5  A    between atoms: C_15  and  N_21
REMARK    6  A    between atoms: C_16  and  C_18
REMARK                            x       y       z     vdW  Elec       q    Type
REMARK                         _______ _______ _______ _____ _____    ______ ____
ROOT
ATOM      1  C   UNL     1      -2.163   0.356   0.781  0.00  0.00    -0.005 A 
ATOM      2  C   UNL     1      -2.290  -0.850   0.104  0.00  0.00    +0.038 A 
ATOM      3  C   UNL     1      -3.515  -1.489   0.045  0.00  0.00    +0.108 A 
ATOM      4  N   UNL     1      -4.578  -0.959   0.620  0.00  0.00    -0.239 NA
ATOM      5  C   UNL     1      -4.517   0.183   1.270  0.00  0.00    +0.112 A 
ATOM      6  C   UNL     1      -3.319   0.921   1.400  0.00  0.00    +0.037 A 
ATOM      7  C   UNL     1      -3.433   2.159   2.149  0.00  0.00    +0.054 A 
ATOM      8  C   UNL     1      -4.667   2.505   2.659  0.00  0.00    +0.097 A 
ATOM      9  S   UNL     1      -5.717   1.162   2.139  0.00  0.00    -0.062 S 
ENDROOT
BRANCH   1  13
ATOM     10  C   UNL     1       1.590   2.341   0.994  0.00  0.00    +0.120 A 
ATOM     11  C   UNL     1       1.032   2.045  -0.243  0.00  0.00    +0.046 A 
ATOM     12  C   UNL     1      -0.183   1.398  -0.316  0.00  0.00    +0.012 A 
ATOM     13  C   UNL     1      -0.855   1.046   0.856  0.00  0.00    -0.017 A 
ATOM     14  C   UNL     1      -0.289   1.340   2.096  0.00  0.00    +0.012 A 
ATOM     15  C   UNL     1       0.926   1.988   2.162  0.00  0.00    +0.046 A 
BRANCH  10  17
ATOM     16  C   UNL     1       3.303   3.253   2.366  0.00  0.00    +0.277 C 
ATOM     17  O   UNL     1       2.787   2.979   1.062  0.00  0.00    -0.495 OA
ENDBRANCH  10  17
ENDBRANCH   1  13
BRANCH   8  18
ATOM     18  C   UNL     1      -5.016   3.651   3.414  0.00  0.00    +0.250 C 
ATOM     19  O   UNL     1      -4.169   4.483   3.685  0.00  0.00    -0.270 OA
ATOM     20  N   UNL     1      -6.286   3.822   3.832  0.00  0.00    -0.325 N 
ATOM     21  H   UNL     1      -6.961   3.160   3.615  0.00  0.00    +0.145 HD
ATOM     22  H   UNL     1      -6.525   4.607   4.349  0.00  0.00    +0.145 HD
ENDBRANCH   8  18
BRANCH   7  23
ATOM     23  N   UNL     1      -2.328   2.975   2.348  0.00  0.00    -0.356 N 
ATOM     24  H   UNL     1      -1.608   2.983   1.698  0.00  0.00    +0.142 HD
ATOM     25  H   UNL     1      -2.275   3.536   3.137  0.00  0.00    +0.142 HD
ENDBRANCH   7  23
BRANCH   3  26
ATOM     26  C   UNL     1      -3.638  -2.800  -0.688  0.00  0.00    +0.390 C 
ATOM     27  F   UNL     1      -3.275  -2.621  -2.027  0.00  0.00    -0.202 F 
ATOM     28  F   UNL     1      -2.792  -3.746  -0.098  0.00  0.00    -0.202 F 
ENDBRANCH   3  26
TORSDOF 5
