REMARK  Name = ZINC04113602
REMARK  10 active torsions:
REMARK  status: ('A' for Active; 'I' for Inactive)
REMARK    1  A    between atoms: C_1  and  C_2
REMARK    2  A    between atoms: C_3  and  C_17
REMARK    3  A    between atoms: C_4  and  C_10
REMARK    4  A    between atoms: C_17  and  O_19
REMARK    5  A    between atoms: O_19  and  C_20
REMARK    6  A    between atoms: C_20  and  C_22
REMARK    7  A    between atoms: C_20  and  C_23
REMARK    8  A    between atoms: C_23  and  C_24
REMARK    9  A    between atoms: C_23  and  C_25
REMARK   10  A    between atoms: C_23  and  C_26
REMARK                            x       y       z     vdW  Elec       q    Type
REMARK                         _______ _______ _______ _____ _____    ______ ____
ROOT
ATOM      1  C   UNL     1       3.821   5.925  -3.752  0.00  0.00    +0.061 C 
ATOM      2  C   UNL     1       3.216   5.890  -2.373  0.00  0.00    +0.021 C 
ATOM      3  C   UNL     1       2.663   4.744  -1.919  0.00  0.00    +0.078 C 
ATOM      4  C   UNL     1       2.067   4.752  -0.526  0.00  0.00    +0.144 C 
ATOM      5  N   UNL     1       2.140   6.017   0.224  0.00  0.00    -0.288 N 
ATOM      6  C   UNL     1       2.725   7.079  -0.365  0.00  0.00    +0.304 C 
ATOM      7  O   UNL     1       2.790   8.128   0.245  0.00  0.00    -0.252 OA
ATOM      8  N   UNL     1       3.236   7.016  -1.601  0.00  0.00    -0.273 N 
ATOM      9  H   UNL     1       1.776   6.085   1.120  0.00  0.00    +0.151 HD
ATOM     10  H   UNL     1       3.644   7.816  -1.969  0.00  0.00    +0.156 HD
ENDROOT
BRANCH   4  11
ATOM     11  C   UNL     1       0.616   4.362  -0.640  0.00  0.00    -0.021 A 
ATOM     12  C   UNL     1       0.201   3.111  -0.225  0.00  0.00    +0.006 A 
ATOM     13  C   UNL     1      -1.130   2.753  -0.329  0.00  0.00    +0.001 A 
ATOM     14  C   UNL     1      -2.046   3.645  -0.853  0.00  0.00    +0.015 A 
ATOM     15  C   UNL     1      -1.633   4.899  -1.265  0.00  0.00    +0.018 A 
ATOM     16  C   UNL     1      -0.301   5.256  -1.160  0.00  0.00    +0.021 A 
ATOM     17 BR   UNL     1      -2.888   6.122  -1.977  0.00  0.00    -0.050 Br
ENDBRANCH   4  11
BRANCH   3  18
ATOM     18  C   UNL     1       2.641   3.576  -2.717  0.00  0.00    +0.339 C 
ATOM     19  O   UNL     1       3.438   2.681  -2.508  0.00  0.00    -0.245 OA
BRANCH  18  20
ATOM     20  O   UNL     1       1.737   3.456  -3.712  0.00  0.00    -0.458 OA
BRANCH  20  21
ATOM     21  C   UNL     1       1.701   2.209  -4.408  0.00  0.00    +0.179 C 
ATOM     22  C   UNL     1       0.790   1.233  -3.660  0.00  0.00    +0.052 C 
BRANCH  21  23
ATOM     23  C   UNL     1       1.160   2.429  -5.822  0.00  0.00    -0.001 C 
ATOM     24  C   UNL     1       2.082   3.389  -6.577  0.00  0.00    +0.014 C 
ATOM     25  C   UNL     1       1.102   1.091  -6.561  0.00  0.00    +0.014 C 
ATOM     26  C   UNL     1      -0.245   3.029  -5.742  0.00  0.00    +0.014 C 
ENDBRANCH  21  23
ENDBRANCH  20  21
ENDBRANCH  18  20
ENDBRANCH   3  18
TORSDOF 5
