REMARK  Name = ZINC13078939
REMARK  8 active torsions:
REMARK  status: ('A' for Active; 'I' for Inactive)
REMARK    1  A    between atoms: C_3  and  C_8
REMARK    2  A    between atoms: C_5  and  O_7
REMARK    3  A    between atoms: N_10  and  N_11
REMARK    4  A    between atoms: N_11  and  S_12
REMARK    5  A    between atoms: S_12  and  C_15
REMARK    6  A    between atoms: C_18  and  C_21
REMARK    7  A    between atoms: C_21  and  C_22
REMARK    8  A    between atoms: C_22  and  C_23
REMARK                            x       y       z     vdW  Elec       q    Type
REMARK                         _______ _______ _______ _____ _____    ______ ____
ROOT
ATOM      1  N   UNL     1      -2.394   1.152   0.020  0.00  0.00    -0.108 NA
ATOM      2  H   UNL     1      -2.568   0.494  -0.671  0.00  0.00    +0.172 HD
ENDROOT
BRANCH   1   5
ATOM      3  C   UNL     1      -0.014   1.211   0.009  0.00  0.00    +0.259 C 
ATOM      4  O   UNL     1       0.002  -0.004   0.002  0.00  0.00    -0.269 OA
ATOM      5  N   UNL     1      -1.191   1.869   0.018  0.00  0.00    -0.228 N 
ATOM      6  H   UNL     1      -1.204   2.839   0.023  0.00  0.00    +0.171 HD
BRANCH   3   9
ATOM      7  C   UNL     1       2.427   4.067   0.000  0.00  0.00    +0.004 A 
ATOM      8  C   UNL     1       1.240   3.364   0.003  0.00  0.00    +0.013 A 
ATOM      9  C   UNL     1       1.256   1.968   0.001  0.00  0.00    +0.041 A 
ATOM     10  C   UNL     1       2.475   1.289  -0.015  0.00  0.00    +0.058 A 
ATOM     11  C   UNL     1       3.660   2.005  -0.022  0.00  0.00    +0.118 A 
ATOM     12  C   UNL     1       3.634   3.393  -0.014  0.00  0.00    +0.045 A 
BRANCH  11  13
ATOM     13  O   UNL     1       4.850   1.347  -0.037  0.00  0.00    -0.507 OA
ATOM     14  H   UNL     1       5.186   1.163  -0.925  0.00  0.00    +0.292 HD
ENDBRANCH  11  13
ENDBRANCH   3   9
ENDBRANCH   1   5
BRANCH   1  15
ATOM     15  S   UNL     1      -3.521   1.429   1.201  0.00  0.00    +0.074 S 
ATOM     16  O   UNL     1      -4.670   0.669   0.853  0.00  0.00    -0.152 OA
ATOM     17  O   UNL     1      -2.852   1.271   2.445  0.00  0.00    -0.152 OA
BRANCH  15  18
ATOM     18  C   UNL     1      -3.986   3.125   1.091  0.00  0.00    +0.107 A 
ATOM     19  C   UNL     1      -3.298   4.079   1.817  0.00  0.00    +0.029 A 
ATOM     20  C   UNL     1      -3.660   5.410   1.727  0.00  0.00    +0.005 A 
ATOM     21  C   UNL     1      -4.716   5.786   0.918  0.00  0.00    -0.047 A 
ATOM     22  C   UNL     1      -5.407   4.831   0.196  0.00  0.00    +0.005 A 
ATOM     23  C   UNL     1      -5.042   3.501   0.282  0.00  0.00    +0.029 A 
BRANCH  21  24
ATOM     24  C   UNL     1      -5.113   7.237   0.823  0.00  0.00    +0.046 C 
BRANCH  24  25
ATOM     25  C   UNL     1      -6.158   7.551   1.895  0.00  0.00    +0.130 C 
BRANCH  25  26
ATOM     26  C   UNL     1      -6.555   9.001   1.800  0.00  0.00    +0.356 C 
ATOM     27  O   UNL     1      -6.054   9.711   0.960  0.00  0.00    -0.246 OA
ATOM     28  O   UNL     1      -7.466   9.505   2.648  0.00  0.00    -0.246 OA
ENDBRANCH  25  26
ENDBRANCH  24  25
ENDBRANCH  21  24
ENDBRANCH  15  18
ENDBRANCH   1  15
TORSDOF 8
