REMARK  Name = ZINC54311064
REMARK  16 active torsions:
REMARK  status: ('A' for Active; 'I' for Inactive)
REMARK    1  A    between atoms: C_1  and  C_2
REMARK    2  A    between atoms: C_2  and  N_3
REMARK    3  A    between atoms: N_3  and  C_4
REMARK    4  A    between atoms: N_3  and  C_6
REMARK    5  A    between atoms: C_4  and  C_5
REMARK    6  A    between atoms: C_9  and  C_12
REMARK    7  A    between atoms: C_12  and  N_13
REMARK    8  A    between atoms: N_13  and  C_14
REMARK    9  A    between atoms: C_22  and  C_24
REMARK   10  A    between atoms: C_24  and  C_26
REMARK   11  A    between atoms: C_24  and  O_27
REMARK   12  A    between atoms: O_27  and  C_28
REMARK   13  A    between atoms: C_30  and  C_37
REMARK   14  A    between atoms: C_33  and  C_34
REMARK   15  A    between atoms: C_34  and  C_35
REMARK   16  A    between atoms: C_34  and  C_36
REMARK                            x       y       z     vdW  Elec       q    Type
REMARK                         _______ _______ _______ _____ _____    ______ ____
ROOT
ATOM      1  N   UNL     1      -1.229  -5.983  -1.716  0.00  0.00    -0.289 N 
ATOM      2  C   UNL     1      -1.345  -5.817  -0.384  0.00  0.00    +0.257 C 
ATOM      3  O   UNL     1      -2.434  -5.608   0.108  0.00  0.00    -0.272 OA
ENDROOT
BRANCH   1   4
ATOM      4  C   UNL     1      -2.391  -5.780  -2.585  0.00  0.00    +0.099 C 
ATOM      5  C   UNL     1      -2.955  -4.365  -2.375  0.00  0.00    +0.047 C 
ATOM      6  C   UNL     1      -4.351  -4.250  -3.034  0.00  0.00    +0.168 C 
ATOM      7  S   UNL     1      -4.976  -5.978  -2.958  0.00  0.00    -0.029 S 
ATOM      8  O   UNL     1      -5.162  -6.461  -4.282  0.00  0.00    -0.174 OA
ATOM      9  O   UNL     1      -6.054  -6.040  -2.034  0.00  0.00    -0.174 OA
ATOM     10  C   UNL     1      -3.504  -6.803  -2.220  0.00  0.00    +0.188 C 
ENDBRANCH   1   4
BRANCH   2  11
ATOM     11  C   UNL     1      -0.123  -5.893   0.495  0.00  0.00    +0.256 C 
ATOM     12  C   UNL     1       0.492  -4.499   0.633  0.00  0.00    +0.062 C 
BRANCH  11  13
ATOM     13  O   UNL     1      -0.494  -6.380   1.786  0.00  0.00    -0.480 OA
BRANCH  13  14
ATOM     14  C   UNL     1       0.484  -6.958   2.532  0.00  0.00    +0.125 A 
ATOM     15  C   UNL     1       1.761  -7.104   2.010  0.00  0.00    +0.049 A 
ATOM     16  C   UNL     1       2.754  -7.691   2.770  0.00  0.00    -0.047 A 
ATOM     17  C   UNL     1       2.475  -8.133   4.050  0.00  0.00    +0.004 A 
ATOM     18  C   UNL     1       1.203  -7.989   4.572  0.00  0.00    +0.008 A 
ATOM     19  C   UNL     1       0.208  -7.397   3.818  0.00  0.00    -0.003 A 
ATOM     20  C   UNL     1       4.141  -7.850   2.203  0.00  0.00    +0.044 C 
BRANCH  19  21
ATOM     21  C   UNL     1      -1.176  -7.235   4.390  0.00  0.00    +0.016 C 
ATOM     22  C   UNL     1      -1.745  -8.610   4.747  0.00  0.00    +0.012 C 
ATOM     23  C   UNL     1      -1.109  -6.368   5.649  0.00  0.00    +0.012 C 
ENDBRANCH  19  21
ENDBRANCH  13  14
ENDBRANCH  11  13
ENDBRANCH   2  11
BRANCH   1  24
ATOM     24  C   UNL     1       0.061  -6.366  -2.297  0.00  0.00    +0.143 C 
BRANCH  24  28
ATOM     25  C   UNL     1       2.128  -2.866  -3.611  0.00  0.00    +0.013 A 
ATOM     26  C   UNL     1       2.418  -3.418  -2.378  0.00  0.00    +0.022 A 
ATOM     27  C   UNL     1       1.750  -4.550  -1.952  0.00  0.00    +0.007 A 
ATOM     28  C   UNL     1       0.790  -5.131  -2.760  0.00  0.00    -0.030 A 
ATOM     29  C   UNL     1       0.499  -4.578  -3.994  0.00  0.00    +0.007 A 
ATOM     30  C   UNL     1       1.165  -3.443  -4.417  0.00  0.00    +0.022 A 
BRANCH  25  31
ATOM     31  N   UNL     1       2.805  -1.721  -4.042  0.00  0.00    -0.394 NA
ATOM     32  H   UNL     1       2.468  -1.454  -4.955  0.00  0.00    +0.126 HD
BRANCH  31  34
ATOM     33  C   UNL     1       1.091  -0.222  -3.140  0.00  0.00    +0.022 C 
ATOM     34  C   UNL     1       2.566  -0.626  -3.092  0.00  0.00    +0.081 C 
ENDBRANCH  31  34
BRANCH  31  35
ATOM     35  C   UNL     1       4.245  -2.001  -4.114  0.00  0.00    +0.081 C 
ATOM     36  C   UNL     1       4.496  -3.124  -5.122  0.00  0.00    +0.022 C 
ENDBRANCH  31  35
ENDBRANCH  25  31
ENDBRANCH  24  28
ENDBRANCH   1  24
TORSDOF 10
