REMARK  Name = ZINC36019067
REMARK  14 active torsions:
REMARK  status: ('A' for Active; 'I' for Inactive)
REMARK    1  A    between atoms: C_1  and  C_2
REMARK    2  A    between atoms: C_2  and  O_3
REMARK    3  A    between atoms: O_3  and  C_4
REMARK    4  A    between atoms: C_4  and  C_6
REMARK    5  A    between atoms: C_7  and  C_24
REMARK    6  A    between atoms: N_8  and  C_21
REMARK    7  A    between atoms: C_12  and  C_14
REMARK    8  A    between atoms: C_17  and  C_20
REMARK    9  A    between atoms: C_21  and  C_22
REMARK   10  A    between atoms: C_24  and  N_25
REMARK   11  A    between atoms: C_32  and  C_34
REMARK   12  A    between atoms: C_34  and  C_35
REMARK   13  A    between atoms: C_35  and  C_36
REMARK   14  A    between atoms: C_35  and  C_37
REMARK                            x       y       z     vdW  Elec       q    Type
REMARK                         _______ _______ _______ _____ _____    ______ ____
ROOT
ATOM      1  C   UNL     1       1.666  -2.617   1.775  0.00  0.00    +0.080 C 
ATOM      2  C   UNL     1       1.491  -3.837   2.326  0.00  0.00    +0.041 C 
ATOM      3  N   UNL     1       1.886  -4.096   3.607  0.00  0.00    -0.254 N 
ATOM      4  C   UNL     1       2.463  -3.188   4.404  0.00  0.00    +0.307 C 
ATOM      5  O   UNL     1       2.781  -3.513   5.531  0.00  0.00    -0.252 OA
ATOM      6  N   UNL     1       2.705  -1.927   3.996  0.00  0.00    -0.288 N 
ATOM      7  C   UNL     1       2.321  -1.547   2.626  0.00  0.00    +0.144 C 
ATOM      8  H   UNL     1       3.124  -1.285   4.590  0.00  0.00    +0.151 HD
ENDROOT
BRANCH   7   9
ATOM      9  C   UNL     1       1.370  -0.382   2.721  0.00  0.00    -0.022 A 
ATOM     10  C   UNL     1       0.318  -0.420   3.616  0.00  0.00    +0.006 A 
ATOM     11  C   UNL     1      -0.554   0.649   3.703  0.00  0.00    +0.004 A 
ATOM     12  C   UNL     1      -0.374   1.756   2.895  0.00  0.00    -0.050 A 
ATOM     13  C   UNL     1       0.679   1.794   2.000  0.00  0.00    +0.004 A 
ATOM     14  C   UNL     1       1.554   0.727   1.916  0.00  0.00    +0.006 A 
ATOM     15  C   UNL     1      -1.325   2.921   2.989  0.00  0.00    +0.044 C 
ENDBRANCH   7   9
BRANCH   1  16
ATOM     16  C   UNL     1       1.258  -2.347   0.448  0.00  0.00    +0.339 C 
ATOM     17  O   UNL     1       0.627  -3.180  -0.175  0.00  0.00    -0.245 OA
BRANCH  16  18
ATOM     18  O   UNL     1       1.568  -1.166  -0.127  0.00  0.00    -0.462 OA
BRANCH  18  20
ATOM     19  C   UNL     1       1.567   0.422  -1.948  0.00  0.00    +0.048 C 
ATOM     20  C   UNL     1       1.124  -0.962  -1.470  0.00  0.00    +0.229 C 
ENDBRANCH  18  20
ENDBRANCH  16  18
ENDBRANCH   1  16
BRANCH   3  21
ATOM     21  C   UNL     1       1.664  -5.443   4.140  0.00  0.00    +0.141 C 
BRANCH  21  22
ATOM     22  C   UNL     1       2.852  -6.312   3.816  0.00  0.00    -0.015 C 
ATOM     23  C   UNL     1       3.463  -6.968   4.771  0.00  0.00    +0.005 C 
ENDBRANCH  21  22
ENDBRANCH   3  21
BRANCH   2  24
ATOM     24  C   UNL     1       0.848  -4.931   1.513  0.00  0.00    +0.136 C 
BRANCH  24  25
ATOM     25  N   UNL     1      -0.585  -5.001   1.831  0.00  0.00    -0.295 NA
ATOM     26  C   UNL     1      -1.149  -6.289   1.430  0.00  0.00    +0.086 C 
ATOM     27  C   UNL     1      -2.206  -6.699   2.430  0.00  0.00    +0.034 C 
ATOM     28  C   UNL     1      -3.584  -6.206   1.958  0.00  0.00    +0.109 C 
ATOM     29  N   UNL     1      -3.498  -4.851   1.378  0.00  0.00    -0.300 N 
ATOM     30  C   UNL     1      -2.691  -3.802   1.966  0.00  0.00    +0.123 C 
ATOM     31  C   UNL     1      -1.263  -3.848   1.372  0.00  0.00    +0.103 C 
ATOM     32  C   UNL     1      -4.198  -4.580   0.259  0.00  0.00    +0.216 C 
ATOM     33  O   UNL     1      -4.144  -3.475  -0.237  0.00  0.00    -0.276 OA
BRANCH  32  34
ATOM     34  C   UNL     1      -5.047  -5.651  -0.377  0.00  0.00    +0.099 C 
BRANCH  34  35
ATOM     35  C   UNL     1      -5.730  -5.087  -1.624  0.00  0.00    -0.008 C 
ATOM     36  C   UNL     1      -6.492  -6.205  -2.339  0.00  0.00    +0.008 C 
ATOM     37  C   UNL     1      -6.709  -3.983  -1.215  0.00  0.00    +0.008 C 
ENDBRANCH  34  35
ENDBRANCH  32  34
ENDBRANCH  24  25
ENDBRANCH   2  24
TORSDOF 10
