REMARK  Name = ZINC52343301
REMARK  6 active torsions:
REMARK  status: ('A' for Active; 'I' for Inactive)
REMARK    1  A    between atoms: C_1  and  C_2
REMARK    2  A    between atoms: C_2  and  C_4
REMARK    3  A    between atoms: C_2  and  N_10
REMARK    4  A    between atoms: C_11  and  C_13
REMARK    5  A    between atoms: C_13  and  C_20
REMARK    6  A    between atoms: C_20  and  N_22
REMARK                            x       y       z     vdW  Elec       q    Type
REMARK                         _______ _______ _______ _____ _____    ______ ____
ROOT
ATOM      1  N   UNL     1       0.543  -0.642  -1.178  0.00  0.00    -0.312 N 
ATOM      2  C   UNL     1      -0.036  -0.564  -2.393  0.00  0.00    +0.226 C 
ATOM      3  O   UNL     1      -1.174  -0.158  -2.497  0.00  0.00    -0.275 OA
ATOM      4  H   UNL     1       1.429  -1.027  -1.087  0.00  0.00    +0.149 HD
ENDROOT
BRANCH   2   5
ATOM      5  C   UNL     1       0.731  -0.982  -3.621  0.00  0.00    +0.091 C 
ATOM      6  C   UNL     1       1.363  -2.365  -3.368  0.00  0.00    +0.023 C 
ATOM      7  C   UNL     1       0.365  -3.220  -2.635  0.00  0.00    +0.001 C 
ATOM      8  C   UNL     1      -0.473  -4.095  -3.587  0.00  0.00    +0.000 C 
ATOM      9  C   UNL     1      -0.917  -3.342  -4.855  0.00  0.00    +0.000 C 
ATOM     10  C   UNL     1      -1.370  -1.937  -4.561  0.00  0.00    +0.001 C 
ATOM     11  C   UNL     1      -0.173  -0.985  -4.762  0.00  0.00    +0.023 C 
BRANCH   5  12
ATOM     12  C   UNL     1       1.831   0.017  -3.872  0.00  0.00    +0.061 C 
ATOM     13  S   UNL     1       1.773   0.963  -5.160  0.00  0.00    -0.040 S 
BRANCH  12  14
ATOM     14  N   UNL     1       2.863   0.114  -3.011  0.00  0.00    -0.355 N 
ATOM     15  H   UNL     1       2.864  -0.410  -2.195  0.00  0.00    +0.143 HD
ATOM     16  H   UNL     1       3.605   0.706  -3.208  0.00  0.00    +0.143 HD
ENDBRANCH  12  14
ENDBRANCH   5  12
ENDBRANCH   2   5
BRANCH   1  18
ATOM     17  C   UNL     1       0.076   1.360   0.148  0.00  0.00    +0.028 C 
ATOM     18  C   UNL     1      -0.165  -0.144   0.004  0.00  0.00    +0.073 C 
BRANCH  18  19
ATOM     19  C   UNL     1       0.354  -0.865   1.250  0.00  0.00    +0.009 C 
ATOM     20  C   UNL     1       0.113  -2.369   1.107  0.00  0.00    +0.005 C 
ATOM     21  C   UNL     1       0.632  -3.090   2.352  0.00  0.00    +0.000 C 
ATOM     22  C   UNL     1      -0.108  -2.571   3.587  0.00  0.00    +0.000 C 
ATOM     23  C   UNL     1       0.133  -1.067   3.731  0.00  0.00    +0.000 C 
ATOM     24  C   UNL     1      -0.385  -0.346   2.485  0.00  0.00    +0.005 C 
ENDBRANCH  18  19
ENDBRANCH   1  18
TORSDOF 5
