REMARK  Name = ZINC20924550
REMARK  4 active torsions:
REMARK  status: ('A' for Active; 'I' for Inactive)
REMARK    1  A    between atoms: C_6  and  C_7
REMARK    2  A    between atoms: C_16  and  C_18
REMARK    3  A    between atoms: C_21  and  O_24
REMARK    4  A    between atoms: O_24  and  C_25
REMARK                            x       y       z     vdW  Elec       q    Type
REMARK                         _______ _______ _______ _____ _____    ______ ____
ROOT
ATOM      1  C   UNL     1       3.475   7.729   0.224  0.00  0.00    +0.147 C 
ATOM      2  C   UNL     1       2.259   8.339  -0.476  0.00  0.00    +0.127 C 
ATOM      3  C   UNL     1       1.019   7.593  -0.048  0.00  0.00    +0.222 C 
ATOM      4  O   UNL     1      -0.043   8.171   0.043  0.00  0.00    -0.275 OA
ATOM      5  N   UNL     1       1.106   6.277   0.226  0.00  0.00    -0.258 N 
ATOM      6  C   UNL     1       2.314   5.623   0.113  0.00  0.00    +0.189 C 
ATOM      7  N   UNL     1       3.436   6.272   0.105  0.00  0.00    -0.247 NA
ATOM      8  N   UNL     1       2.330   4.247   0.002  0.00  0.00    -0.254 N 
ATOM      9  C   UNL     1       3.504   3.585  -0.010  0.00  0.00    +0.250 C 
ATOM     10  O   UNL     1       4.551   4.204  -0.018  0.00  0.00    -0.270 OA
ATOM     11  H   UNL     1       0.210   5.720   0.540  0.00  0.00    +0.157 HD
ATOM     12  H   UNL     1       1.384   3.691  -0.076  0.00  0.00    +0.158 HD
ENDROOT
BRANCH   1  18
ATOM     13  C   UNL     1       5.191   7.694  -1.597  0.00  0.00    +0.007 A 
ATOM     14  C   UNL     1       6.344   8.175  -2.188  0.00  0.00    +0.015 A 
ATOM     15  C   UNL     1       7.047   9.207  -1.593  0.00  0.00    +0.018 A 
ATOM     16  C   UNL     1       6.593   9.760  -0.409  0.00  0.00    +0.015 A 
ATOM     17  C   UNL     1       5.438   9.281   0.178  0.00  0.00    +0.007 A 
ATOM     18  C   UNL     1       4.735   8.250  -0.417  0.00  0.00    -0.023 A 
ATOM     19 BR   UNL     1       8.629   9.861  -2.397  0.00  0.00    -0.050 Br
ENDBRANCH   1  18
BRANCH   9  20
ATOM     20  C   UNL     1       3.519   2.110  -0.016  0.00  0.00    +0.037 A 
ATOM     21  C   UNL     1       4.736   1.422  -0.029  0.00  0.00    +0.016 A 
ATOM     22  C   UNL     1       4.745   0.045  -0.033  0.00  0.00    +0.046 A 
ATOM     23  C   UNL     1       3.548  -0.660  -0.024  0.00  0.00    +0.127 A 
ATOM     24  C   UNL     1       2.336   0.020  -0.011  0.00  0.00    +0.046 A 
ATOM     25  C   UNL     1       2.317   1.397  -0.007  0.00  0.00    +0.016 A 
BRANCH  23  26
ATOM     26  O   UNL     1       3.562  -2.017  -0.028  0.00  0.00    -0.434 OA
BRANCH  26  27
ATOM     27  C   UNL     1       2.295  -2.679  -0.018  0.00  0.00    +0.541 C 
ATOM     28  F   UNL     1       1.587  -2.314   1.131  0.00  0.00    -0.166 F 
ATOM     29  F   UNL     1       1.566  -2.308  -1.153  0.00  0.00    -0.166 F 
ENDBRANCH  26  27
ENDBRANCH  23  26
ENDBRANCH   9  20
TORSDOF 4
