REMARK  Name = ZINC39982859
REMARK  6 active torsions:
REMARK  status: ('A' for Active; 'I' for Inactive)
REMARK    1  A    between atoms: C_1  and  C_2
REMARK    2  A    between atoms: C_2  and  O_3
REMARK    3  A    between atoms: O_3  and  C_4
REMARK    4  A    between atoms: C_4  and  C_6
REMARK    5  A    between atoms: C_6  and  C_25
REMARK    6  A    between atoms: C_17  and  C_19
REMARK                            x       y       z     vdW  Elec       q    Type
REMARK                         _______ _______ _______ _____ _____    ______ ____
ROOT
ATOM      1  C   UNL     1       1.561  -1.559  -1.786  0.00  0.00    +0.066 C 
ATOM      2  C   UNL     1       1.237  -1.077  -3.186  0.00  0.00    +0.023 C 
ATOM      3  C   UNL     1       0.473  -2.053  -4.059  0.00  0.00    +0.008 C 
ATOM      4  C   UNL     1       1.107  -3.440  -4.015  0.00  0.00    +0.010 C 
ATOM      5  C   UNL     1       1.032  -3.943  -2.576  0.00  0.00    +0.008 C 
ATOM      6  C   UNL     1       1.823  -3.045  -1.646  0.00  0.00    +0.023 C 
ATOM      7  C   UNL     1      -0.415  -4.097  -2.137  0.00  0.00    +0.111 C 
ATOM      8  N   UNL     1      -1.267  -2.983  -2.540  0.00  0.00    -0.301 N 
ATOM      9  C   UNL     1      -1.000  -2.126  -3.690  0.00  0.00    +0.111 C 
ATOM     10  C   UNL     1      -2.398  -2.746  -1.813  0.00  0.00    +0.219 C 
ATOM     11  O   UNL     1      -3.091  -1.784  -2.067  0.00  0.00    -0.275 OA
ATOM     12  C   UNL     1       2.852  -0.824  -1.339  0.00  0.00    +0.023 C 
ENDROOT
BRANCH  10  13
ATOM     13  C   UNL     1      -2.785  -3.679  -0.695  0.00  0.00    +0.075 C 
ATOM     14  C   UNL     1      -3.256  -5.011  -1.283  0.00  0.00    +0.013 C 
ATOM     15  C   UNL     1      -3.649  -5.958  -0.148  0.00  0.00    +0.001 C 
ATOM     16  C   UNL     1      -4.780  -5.333   0.671  0.00  0.00    +0.000 C 
ATOM     17  C   UNL     1      -4.309  -4.001   1.258  0.00  0.00    +0.001 C 
ATOM     18  C   UNL     1      -3.916  -3.054   0.123  0.00  0.00    +0.013 C 
ENDBRANCH  10  13
BRANCH   1  19
ATOM     19  C   UNL     1       0.476  -1.129  -0.823  0.00  0.00    +0.313 C 
ATOM     20  O   UNL     1       0.038  -1.915  -0.017  0.00  0.00    -0.250 OA
BRANCH  19  21
ATOM     21  O   UNL     1       0.002   0.126  -0.863  0.00  0.00    -0.465 OA
BRANCH  21  23
ATOM     22  C   UNL     1      -1.272   1.984   0.013  0.00  0.00    +0.048 C 
ATOM     23  C   UNL     1      -0.940   0.496   0.146  0.00  0.00    +0.229 C 
ENDBRANCH  21  23
ENDBRANCH  19  21
ENDBRANCH   1  19
TORSDOF 4
