REMARK  Name = ZINC39164522
REMARK  1 active torsions:
REMARK  status: ('A' for Active; 'I' for Inactive)
REMARK    1  A    between atoms: C_10  and  C_13
REMARK                            x       y       z     vdW  Elec       q    Type
REMARK                         _______ _______ _______ _____ _____    ______ ____
ROOT
ATOM      1  C   UNL     1       0.021   1.552  -0.013  0.00  0.00    +0.003 A 
ATOM      2  C   UNL     1       1.240   2.202  -0.065  0.00  0.00    +0.015 A 
ATOM      3  C   UNL     1       2.414   1.471  -0.048  0.00  0.00    +0.015 A 
ATOM      4  C   UNL     1       2.414   0.081   0.031  0.00  0.00    +0.004 A 
ATOM      5  C   UNL     1       1.169  -0.555   0.072  0.00  0.00    +0.047 A 
ATOM      6  C   UNL     1      -0.002   0.171   0.050  0.00  0.00    +0.020 A 
ATOM      7 CL   UNL     1       1.099  -2.288   0.149  0.00  0.00    -0.083 Cl
ATOM      8  C   UNL     1       3.767  -0.585   0.084  0.00  0.00    +0.135 C 
ATOM      9  C   UNL     1       4.880   0.335  -0.463  0.00  0.00    +0.159 C 
ATOM     10  S   UNL     1       4.119   1.975  -0.120  0.00  0.00    -0.110 S 
ATOM     11 CL   UNL     1       4.147  -1.009   1.795  0.00  0.00    -0.115 Cl
ENDROOT
BRANCH   9  12
ATOM     12  C   UNL     1       6.167   0.155   0.300  0.00  0.00    +0.234 C 
ATOM     13  O   UNL     1       6.965  -0.690  -0.047  0.00  0.00    -0.274 OA
ATOM     14  N   UNL     1       6.431   0.933   1.369  0.00  0.00    -0.252 N 
ATOM     15  C   UNL     1       7.616   0.767   2.072  0.00  0.00    +0.243 A 
ATOM     16  N   UNL     1       7.994   1.456   3.126  0.00  0.00    -0.200 NA
ATOM     17  C   UNL     1       9.186   1.027   3.541  0.00  0.00    +0.249 A 
ATOM     18  N   UNL     1       9.588   0.060   2.760  0.00  0.00    -0.134 NA
ATOM     19  N   UNL     1       8.583  -0.134   1.798  0.00  0.00    -0.111 NA
ATOM     20  H   UNL     1       5.793   1.609   1.646  0.00  0.00    +0.158 HD
ENDBRANCH   9  12
TORSDOF 1
