REMARK  Name = ZINC35908202
REMARK  9 active torsions:
REMARK  status: ('A' for Active; 'I' for Inactive)
REMARK    1  A    between atoms: C_1  and  C_2
REMARK    2  A    between atoms: C_2  and  C_3
REMARK    3  A    between atoms: C_12  and  C_13
REMARK    4  A    between atoms: C_13  and  C_15
REMARK    5  A    between atoms: C_13  and  C_32
REMARK    6  A    between atoms: C_15  and  C_16
REMARK    7  A    between atoms: N_21  and  C_24
REMARK    8  A    between atoms: C_29  and  O_30
REMARK    9  A    between atoms: O_30  and  C_31
REMARK                            x       y       z     vdW  Elec       q    Type
REMARK                         _______ _______ _______ _____ _____    ______ ____
ROOT
ATOM      1  C   UNL     1      -5.233  -1.635  -3.040  0.00  0.00    +0.063 C 
ENDROOT
BRANCH   1  11
ATOM      2  C   UNL     1      -1.412  -0.526   0.013  0.00  0.00    -0.024 A 
ATOM      3  C   UNL     1      -2.015  -0.863   1.205  0.00  0.00    +0.005 A 
ATOM      4  C   UNL     1      -3.316  -1.345   1.228  0.00  0.00    +0.001 A 
ATOM      5  C   UNL     1      -4.023  -1.492   0.067  0.00  0.00    +0.010 A 
ATOM      6  C   UNL     1      -3.432  -1.155  -1.151  0.00  0.00    +0.004 A 
ATOM      7  C   UNL     1      -2.114  -0.662  -1.180  0.00  0.00    +0.050 A 
ATOM      8  N   UNL     1      -1.802  -0.414  -2.498  0.00  0.00    -0.360 N 
ATOM      9  H   UNL     1      -0.952  -0.069  -2.814  0.00  0.00    +0.165 HD
ATOM     10  C   UNL     1      -2.869  -0.725  -3.295  0.00  0.00    +0.088 A 
ATOM     11  C   UNL     1      -3.883  -1.186  -2.545  0.00  0.00    -0.014 A 
BRANCH   2  13
ATOM     12  C   UNL     1      -0.019   1.526   0.010  0.00  0.00    +0.009 C 
ATOM     13  C   UNL     1       0.002  -0.004   0.002  0.00  0.00    +0.034 C 
ENDBRANCH   2  13
ENDBRANCH   1  11
BRANCH   1  14
ATOM     14  C   UNL     1      -5.908  -0.496  -3.761  0.00  0.00    +0.006 A 
ATOM     15  C   UNL     1      -5.315   0.062  -4.879  0.00  0.00    +0.008 A 
ATOM     16  C   UNL     1      -5.931   1.106  -5.543  0.00  0.00    +0.004 A 
ATOM     17  C   UNL     1      -7.143   1.597  -5.092  0.00  0.00    +0.049 A 
ATOM     18  C   UNL     1      -7.742   1.043  -3.973  0.00  0.00    +0.167 A 
ATOM     19  C   UNL     1      -7.124  -0.013  -3.307  0.00  0.00    +0.170 A 
ATOM     20  O   UNL     1      -7.907  -0.382  -2.252  0.00  0.00    -0.452 OA
ATOM     21  C   UNL     1      -8.811   0.719  -2.041  0.00  0.00    +0.466 C 
ATOM     22  O   UNL     1      -8.911   1.337  -3.333  0.00  0.00    -0.453 OA
ENDBRANCH   1  14
BRANCH   1  23
ATOM     23  C   UNL     1      -5.058  -2.814  -4.000  0.00  0.00    +0.109 C 
BRANCH  23  24
ATOM     24  C   UNL     1      -6.412  -3.341  -4.399  0.00  0.00    +0.217 C 
ATOM     25  O   UNL     1      -7.418  -2.825  -3.960  0.00  0.00    -0.276 OA
ATOM     26  N   UNL     1      -6.506  -4.386  -5.245  0.00  0.00    -0.298 N 
ATOM     27  C   UNL     1      -5.295  -5.026  -5.780  0.00  0.00    +0.126 C 
ATOM     28  C   UNL     1      -5.348  -6.524  -5.456  0.00  0.00    +0.124 C 
ATOM     29  N   UNL     1      -6.662  -7.045  -5.859  0.00  0.00    -0.324 N 
ATOM     30  C   UNL     1      -7.872  -6.406  -5.324  0.00  0.00    +0.124 C 
ATOM     31  C   UNL     1      -7.819  -4.912  -5.643  0.00  0.00    +0.126 C 
BRANCH  29  32
ATOM     32  C   UNL     1      -6.759  -8.131  -6.737  0.00  0.00    +0.072 A 
ATOM     33  C   UNL     1      -6.799  -9.426  -6.241  0.00  0.00    +0.027 A 
ATOM     34  C   UNL     1      -6.895 -10.496  -7.110  0.00  0.00    +0.002 A 
ATOM     35  C   UNL     1      -6.951 -10.280  -8.474  0.00  0.00    +0.004 A 
ATOM     36  C   UNL     1      -6.912  -8.992  -8.976  0.00  0.00    +0.047 A 
ATOM     37  C   UNL     1      -6.821  -7.914  -8.112  0.00  0.00    +0.141 A 
BRANCH  37  38
ATOM     38  O   UNL     1      -6.788  -6.646  -8.604  0.00  0.00    -0.493 OA
ATOM     39  C   UNL     1      -6.856  -6.500 -10.024  0.00  0.00    +0.277 C 
ENDBRANCH  37  38
ENDBRANCH  29  32
ENDBRANCH  23  24
ENDBRANCH   1  23
TORSDOF 7
