REMARK  Name = ZINC36704489
REMARK  10 active torsions:
REMARK  status: ('A' for Active; 'I' for Inactive)
REMARK    1  A    between atoms: C_1  and  C_2
REMARK    2  A    between atoms: C_5  and  C_34
REMARK    3  A    between atoms: N_11  and  C_12
REMARK    4  A    between atoms: C_12  and  C_13
REMARK    5  A    between atoms: C_13  and  N_14
REMARK    6  A    between atoms: N_14  and  C_15
REMARK    7  A    between atoms: N_14  and  C_16
REMARK    8  A    between atoms: C_17  and  C_19
REMARK    9  A    between atoms: N_24  and  S_25
REMARK   10  A    between atoms: S_25  and  C_28
REMARK                            x       y       z     vdW  Elec       q    Type
REMARK                         _______ _______ _______ _____ _____    ______ ____
ROOT
ATOM      1  C   UNL     1      -1.961   1.147   0.401  0.00  0.00    +0.046 C 
ATOM      2  C   UNL     1      -1.026  -0.002   0.123  0.00  0.00    -0.024 A 
ATOM      3  C   UNL     1      -0.975  -0.545  -1.135  0.00  0.00    +0.006 A 
ATOM      4  C   UNL     1      -0.129  -1.602  -1.434  0.00  0.00    +0.005 A 
ATOM      5  C   UNL     1       0.682  -2.122  -0.442  0.00  0.00    -0.035 A 
ATOM      6  C   UNL     1       0.638  -1.585   0.821  0.00  0.00    +0.044 A 
ATOM      7  C   UNL     1      -0.207  -0.504   1.160  0.00  0.00    +0.083 A 
ATOM      8  N   UNL     1      -0.133  -0.084   2.442  0.00  0.00    -0.224 NA
ATOM      9  C   UNL     1       0.672  -0.635   3.320  0.00  0.00    +0.168 A 
ATOM     10  S   UNL     1       1.467  -1.915   2.357  0.00  0.00    -0.052 S 
ATOM     11  N   UNL     1       0.854  -0.313   4.654  0.00  0.00    -0.251 N 
ATOM     12  C   UNL     1       0.147   0.692   5.207  0.00  0.00    +0.240 C 
ATOM     13  O   UNL     1      -0.684   1.282   4.550  0.00  0.00    -0.273 OA
ATOM     14  C   UNL     1       1.609  -3.272  -0.744  0.00  0.00    +0.045 C 
ENDROOT
BRANCH  12  15
ATOM     15  C   UNL     1       0.387   1.082   6.643  0.00  0.00    +0.166 C 
ATOM     16  C   UNL     1      -0.707   0.471   7.544  0.00  0.00    +0.031 C 
ATOM     17  C   UNL     1      -0.975   1.597   8.577  0.00  0.00    +0.019 C 
ATOM     18  C   UNL     1      -0.801   2.866   7.706  0.00  0.00    +0.110 C 
ATOM     19  N   UNL     1       0.308   2.543   6.784  0.00  0.00    -0.164 NA
BRANCH  19  20
ATOM     20  S   UNL     1       1.296   3.641   6.035  0.00  0.00    +0.068 S 
ATOM     21  O   UNL     1       1.270   4.819   6.829  0.00  0.00    -0.152 OA
ATOM     22  O   UNL     1       2.502   2.957   5.726  0.00  0.00    -0.152 OA
BRANCH  20  23
ATOM     23  C   UNL     1       0.543   4.054   4.496  0.00  0.00    +0.144 A 
ATOM     24  C   UNL     1      -0.338   5.045   4.216  0.00  0.00    +0.038 A 
ATOM     25  C   UNL     1      -0.802   5.184   2.921  0.00  0.00    +0.030 A 
ATOM     26  C   UNL     1      -0.361   4.324   1.969  0.00  0.00    +0.080 A 
ATOM     27  S   UNL     1       0.750   3.281   2.901  0.00  0.00    -0.057 S 
ATOM     28 CL   UNL     1      -0.765   4.258   0.282  0.00  0.00    -0.076 Cl
ENDBRANCH  20  23
ENDBRANCH  19  20
ENDBRANCH  12  15
BRANCH  11  29
ATOM     29  C   UNL     1       1.816  -1.064   5.465  0.00  0.00    +0.097 C 
BRANCH  29  30
ATOM     30  C   UNL     1       3.194  -0.409   5.359  0.00  0.00    -0.060 C 
BRANCH  30  31
ATOM     31  N   UNL     1       4.158  -1.163   6.172  0.00  0.00    +0.377 N 
ATOM     32  C   UNL     1       4.324  -2.510   5.611  0.00  0.00    -0.097 C 
ATOM     33  C   UNL     1       5.452  -0.467   6.166  0.00  0.00    -0.097 C 
ATOM     34  H   UNL     1       3.818  -1.232   7.119  0.00  0.00    -0.083 HD
ENDBRANCH  30  31
ENDBRANCH  29  30
ENDBRANCH  11  29
TORSDOF 6
