REMARK  Name = ZINC11165910
REMARK  16 active torsions:
REMARK  status: ('A' for Active; 'I' for Inactive)
REMARK    1  A    between atoms: C_1  and  C_2
REMARK    2  A    between atoms: C_4  and  C_33
REMARK    3  A    between atoms: C_5  and  N_9
REMARK    4  A    between atoms: C_10  and  C_12
REMARK    5  A    between atoms: C_12  and  O_13
REMARK    6  A    between atoms: O_13  and  C_14
REMARK    7  A    between atoms: C_14  and  C_16
REMARK    8  A    between atoms: C_18  and  O_31
REMARK    9  A    between atoms: C_19  and  O_29
REMARK   10  A    between atoms: C_21  and  N_22
REMARK   11  A    between atoms: C_23  and  C_25
REMARK   12  A    between atoms: C_25  and  C_26
REMARK   13  A    between atoms: C_25  and  C_27
REMARK   14  A    between atoms: C_25  and  C_28
REMARK   15  A    between atoms: O_29  and  C_30
REMARK   16  A    between atoms: O_31  and  C_32
REMARK                            x       y       z     vdW  Elec       q    Type
REMARK                         _______ _______ _______ _____ _____    ______ ____
ROOT
ATOM      1  C   UNL     1      -2.796  -2.465   2.080  0.00  0.00    +0.084 A 
ATOM      2  C   UNL     1      -2.920  -3.784   2.532  0.00  0.00    +0.066 A 
ATOM      3  C   UNL     1      -1.873  -4.383   3.200  0.00  0.00    +0.162 A 
ATOM      4  C   UNL     1      -0.688  -3.680   3.421  0.00  0.00    +0.163 A 
ATOM      5  C   UNL     1      -0.555  -2.376   2.972  0.00  0.00    +0.073 A 
ATOM      6  C   UNL     1      -1.601  -1.763   2.299  0.00  0.00    +0.051 A 
ENDROOT
BRANCH   6   7
ATOM      7  N   UNL     1      -1.467  -0.451   1.846  0.00  0.00    -0.284 N 
ATOM      8  C   UNL     1      -0.278  -0.015   1.386  0.00  0.00    +0.223 C 
ATOM      9  O   UNL     1       0.696  -0.735   1.444  0.00  0.00    -0.275 OA
ATOM     10  H   UNL     1      -2.230   0.148   1.863  0.00  0.00    +0.155 HD
BRANCH   8  11
ATOM     11  C   UNL     1      -0.158   1.369   0.801  0.00  0.00    +0.039 C 
ATOM     12  C   UNL     1       1.286   1.612   0.358  0.00  0.00    +0.020 C 
ATOM     13  C   UNL     1      -1.089   1.494  -0.406  0.00  0.00    +0.020 C 
ATOM     14  C   UNL     1      -0.548   2.405   1.856  0.00  0.00    +0.020 C 
ENDBRANCH   8  11
ENDBRANCH   6   7
BRANCH   1  15
ATOM     15  C   UNL     1      -3.913  -1.819   1.372  0.00  0.00    +0.342 C 
ATOM     16  O   UNL     1      -3.766  -0.715   0.885  0.00  0.00    -0.245 OA
BRANCH  15  17
ATOM     17  O   UNL     1      -5.098  -2.451   1.264  0.00  0.00    -0.452 OA
BRANCH  17  18
ATOM     18  C   UNL     1      -6.155  -1.754   0.552  0.00  0.00    +0.328 C 
BRANCH  18  20
ATOM     19  N   UNL     1      -8.512  -2.162  -0.077  0.00  0.00    -0.281 N 
ATOM     20  C   UNL     1      -7.396  -2.609   0.533  0.00  0.00    +0.255 C 
ATOM     21  O   UNL     1      -7.391  -3.698   1.066  0.00  0.00    -0.272 OA
ATOM     22  H   UNL     1      -8.533  -1.271  -0.458  0.00  0.00    +0.155 HD
BRANCH  19  27
ATOM     23  C   UNL     1     -13.089  -5.499  -0.416  0.00  0.00    +0.044 C 
ATOM     24  C   UNL     1     -11.873  -4.613  -0.326  0.00  0.00    -0.049 A 
ATOM     25  C   UNL     1     -12.017  -3.272  -0.020  0.00  0.00    +0.008 A 
ATOM     26  C   UNL     1     -10.905  -2.458   0.064  0.00  0.00    -0.028 A 
ATOM     27  C   UNL     1      -9.641  -2.986  -0.161  0.00  0.00    +0.055 A 
ATOM     28  C   UNL     1      -9.499  -4.332  -0.473  0.00  0.00    +0.063 A 
ATOM     29  C   UNL     1     -10.616  -5.143  -0.550  0.00  0.00    +0.025 A 
ATOM     30 CL   UNL     1      -7.921  -4.996  -0.761  0.00  0.00    -0.082 Cl
ATOM     31  C   UNL     1     -11.064  -0.997   0.398  0.00  0.00    +0.046 C 
ENDBRANCH  19  27
ENDBRANCH  18  20
ENDBRANCH  17  18
ENDBRANCH  15  17
ENDBRANCH   1  15
BRANCH   4  32
ATOM     32  O   UNL     1       0.340  -4.276   4.079  0.00  0.00    -0.491 OA
ATOM     33  C   UNL     1       1.524  -3.500   4.272  0.00  0.00    +0.277 C 
ENDBRANCH   4  32
BRANCH   3  34
ATOM     34  O   UNL     1      -1.995  -5.663   3.643  0.00  0.00    -0.491 OA
ATOM     35  C   UNL     1      -3.235  -6.325   3.383  0.00  0.00    +0.277 C 
ENDBRANCH   3  34
TORSDOF 9
