REMARK  Name = ZINC10140481
REMARK  8 active torsions:
REMARK  status: ('A' for Active; 'I' for Inactive)
REMARK    1  A    between atoms: C_1  and  C_2
REMARK    2  A    between atoms: C_2  and  C_4
REMARK    3  A    between atoms: C_2  and  N_57
REMARK    4  A    between atoms: C_4  and  C_6
REMARK    5  A    between atoms: C_7  and  N_16
REMARK    6  A    between atoms: N_8  and  C_15
REMARK    7  A    between atoms: N_11  and  C_14
REMARK    8  A    between atoms: C_19  and  C_22
REMARK                            x       y       z     vdW  Elec       q    Type
REMARK                         _______ _______ _______ _____ _____    ______ ____
ROOT
ATOM      1  C   UNL     1       0.313   4.578  -0.555  0.00  0.00    -0.005 C 
ATOM      2  C   UNL     1      -1.109   5.001  -0.180  0.00  0.00    +0.001 C 
ENDROOT
BRANCH   2   8
ATOM      3  C   UNL     1      -0.434   7.266  -0.702  0.00  0.00    -0.077 C 
ATOM      4  C   UNL     1      -0.314   8.681  -0.131  0.00  0.00    -0.011 C 
ATOM      5  C   UNL     1      -1.712   9.218   0.187  0.00  0.00    +0.018 C 
ATOM      6  C   UNL     1      -2.403   8.269   1.170  0.00  0.00    -0.011 C 
ATOM      7  C   UNL     1      -2.462   6.866   0.562  0.00  0.00    -0.077 C 
ATOM      8  N   UNL     1      -1.085   6.397   0.302  0.00  0.00    +0.386 N 
ATOM      9  H   UNL     1      -0.548   6.439   1.176  0.00  0.00    -0.081 HD
BRANCH   5  10
ATOM     10  C   UNL     1      -1.597  10.587   0.805  0.00  0.00    -0.019 A 
ATOM     11  C   UNL     1      -0.949  10.900   1.938  0.00  0.00    +0.087 A 
ATOM     12  N   UNL     1      -1.061  12.241   2.185  0.00  0.00    -0.360 N 
ATOM     13  H   UNL     1      -0.675  12.702   2.946  0.00  0.00    +0.165 HD
ATOM     14  C   UNL     1      -1.803  12.840   1.191  0.00  0.00    +0.047 A 
ATOM     15  C   UNL     1      -2.167  11.831   0.280  0.00  0.00    +0.003 A 
ATOM     16  C   UNL     1      -2.938  12.148  -0.839  0.00  0.00    +0.010 A 
ATOM     17  C   UNL     1      -3.326  13.441  -1.051  0.00  0.00    +0.001 A 
ATOM     18  C   UNL     1      -2.966  14.441  -0.159  0.00  0.00    +0.002 A 
ATOM     19  C   UNL     1      -2.210  14.149   0.956  0.00  0.00    +0.026 A 
ENDBRANCH   5  10
ENDBRANCH   2   8
BRANCH   2  20
ATOM     20  C   UNL     1      -1.622   4.114   0.926  0.00  0.00    +0.158 C 
ATOM     21  O   UNL     1      -1.643   4.521   2.070  0.00  0.00    -0.294 OA
BRANCH  20  22
ATOM     22  C   UNL     1      -2.077   2.811   0.632  0.00  0.00    +0.118 A 
ATOM     23  C   UNL     1      -2.447   1.923   1.657  0.00  0.00    +0.116 A 
ATOM     24  N   UNL     1      -2.881   0.672   1.322  0.00  0.00    -0.284 N 
ATOM     25  C   UNL     1      -2.959   0.280   0.041  0.00  0.00    +0.333 A 
ATOM     26  O   UNL     1      -3.353  -0.843  -0.204  0.00  0.00    -0.246 OA
ATOM     27  N   UNL     1      -2.619   1.084  -0.980  0.00  0.00    -0.263 N 
ATOM     28  C   UNL     1      -2.179   2.339  -0.755  0.00  0.00    +0.269 A 
ATOM     29  O   UNL     1      -1.867   3.063  -1.683  0.00  0.00    -0.267 OA
ATOM     30  C   UNL     1      -2.728   0.591  -2.355  0.00  0.00    +0.157 C 
ATOM     31  C   UNL     1      -3.270  -0.260   2.384  0.00  0.00    +0.155 C 
BRANCH  23  32
ATOM     32  N   UNL     1      -2.374   2.304   2.961  0.00  0.00    -0.344 N 
ATOM     33  H   UNL     1      -2.929   1.867   3.626  0.00  0.00    +0.144 HD
ATOM     34  H   UNL     1      -1.767   3.013   3.226  0.00  0.00    +0.144 HD
ENDBRANCH  23  32
ENDBRANCH  20  22
ENDBRANCH   2  20
TORSDOF 5
