REMARK  Name = ZINC15707515
REMARK  5 active torsions:
REMARK  status: ('A' for Active; 'I' for Inactive)
REMARK    1  A    between atoms: C_5  and  N_6
REMARK    2  A    between atoms: N_9  and  C_10
REMARK    3  A    between atoms: C_19  and  C_22
REMARK    4  A    between atoms: C_22  and  C_23
REMARK    5  A    between atoms: C_23  and  C_24
REMARK                            x       y       z     vdW  Elec       q    Type
REMARK                         _______ _______ _______ _____ _____    ______ ____
ROOT
ATOM      1  C   UNL     1      -3.669   1.423  -0.638  0.00  0.00    +0.057 C 
ATOM      2  C   UNL     1      -4.732   0.323  -0.903  0.00  0.00    +0.014 C 
ATOM      3  C   UNL     1      -5.553   0.287   0.387  0.00  0.00    +0.021 C 
ATOM      4  C   UNL     1      -6.074  -1.054   0.786  0.00  0.00    +0.200 C 
ATOM      5  O   UNL     1      -6.396  -1.864  -0.056  0.00  0.00    -0.278 OA
ATOM      6  N   UNL     1      -6.183  -1.351   2.096  0.00  0.00    -0.318 N 
ATOM      7  C   UNL     1      -5.709  -0.499   3.180  0.00  0.00    +0.089 C 
ATOM      8  C   UNL     1      -5.293   0.893   2.683  0.00  0.00    -0.050 C 
ATOM      9  C   UNL     1      -3.919   1.875   0.828  0.00  0.00    -0.055 C 
ATOM     10  H   UNL     1      -6.606  -2.190   2.334  0.00  0.00    +0.149 HD
ATOM     11  N   UNL     1      -4.592   0.670   1.377  0.00  0.00    +0.391 N 
ATOM     12  H   UNL     1      -3.897  -0.075   1.505  0.00  0.00    -0.080 HD
ENDROOT
BRANCH   1  16
ATOM     13  N   UNL     1      -0.037   1.182  -1.159  0.00  0.00    -0.269 N 
ATOM     14  C   UNL     1      -1.279   1.690  -1.030  0.00  0.00    +0.304 C 
ATOM     15  O   UNL     1      -1.461   2.887  -1.141  0.00  0.00    -0.253 OA
ATOM     16  N   UNL     1      -2.319   0.871  -0.778  0.00  0.00    -0.298 N 
ATOM     17  H   UNL     1       0.099   0.222  -1.141  0.00  0.00    +0.156 HD
ATOM     18  H   UNL     1      -2.174  -0.084  -0.689  0.00  0.00    +0.150 HD
BRANCH  13  23
ATOM     19  C   UNL     1       2.304   1.714  -0.805  0.00  0.00    +0.031 A 
ATOM     20  C   UNL     1       3.342   2.566  -0.988  0.00  0.00    +0.047 A 
ATOM     21  S   UNL     1       2.576   3.893  -1.905  0.00  0.00    -0.103 S 
ATOM     22  C   UNL     1       0.925   3.222  -1.992  0.00  0.00    +0.068 A 
ATOM     23  C   UNL     1       1.063   2.045  -1.325  0.00  0.00    +0.042 A 
ENDBRANCH  13  23
ENDBRANCH   1  16
BRANCH   8  24
ATOM     24  C   UNL     1      -4.378   1.560   3.711  0.00  0.00    -0.005 C 
BRANCH  24  25
ATOM     25  C   UNL     1      -5.174   1.863   4.982  0.00  0.00    +0.094 C 
BRANCH  25  26
ATOM     26  C   UNL     1      -4.248   2.417   6.034  0.00  0.00    +0.216 C 
ATOM     27  O   UNL     1      -3.068   2.556   5.791  0.00  0.00    -0.276 OA
ATOM     28  N   UNL     1      -4.732   2.759   7.245  0.00  0.00    -0.301 N 
ATOM     29  C   UNL     1      -6.136   2.650   7.668  0.00  0.00    +0.108 C 
ATOM     30  C   UNL     1      -6.220   3.177   9.116  0.00  0.00    +0.020 C 
ATOM     31  C   UNL     1      -4.967   4.086   9.226  0.00  0.00    +0.020 C 
ATOM     32  C   UNL     1      -3.943   3.310   8.361  0.00  0.00    +0.108 C 
ENDBRANCH  25  26
ENDBRANCH  24  25
ENDBRANCH   8  24
TORSDOF 5
