REMARK  Name = ZINC39710091
REMARK  8 active torsions:
REMARK  status: ('A' for Active; 'I' for Inactive)
REMARK    1  A    between atoms: C_1  and  C_2
REMARK    2  A    between atoms: C_5  and  S_8
REMARK    3  A    between atoms: S_8  and  N_11
REMARK    4  A    between atoms: N_11  and  C_12
REMARK    5  A    between atoms: C_18  and  C_19
REMARK    6  A    between atoms: N_21  and  C_22
REMARK    7  A    between atoms: C_22  and  C_23
REMARK    8  A    between atoms: C_23  and  C_24
REMARK                            x       y       z     vdW  Elec       q    Type
REMARK                         _______ _______ _______ _____ _____    ______ ____
ROOT
ATOM      1  C   UNL     1       2.561  -4.874   0.875  0.00  0.00    +0.220 C 
ATOM      2  N   UNL     1       4.008  -4.831   0.569  0.00  0.00    -0.322 N 
ATOM      3  C   UNL     1       4.855  -5.024   1.602  0.00  0.00    +0.021 C 
ATOM      4  C   UNL     1       4.315  -5.789   2.800  0.00  0.00    +0.122 C 
ATOM      5  S   UNL     1       2.556  -6.039   2.305  0.00  0.00    -0.116 S 
ATOM      6  C   UNL     1       6.122  -4.561   1.572  0.00  0.00    +0.086 C 
ATOM      7  H   UNL     1       4.332  -4.671  -0.331  0.00  0.00    +0.148 HD
ENDROOT
BRANCH   6   8
ATOM      8  C   UNL     1       6.547  -3.732   0.508  0.00  0.00    +0.238 C 
ATOM      9  O   UNL     1       5.744  -3.349  -0.324  0.00  0.00    -0.271 OA
ATOM     10  N   UNL     1       7.841  -3.367   0.414  0.00  0.00    -0.311 N 
ATOM     11  H   UNL     1       8.480  -3.672   1.076  0.00  0.00    +0.149 HD
BRANCH  10  12
ATOM     12  C   UNL     1       8.281  -2.508  -0.688  0.00  0.00    +0.109 C 
BRANCH  12  13
ATOM     13  C   UNL     1       9.783  -2.245  -0.561  0.00  0.00    +0.056 C 
BRANCH  13  14
ATOM     14  C   UNL     1      10.236  -1.362  -1.695  0.00  0.00    -0.021 A 
ATOM     15  C   UNL     1      10.181   0.101  -1.735  0.00  0.00    +0.003 A 
ATOM     16  C   UNL     1       9.742   1.080  -0.843  0.00  0.00    +0.010 A 
ATOM     17  C   UNL     1       9.828   2.400  -1.188  0.00  0.00    +0.001 A 
ATOM     18  C   UNL     1      10.348   2.775  -2.419  0.00  0.00    +0.002 A 
ATOM     19  C   UNL     1      10.788   1.825  -3.314  0.00  0.00    +0.026 A 
ATOM     20  C   UNL     1      10.710   0.476  -2.984  0.00  0.00    +0.047 A 
ATOM     21  N   UNL     1      11.057  -0.683  -3.643  0.00  0.00    -0.360 N 
ATOM     22  C   UNL     1      10.773  -1.767  -2.857  0.00  0.00    +0.087 A 
ATOM     23  H   UNL     1      11.447  -0.725  -4.529  0.00  0.00    +0.165 HD
ENDBRANCH  13  14
ENDBRANCH  12  13
ENDBRANCH  10  12
ENDBRANCH   6   8
BRANCH   1  24
ATOM     24  N   UNL     1       1.797  -5.414  -0.252  0.00  0.00    -0.161 NA
ATOM     25  H   UNL     1       2.221  -6.020  -0.880  0.00  0.00    +0.151 HD
BRANCH  24  26
ATOM     26  S   UNL     1       0.209  -4.990  -0.455  0.00  0.00    +0.061 S 
ATOM     27  O   UNL     1      -0.424  -5.171   0.805  0.00  0.00    -0.153 OA
ATOM     28  O   UNL     1      -0.240  -5.646  -1.633  0.00  0.00    -0.153 OA
BRANCH  26  33
ATOM     29  C   UNL     1       0.072   0.928  -1.619  0.00  0.00    +0.044 C 
ATOM     30  C   UNL     1       0.107  -0.550  -1.328  0.00  0.00    -0.050 A 
ATOM     31  C   UNL     1       0.212  -1.457  -2.367  0.00  0.00    +0.005 A 
ATOM     32  C   UNL     1       0.243  -2.813  -2.100  0.00  0.00    +0.029 A 
ATOM     33  C   UNL     1       0.170  -3.262  -0.795  0.00  0.00    +0.105 A 
ATOM     34  C   UNL     1       0.066  -2.356   0.244  0.00  0.00    +0.029 A 
ATOM     35  C   UNL     1       0.039  -0.999  -0.023  0.00  0.00    +0.005 A 
ENDBRANCH  26  33
ENDBRANCH  24  26
ENDBRANCH   1  24
TORSDOF 7
