REMARK  Name = ZINC35770666
REMARK  13 active torsions:
REMARK  status: ('A' for Active; 'I' for Inactive)
REMARK    1  A    between atoms: C_1  and  C_2
REMARK    2  A    between atoms: C_2  and  C_3
REMARK    3  A    between atoms: C_2  and  C_4
REMARK    4  A    between atoms: C_4  and  N_5
REMARK    5  A    between atoms: N_5  and  C_6
REMARK    6  A    between atoms: C_6  and  C_7
REMARK    7  A    between atoms: C_17  and  C_19
REMARK    8  A    between atoms: C_22  and  C_25
REMARK    9  A    between atoms: C_25  and  C_26
REMARK   10  A    between atoms: C_25  and  C_27
REMARK   11  A    between atoms: C_25  and  C_28
REMARK   12  A    between atoms: C_29  and  C_31
REMARK   13  A    between atoms: C_34  and  N_37
REMARK                            x       y       z     vdW  Elec       q    Type
REMARK                         _______ _______ _______ _____ _____    ______ ____
ROOT
ATOM      1  C   UNL     1      -2.047  -3.192   1.847  0.00  0.00    +0.234 C 
ATOM      2  O   UNL     1      -3.134  -2.823   1.455  0.00  0.00    -0.274 OA
ATOM      3  N   UNL     1      -1.953  -3.951   2.956  0.00  0.00    -0.289 N 
ATOM      4  C   UNL     1      -0.639  -4.399   3.444  0.00  0.00    +0.114 C 
ATOM      5  C   UNL     1      -0.583  -5.931   3.340  0.00  0.00    +0.062 C 
ATOM      6  C   UNL     1      -1.882  -6.492   3.820  0.00  0.00    -0.003 A 
ATOM      7  C   UNL     1      -3.062  -5.837   3.993  0.00  0.00    -0.012 A 
ATOM      8  C   UNL     1      -4.138  -6.598   4.448  0.00  0.00    +0.013 A 
ATOM      9  C   UNL     1      -3.976  -7.916   4.701  0.00  0.00    +0.046 A 
ATOM     10  S   UNL     1      -2.253  -8.159   4.297  0.00  0.00    -0.101 S 
ATOM     11  C   UNL     1      -3.160  -4.337   3.699  0.00  0.00    +0.137 C 
ENDROOT
BRANCH  11  12
ATOM     12  C   UNL     1      -3.233  -3.564   4.991  0.00  0.00    -0.023 A 
ATOM     13  C   UNL     1      -2.265  -3.745   5.961  0.00  0.00    +0.006 A 
ATOM     14  C   UNL     1      -2.332  -3.036   7.146  0.00  0.00    +0.004 A 
ATOM     15  C   UNL     1      -3.368  -2.146   7.360  0.00  0.00    -0.042 A 
ATOM     16  C   UNL     1      -4.335  -1.964   6.390  0.00  0.00    +0.004 A 
ATOM     17  C   UNL     1      -4.266  -2.670   5.203  0.00  0.00    +0.006 A 
BRANCH  15  18
ATOM     18  C   UNL     1      -3.441  -1.374   8.652  0.00  0.00    -0.013 C 
ATOM     19  C   UNL     1      -2.181  -0.520   8.809  0.00  0.00    +0.015 C 
ATOM     20  C   UNL     1      -4.673  -0.466   8.634  0.00  0.00    +0.015 C 
ATOM     21  C   UNL     1      -3.545  -2.351   9.825  0.00  0.00    +0.015 C 
ENDBRANCH  15  18
ENDBRANCH  11  12
BRANCH   1  22
ATOM     22  C   UNL     1      -0.802  -2.802   1.092  0.00  0.00    +0.204 C 
BRANCH  22  23
ATOM     23  N   UNL     1      -1.169  -1.984  -0.066  0.00  0.00    -0.288 N 
ATOM     24  C   UNL     1      -1.310  -2.557  -1.278  0.00  0.00    +0.247 C 
ATOM     25  O   UNL     1      -1.533  -1.867  -2.254  0.00  0.00    -0.270 OA
BRANCH  24  26
ATOM     26  C   UNL     1      -1.193  -4.024  -1.421  0.00  0.00    +0.037 A 
ATOM     27  C   UNL     1      -1.854  -4.869  -0.529  0.00  0.00    +0.015 A 
ATOM     28  C   UNL     1      -1.741  -6.237  -0.668  0.00  0.00    +0.033 A 
ATOM     29  C   UNL     1      -0.974  -6.771  -1.688  0.00  0.00    +0.126 A 
ATOM     30  C   UNL     1      -0.316  -5.938  -2.575  0.00  0.00    +0.033 A 
ATOM     31  C   UNL     1      -0.425  -4.569  -2.451  0.00  0.00    +0.015 A 
BRANCH  29  32
ATOM     32  N   UNL     1      -0.857  -8.240  -1.831  0.00  0.00    +0.056 N 
ATOM     33  O   UNL     1      -1.431  -8.970  -1.057  0.00  0.00    -0.126 OA
ATOM     34  O   UNL     1      -0.187  -8.709  -2.721  0.00  0.00    -0.126 OA
ENDBRANCH  29  32
ENDBRANCH  24  26
BRANCH  23  35
ATOM     35  C   UNL     1      -1.383  -0.543   0.092  0.00  0.00    +0.111 C 
BRANCH  35  37
ATOM     36  C   UNL     1      -0.357   1.713  -0.221  0.00  0.00    +0.009 C 
ATOM     37  C   UNL     1      -0.098   0.206  -0.267  0.00  0.00    +0.000 C 
ATOM     38  C   UNL     1       0.999  -0.154   0.738  0.00  0.00    +0.009 C 
ENDBRANCH  35  37
ENDBRANCH  23  35
ENDBRANCH  22  23
ENDBRANCH   1  22
TORSDOF 8
