REMARK  Name = ZINC30985310
REMARK  10 active torsions:
REMARK  status: ('A' for Active; 'I' for Inactive)
REMARK    1  A    between atoms: C_1  and  C_2
REMARK    2  A    between atoms: C_2  and  C_3
REMARK    3  A    between atoms: C_3  and  C_5
REMARK    4  A    between atoms: C_3  and  N_6
REMARK    5  A    between atoms: C_7  and  C_9
REMARK    6  A    between atoms: C_14  and  N_15
REMARK    7  A    between atoms: C_16  and  C_18
REMARK    8  A    between atoms: N_21  and  C_24
REMARK    9  A    between atoms: C_24  and  C_25
REMARK   10  A    between atoms: C_27  and  C_30
REMARK                            x       y       z     vdW  Elec       q    Type
REMARK                         _______ _______ _______ _____ _____    ______ ____
ROOT
ATOM      1  C   UNL     1       4.641   9.057   3.662  0.00  0.00    +0.072 C 
ATOM      2  C   UNL     1       5.938   8.814   2.886  0.00  0.00    -0.006 C 
ATOM      3  C   UNL     1       5.601   8.469   1.433  0.00  0.00    -0.077 C 
ATOM      4  N   UNL     1       4.756   7.269   1.398  0.00  0.00    +0.386 N 
ATOM      5  C   UNL     1       3.484   7.494   2.096  0.00  0.00    -0.077 C 
ATOM      6  C   UNL     1       3.758   7.810   3.568  0.00  0.00    -0.006 C 
ATOM      7  H   UNL     1       5.291   6.466   1.927  0.00  0.00    -0.081 HD
ENDROOT
BRANCH   1   9
ATOM      8  N   UNL     1       3.970   9.585   5.983  0.00  0.00    -0.285 N 
ATOM      9  C   UNL     1       4.963   9.339   5.106  0.00  0.00    +0.220 C 
ATOM     10  O   UNL     1       6.117   9.345   5.480  0.00  0.00    -0.275 OA
ATOM     11  H   UNL     1       2.932   9.669   5.629  0.00  0.00    +0.155 HD
BRANCH   8  17
ATOM     12  C   UNL     1       3.406  10.482   8.162  0.00  0.00    +0.058 A 
ATOM     13  C   UNL     1       3.703  10.616   9.521  0.00  0.00    +0.015 A 
ATOM     14  C   UNL     1       4.832  10.021  10.040  0.00  0.00    +0.001 A 
ATOM     15  C   UNL     1       5.673   9.284   9.222  0.00  0.00    +0.002 A 
ATOM     16  C   UNL     1       5.390   9.138   7.879  0.00  0.00    +0.024 A 
ATOM     17  C   UNL     1       4.257   9.730   7.338  0.00  0.00    +0.046 A 
BRANCH  12  19
ATOM     18  N   UNL     1       1.441  11.923   8.370  0.00  0.00    -0.309 N 
ATOM     19  C   UNL     1       2.202  11.121   7.599  0.00  0.00    +0.246 C 
ATOM     20  O   UNL     1       1.895  10.925   6.439  0.00  0.00    -0.270 OA
ATOM     21  H   UNL     1       1.718  12.101   9.419  0.00  0.00    +0.149 HD
BRANCH  18  22
ATOM     22  C   UNL     1       0.246  12.559   7.810  0.00  0.00    +0.070 C 
ATOM     23  C   UNL     1       0.641  13.857   7.104  0.00  0.00    +0.028 C 
BRANCH  22  25
ATOM     24  C   UNL     1      -1.232  11.563   9.562  0.00  0.00    +0.005 C 
ATOM     25  C   UNL     1      -0.741  12.871   8.937  0.00  0.00    +0.018 C 
ENDBRANCH  22  25
ENDBRANCH  18  22
ENDBRANCH  12  19
ENDBRANCH   8  17
ENDBRANCH   1   9
BRANCH   4  26
ATOM     26  C   UNL     1       4.527   6.827   0.016  0.00  0.00    +0.022 C 
BRANCH  26  27
ATOM     27  C   UNL     1       3.871   5.470   0.024  0.00  0.00    +0.211 A 
ATOM     28  N   UNL     1       2.584   5.228   0.033  0.00  0.00    -0.193 NA
ATOM     29  C   UNL     1       2.467   3.881   0.042  0.00  0.00    +0.202 A 
ATOM     30  N   UNL     1       3.679   3.389   0.028  0.00  0.00    -0.056 NA
ATOM     31  O   UNL     1       4.494   4.287   0.018  0.00  0.00    -0.340 OA
BRANCH  29  32
ATOM     32  C   UNL     1       1.202   3.106   0.058  0.00  0.00    +0.024 A 
ATOM     33  C   UNL     1       1.235   1.713   0.059  0.00  0.00    +0.012 A 
ATOM     34  C   UNL     1       0.055   0.997   0.074  0.00  0.00    +0.002 A 
ATOM     35  C   UNL     1      -1.159   1.659   0.082  0.00  0.00    +0.020 A 
ATOM     36  C   UNL     1      -1.198   3.043   0.086  0.00  0.00    +0.042 A 
ATOM     37  C   UNL     1      -0.023   3.769   0.071  0.00  0.00    +0.031 A 
ATOM     38 CL   UNL     1      -2.727   3.866   0.104  0.00  0.00    -0.084 Cl
ENDBRANCH  29  32
ENDBRANCH  26  27
ENDBRANCH   4  26
TORSDOF 8
