REMARK  Name = ZINC36570769
REMARK  10 active torsions:
REMARK  status: ('A' for Active; 'I' for Inactive)
REMARK    1  A    between atoms: C_1  and  C_2
REMARK    2  A    between atoms: C_2  and  C_3
REMARK    3  A    between atoms: C_3  and  N_4
REMARK    4  A    between atoms: N_4  and  C_5
REMARK    5  A    between atoms: C_5  and  C_7
REMARK    6  A    between atoms: C_5  and  C_17
REMARK    7  A    between atoms: C_9  and  N_14
REMARK    8  A    between atoms: N_19  and  C_20
REMARK    9  A    between atoms: C_26  and  C_28
REMARK   10  A    between atoms: C_31  and  O_34
REMARK                            x       y       z     vdW  Elec       q    Type
REMARK                         _______ _______ _______ _____ _____    ______ ____
ROOT
ATOM      1  C   UNL     1      -0.963  -2.308   0.988  0.00  0.00    +0.194 C 
ENDROOT
BRANCH   1   2
ATOM      2  C   UNL     1      -1.881  -1.652   1.986  0.00  0.00    +0.002 A 
ATOM      3  C   UNL     1      -1.372  -0.761   2.912  0.00  0.00    +0.040 A 
ATOM      4  C   UNL     1      -2.214  -0.159   3.828  0.00  0.00    +0.127 A 
ATOM      5  C   UNL     1      -3.566  -0.447   3.819  0.00  0.00    +0.034 A 
ATOM      6  C   UNL     1      -4.076  -1.337   2.893  0.00  0.00    +0.022 A 
ATOM      7  C   UNL     1      -3.235  -1.936   1.972  0.00  0.00    +0.047 A 
ATOM      8 CL   UNL     1      -3.876  -3.049   0.804  0.00  0.00    -0.083 Cl
BRANCH   4   9
ATOM      9  N   UNL     1      -1.668   0.794   4.820  0.00  0.00    +0.056 N 
ATOM     10  O   UNL     1      -0.485   1.046   4.829  0.00  0.00    -0.126 OA
ATOM     11  O   UNL     1      -2.404   1.321   5.621  0.00  0.00    -0.126 OA
ENDBRANCH   4   9
ENDBRANCH   1   2
BRANCH   1  12
ATOM     12  C   UNL     1       0.466  -2.161   1.446  0.00  0.00    +0.238 C 
ATOM     13  O   UNL     1       1.229  -1.447   0.831  0.00  0.00    -0.273 OA
ATOM     14  N   UNL     1       0.894  -2.821   2.540  0.00  0.00    -0.311 N 
ATOM     15  H   UNL     1       0.312  -3.460   2.980  0.00  0.00    +0.149 HD
BRANCH  14  16
ATOM     16  C   UNL     1       2.240  -2.576   3.063  0.00  0.00    +0.073 C 
ATOM     17  C   UNL     1       3.246  -3.455   2.317  0.00  0.00    +0.022 C 
ATOM     18  C   UNL     1       4.652  -3.199   2.864  0.00  0.00    +0.002 C 
ATOM     19  C   UNL     1       4.688  -3.535   4.356  0.00  0.00    +0.000 C 
ATOM     20  C   UNL     1       3.682  -2.656   5.102  0.00  0.00    +0.002 C 
ATOM     21  C   UNL     1       2.276  -2.913   4.555  0.00  0.00    +0.022 C 
ENDBRANCH  14  16
ENDBRANCH   1  12
BRANCH   1  22
ATOM     22  N   UNL     1      -1.125  -1.668  -0.320  0.00  0.00    -0.282 N 
ATOM     23  C   UNL     1      -0.528  -2.195  -1.407  0.00  0.00    +0.247 C 
ATOM     24  O   UNL     1      -0.954  -1.942  -2.517  0.00  0.00    -0.270 OA
BRANCH  23  25
ATOM     25  C   UNL     1       0.643  -3.080  -1.250  0.00  0.00    +0.037 A 
ATOM     26  C   UNL     1       0.800  -3.835  -0.084  0.00  0.00    +0.016 A 
ATOM     27  C   UNL     1       1.893  -4.659   0.059  0.00  0.00    +0.046 A 
ATOM     28  C   UNL     1       2.841  -4.741  -0.955  0.00  0.00    +0.117 A 
ATOM     29  C   UNL     1       2.690  -3.992  -2.115  0.00  0.00    +0.046 A 
ATOM     30  C   UNL     1       1.596  -3.169  -2.268  0.00  0.00    +0.016 A 
BRANCH  28  31
ATOM     31  O   UNL     1       3.918  -5.554  -0.810  0.00  0.00    -0.507 OA
ATOM     32  H   UNL     1       3.779  -6.453  -1.137  0.00  0.00    +0.292 HD
ENDBRANCH  28  31
ENDBRANCH  23  25
BRANCH  22  33
ATOM     33  C   UNL     1      -1.936  -0.455  -0.446  0.00  0.00    +0.109 C 
BRANCH  33  35
ATOM     34  C   UNL     1      -1.858   2.038  -0.603  0.00  0.00    +0.005 C 
ATOM     35  C   UNL     1      -1.032   0.776  -0.349  0.00  0.00    +0.016 C 
ENDBRANCH  33  35
ENDBRANCH  22  33
ENDBRANCH   1  22
TORSDOF 9
