REMARK  Name = ZINC37136377
REMARK  4 active torsions:
REMARK  status: ('A' for Active; 'I' for Inactive)
REMARK    1  A    between atoms: C_1  and  C_2
REMARK    2  A    between atoms: C_7  and  N_10
REMARK    3  A    between atoms: N_10  and  C_11
REMARK    4  A    between atoms: C_14  and  N_17
REMARK                            x       y       z     vdW  Elec       q    Type
REMARK                         _______ _______ _______ _____ _____    ______ ____
ROOT
ATOM      1  C   UNL     1      -0.872  -3.831   1.737  0.00  0.00    +0.027 A 
ATOM      2  C   UNL     1       0.170  -4.683   2.077  0.00  0.00    +0.025 A 
ATOM      3  C   UNL     1      -0.101  -5.939   2.583  0.00  0.00    +0.025 A 
ATOM      4  C   UNL     1      -1.417  -6.350   2.752  0.00  0.00    +0.035 A 
ATOM      5  C   UNL     1      -2.459  -5.498   2.412  0.00  0.00    +0.025 A 
ATOM      6  C   UNL     1      -2.188  -4.240   1.911  0.00  0.00    +0.025 A 
ENDROOT
BRANCH   4   7
ATOM      7  N   UNL     1      -1.692  -7.625   3.265  0.00  0.00    -0.270 N 
ATOM      8  C   UNL     1      -0.866  -8.178   4.175  0.00  0.00    +0.301 C 
ATOM      9  O   UNL     1       0.063  -7.534   4.623  0.00  0.00    -0.253 OA
ATOM     10  N   UNL     1      -1.070  -9.444   4.589  0.00  0.00    -0.313 N 
ATOM     11  H   UNL     1      -2.477  -8.109   2.965  0.00  0.00    +0.156 HD
ATOM     12  H   UNL     1      -1.811  -9.958   4.231  0.00  0.00    +0.146 HD
ATOM     13  H   UNL     1      -0.475  -9.842   5.244  0.00  0.00    +0.146 HD
ENDBRANCH   4   7
BRANCH   1  14
ATOM     14  N   UNL     1      -0.598  -2.559   1.224  0.00  0.00    -0.341 N 
ATOM     15  H   UNL     1      -1.326  -1.962   0.990  0.00  0.00    +0.146 HD
BRANCH  14  21
ATOM     16  C   UNL     1       0.061   1.510   0.008  0.00  0.00    +0.007 C 
ATOM     17  C   UNL     1      -0.008  -0.018  -0.035  0.00  0.00    -0.012 C 
ATOM     18  C   UNL     1       0.505  -0.513  -1.389  0.00  0.00    +0.003 C 
ATOM     19  C   UNL     1       0.436  -2.041  -1.432  0.00  0.00    +0.002 C 
ATOM     20  C   UNL     1       1.303  -2.623  -0.314  0.00  0.00    +0.022 C 
ATOM     21  C   UNL     1       0.790  -2.127   1.040  0.00  0.00    +0.071 C 
ATOM     22  C   UNL     1       0.859  -0.599   1.083  0.00  0.00    +0.025 C 
ENDBRANCH  14  21
ENDBRANCH   1  14
TORSDOF 3
