REMARK  Name = ZINC35954241
REMARK  13 active torsions:
REMARK  status: ('A' for Active; 'I' for Inactive)
REMARK    1  A    between atoms: C_1  and  C_2
REMARK    2  A    between atoms: C_3  and  C_20
REMARK    3  A    between atoms: C_4  and  N_13
REMARK    4  A    between atoms: N_5  and  C_7
REMARK    5  A    between atoms: N_16  and  C_19
REMARK    6  A    between atoms: C_20  and  N_21
REMARK    7  A    between atoms: N_21  and  C_22
REMARK    8  A    between atoms: C_22  and  C_23
REMARK    9  A    between atoms: C_23  and  C_24
REMARK   10  A    between atoms: C_24  and  C_25
REMARK   11  A    between atoms: C_24  and  C_26
REMARK   12  A    between atoms: C_27  and  C_29
REMARK   13  A    between atoms: C_32  and  C_34
REMARK                            x       y       z     vdW  Elec       q    Type
REMARK                         _______ _______ _______ _____ _____    ______ ____
ROOT
ATOM      1  C   UNL     1      -0.843  -1.256   5.992  0.00  0.00    +0.068 C 
ATOM      2  C   UNL     1      -1.787  -0.093   6.162  0.00  0.00    +0.067 A 
ATOM      3  C   UNL     1      -2.913   0.167   5.375  0.00  0.00    +0.032 A 
ATOM      4  C   UNL     1      -3.498   1.302   5.846  0.00  0.00    +0.130 A 
ATOM      5  N   UNL     1      -2.755   1.738   6.900  0.00  0.00    -0.218 N 
ATOM      6  N   UNL     1      -1.694   0.840   7.075  0.00  0.00    -0.170 NA
ENDROOT
BRANCH   4   7
ATOM      7  N   UNL     1      -4.646   1.907   5.343  0.00  0.00    -0.318 N 
ATOM      8  C   UNL     1      -5.923   1.827   6.068  0.00  0.00    +0.088 C 
ATOM      9  C   UNL     1      -6.499   3.242   6.195  0.00  0.00    -0.060 C 
ATOM     10  N   UNL     1      -6.596   3.851   4.862  0.00  0.00    +0.380 N 
ATOM     11  C   UNL     1      -5.254   4.020   4.291  0.00  0.00    -0.060 C 
ATOM     12  C   UNL     1      -4.615   2.650   4.073  0.00  0.00    +0.088 C 
ATOM     13  C   UNL     1      -7.249   5.162   4.972  0.00  0.00    -0.096 C 
ATOM     14  H   UNL     1      -7.143   3.254   4.260  0.00  0.00    -0.082 HD
ENDBRANCH   4   7
BRANCH   5  15
ATOM     15  C   UNL     1      -3.008   2.878   7.675  0.00  0.00    +0.067 A 
ATOM     16  C   UNL     1      -3.500   4.030   7.076  0.00  0.00    +0.028 A 
ATOM     17  C   UNL     1      -3.749   5.152   7.842  0.00  0.00    +0.002 A 
ATOM     18  C   UNL     1      -3.508   5.129   9.204  0.00  0.00    +0.000 A 
ATOM     19  C   UNL     1      -3.018   3.983   9.803  0.00  0.00    +0.002 A 
ATOM     20  C   UNL     1      -2.772   2.856   9.043  0.00  0.00    +0.028 A 
ENDBRANCH   5  15
BRANCH   3  21
ATOM     21  C   UNL     1      -3.393  -0.662   4.212  0.00  0.00    +0.148 C 
BRANCH  21  22
ATOM     22  N   UNL     1      -4.324  -1.686   4.694  0.00  0.00    -0.297 N 
ATOM     23  C   UNL     1      -3.858  -2.886   5.092  0.00  0.00    +0.220 C 
ATOM     24  O   UNL     1      -2.668  -3.119   5.053  0.00  0.00    -0.275 OA
BRANCH  23  25
ATOM     25  C   UNL     1      -4.815  -3.939   5.588  0.00  0.00    +0.083 C 
ATOM     26  C   UNL     1      -4.762  -4.300   7.074  0.00  0.00    +0.022 C 
ATOM     27  C   UNL     1      -4.225  -5.280   6.028  0.00  0.00    +0.032 C 
BRANCH  27  28
ATOM     28  C   UNL     1      -5.036  -6.521   5.756  0.00  0.00    -0.044 A 
ATOM     29  C   UNL     1      -6.300  -6.653   6.299  0.00  0.00    +0.004 A 
ATOM     30  C   UNL     1      -7.044  -7.791   6.049  0.00  0.00    +0.000 A 
ATOM     31  C   UNL     1      -6.524  -8.797   5.256  0.00  0.00    +0.000 A 
ATOM     32  C   UNL     1      -5.260  -8.664   4.712  0.00  0.00    +0.000 A 
ATOM     33  C   UNL     1      -4.518  -7.524   4.958  0.00  0.00    +0.004 A 
ENDBRANCH  27  28
ENDBRANCH  23  25
BRANCH  22  34
ATOM     34  C   UNL     1      -5.761  -1.405   4.742  0.00  0.00    +0.108 C 
BRANCH  34  35
ATOM     35  C   UNL     1      -6.423  -1.912   3.458  0.00  0.00    +0.022 C 
BRANCH  35  36
ATOM     36  C   UNL     1      -7.931  -1.668   3.532  0.00  0.00    -0.016 C 
ATOM     37  C   UNL     1      -8.206  -0.163   3.512  0.00  0.00    +0.007 C 
ATOM     38  C   UNL     1      -8.614  -2.328   2.332  0.00  0.00    +0.007 C 
ENDBRANCH  35  36
ENDBRANCH  34  35
ENDBRANCH  22  34
ENDBRANCH  21  22
ENDBRANCH   3  21
TORSDOF 9
