REMARK  Name = ZINC09309238
REMARK  13 active torsions:
REMARK  status: ('A' for Active; 'I' for Inactive)
REMARK    1  A    between atoms: C_1  and  C_2
REMARK    2  A    between atoms: C_2  and  O_3
REMARK    3  A    between atoms: O_3  and  C_4
REMARK    4  A    between atoms: C_7  and  N_10
REMARK    5  A    between atoms: C_11  and  C_29
REMARK    6  A    between atoms: C_14  and  S_15
REMARK    7  A    between atoms: S_15  and  C_16
REMARK    8  A    between atoms: C_16  and  C_17
REMARK    9  A    between atoms: N_19  and  C_20
REMARK   10  A    between atoms: C_21  and  C_28
REMARK   11  A    between atoms: C_23  and  C_27
REMARK   12  A    between atoms: C_32  and  O_35
REMARK   13  A    between atoms: O_35  and  C_36
REMARK                            x       y       z     vdW  Elec       q    Type
REMARK                         _______ _______ _______ _____ _____    ______ ____
ROOT
ATOM      1  N   UNL     1      -3.456   0.528  -1.822  0.00  0.00    -0.270 N 
ATOM      2  C   UNL     1      -2.253   0.006  -1.401  0.00  0.00    +0.169 A 
ATOM      3  N   UNL     1      -2.528  -0.959  -0.553  0.00  0.00    -0.128 NA
ATOM      4  N   UNL     1      -3.800  -1.078  -0.420  0.00  0.00    -0.122 NA
ATOM      5  C   UNL     1      -4.419  -0.197  -1.175  0.00  0.00    +0.197 A 
ENDROOT
BRANCH   1   9
ATOM      6  C   UNL     1      -4.042   3.661  -4.514  0.00  0.00    +0.121 A 
ATOM      7  C   UNL     1      -4.413   2.370  -4.861  0.00  0.00    +0.047 A 
ATOM      8  C   UNL     1      -4.219   1.333  -3.970  0.00  0.00    +0.030 A 
ATOM      9  C   UNL     1      -3.653   1.582  -2.727  0.00  0.00    +0.051 A 
ATOM     10  C   UNL     1      -3.287   2.875  -2.378  0.00  0.00    +0.030 A 
ATOM     11  C   UNL     1      -3.476   3.911  -3.272  0.00  0.00    +0.047 A 
BRANCH   6  12
ATOM     12  O   UNL     1      -4.232   4.682  -5.391  0.00  0.00    -0.492 OA
BRANCH  12  14
ATOM     13  C   UNL     1      -4.118   6.996  -6.079  0.00  0.00    +0.048 C 
ATOM     14  C   UNL     1      -3.827   5.986  -4.968  0.00  0.00    +0.225 C 
ENDBRANCH  12  14
ENDBRANCH   6  12
ENDBRANCH   1   9
BRANCH   2  15
ATOM     15  C   UNL     1      -0.907   0.451  -1.819  0.00  0.00    +0.020 A 
ATOM     16  C   UNL     1      -0.751   1.212  -2.979  0.00  0.00    +0.015 A 
ATOM     17  C   UNL     1       0.506   1.631  -3.362  0.00  0.00    +0.046 A 
ATOM     18  C   UNL     1       1.615   1.290  -2.600  0.00  0.00    +0.120 A 
ATOM     19  C   UNL     1       1.465   0.528  -1.450  0.00  0.00    +0.046 A 
ATOM     20  C   UNL     1       0.212   0.106  -1.059  0.00  0.00    +0.015 A 
BRANCH  18  21
ATOM     21  O   UNL     1       2.852   1.705  -2.982  0.00  0.00    -0.495 OA
ATOM     22  C   UNL     1       3.950   1.319  -2.152  0.00  0.00    +0.277 C 
ENDBRANCH  18  21
ENDBRANCH   2  15
BRANCH   5  23
ATOM     23  S   UNL     1      -6.162   0.014  -1.320  0.00  0.00    -0.076 S 
BRANCH  23  24
ATOM     24  C   UNL     1      -6.731  -1.274  -0.183  0.00  0.00    +0.173 C 
BRANCH  24  25
ATOM     25  C   UNL     1      -8.237  -1.280  -0.144  0.00  0.00    +0.228 C 
ATOM     26  O   UNL     1      -8.864  -0.491  -0.818  0.00  0.00    -0.275 OA
ATOM     27  N   UNL     1      -8.887  -2.162   0.641  0.00  0.00    -0.283 N 
ATOM     28  H   UNL     1      -8.388  -2.740   1.239  0.00  0.00    +0.155 HD
BRANCH  27  29
ATOM     29  C   UNL     1     -10.284  -2.245   0.592  0.00  0.00    +0.055 A 
ATOM     30  C   UNL     1     -10.902  -3.473   0.402  0.00  0.00    -0.028 A 
ATOM     31  C   UNL     1     -12.280  -3.552   0.354  0.00  0.00    +0.008 A 
ATOM     32  C   UNL     1     -13.045  -2.409   0.497  0.00  0.00    -0.049 A 
ATOM     33  C   UNL     1     -12.434  -1.183   0.687  0.00  0.00    +0.025 A 
ATOM     34  C   UNL     1     -11.055  -1.099   0.741  0.00  0.00    +0.063 A 
ATOM     35 CL   UNL     1     -10.288   0.439   0.987  0.00  0.00    -0.082 Cl
ATOM     36  C   UNL     1     -14.548  -2.499   0.445  0.00  0.00    +0.044 C 
ATOM     37  C   UNL     1     -10.070  -4.720   0.245  0.00  0.00    +0.046 C 
ENDBRANCH  27  29
ENDBRANCH  24  25
ENDBRANCH  23  24
ENDBRANCH   5  23
TORSDOF 9
