REMARK  Name = ZINC06134788
REMARK  13 active torsions:
REMARK  status: ('A' for Active; 'I' for Inactive)
REMARK    1  A    between atoms: C_1  and  C_2
REMARK    2  A    between atoms: C_2  and  C_3
REMARK    3  A    between atoms: C_6  and  N_9
REMARK    4  A    between atoms: N_9  and  C_10
REMARK    5  A    between atoms: C_10  and  C_12
REMARK    6  A    between atoms: C_10  and  C_18
REMARK    7  A    between atoms: N_20  and  C_21
REMARK    8  A    between atoms: C_21  and  C_22
REMARK    9  A    between atoms: C_21  and  C_23
REMARK   10  A    between atoms: C_21  and  C_24
REMARK   11  A    between atoms: C_25  and  C_27
REMARK   12  A    between atoms: C_27  and  N_28
REMARK   13  A    between atoms: C_30  and  C_33
REMARK                            x       y       z     vdW  Elec       q    Type
REMARK                         _______ _______ _______ _____ _____    ______ ____
ROOT
ATOM      1  N   UNL     1      -2.088   3.363   5.166  0.00  0.00    -0.254 N 
ATOM      2  C   UNL     1      -2.401   2.054   5.104  0.00  0.00    +0.244 C 
ATOM      3  O   UNL     1      -1.732   1.241   5.708  0.00  0.00    -0.273 OA
ENDROOT
BRANCH   1   7
ATOM      4  C   UNL     1      -4.995   6.239   4.370  0.00  0.00    -0.048 A 
ATOM      5  C   UNL     1      -4.133   6.407   5.438  0.00  0.00    +0.005 A 
ATOM      6  C   UNL     1      -3.171   5.453   5.707  0.00  0.00    +0.024 A 
ATOM      7  C   UNL     1      -3.064   4.329   4.899  0.00  0.00    +0.038 A 
ATOM      8  C   UNL     1      -3.929   4.166   3.824  0.00  0.00    +0.024 A 
ATOM      9  C   UNL     1      -4.891   5.121   3.563  0.00  0.00    +0.005 A 
BRANCH   4  11
ATOM     10  C   UNL     1      -7.331   6.929   4.838  0.00  0.00    +0.009 C 
ATOM     11  C   UNL     1      -6.047   7.279   4.082  0.00  0.00    +0.032 C 
ENDBRANCH   4  11
ENDBRANCH   1   7
BRANCH   1  12
ATOM     12  C   UNL     1      -0.726   3.775   5.514  0.00  0.00    +0.197 C 
BRANCH  12  13
ATOM     13  C   UNL     1       0.252   3.129   4.566  0.00  0.00    -0.015 A 
ATOM     14  C   UNL     1      -0.193   2.340   3.517  0.00  0.00    +0.025 A 
ATOM     15  C   UNL     1       0.733   1.767   2.666  0.00  0.00    +0.111 A 
ATOM     16  N   UNL     1       2.025   1.957   2.848  0.00  0.00    -0.263 NA
ATOM     17  C   UNL     1       2.484   2.698   3.838  0.00  0.00    +0.111 A 
ATOM     18  C   UNL     1       1.618   3.306   4.726  0.00  0.00    +0.025 A 
ENDBRANCH  12  13
BRANCH  12  19
ATOM     19  C   UNL     1      -0.416   3.346   6.925  0.00  0.00    +0.239 C 
ATOM     20  O   UNL     1      -1.256   2.770   7.582  0.00  0.00    -0.273 OA
ATOM     21  N   UNL     1       0.796   3.603   7.457  0.00  0.00    -0.309 N 
ATOM     22  H   UNL     1       1.468   4.064   6.931  0.00  0.00    +0.149 HD
BRANCH  21  23
ATOM     23  C   UNL     1       1.097   3.186   8.828  0.00  0.00    +0.026 C 
ATOM     24  C   UNL     1       0.958   1.666   8.941  0.00  0.00    +0.031 C 
ATOM     25  C   UNL     1       2.528   3.595   9.183  0.00  0.00    +0.031 C 
ATOM     26  C   UNL     1       0.120   3.860   9.793  0.00  0.00    +0.031 C 
ENDBRANCH  21  23
ENDBRANCH  12  19
ENDBRANCH   1  12
BRANCH   2  27
ATOM     27  C   UNL     1      -3.581   1.599   4.285  0.00  0.00    +0.264 C 
BRANCH  27  28
ATOM     28  N   UNL     1      -3.868   0.193   4.581  0.00  0.00    -0.154 N 
ATOM     29  N   UNL     1      -3.369  -0.817   3.956  0.00  0.00    -0.130 NA
ATOM     30  C   UNL     1      -3.857  -1.912   4.504  0.00  0.00    +0.205 A 
ATOM     31  N   UNL     1      -4.682  -1.516   5.484  0.00  0.00    -0.108 NA
ATOM     32  N   UNL     1      -4.663  -0.226   5.502  0.00  0.00    -0.045 NA
BRANCH  30  33
ATOM     33  C   UNL     1      -3.557  -3.311   4.109  0.00  0.00    +0.023 A 
ATOM     34  C   UNL     1      -2.678  -3.567   3.059  0.00  0.00    +0.014 A 
ATOM     35  C   UNL     1      -2.398  -4.870   2.699  0.00  0.00    +0.039 A 
ATOM     36  C   UNL     1      -2.998  -5.921   3.372  0.00  0.00    +0.123 A 
ATOM     37  C   UNL     1      -3.877  -5.670   4.414  0.00  0.00    +0.039 A 
ATOM     38  C   UNL     1      -4.158  -4.371   4.784  0.00  0.00    +0.014 A 
ATOM     39  F   UNL     1      -2.726  -7.194   3.013  0.00  0.00    -0.205 F 
ENDBRANCH  30  33
ENDBRANCH  27  28
ENDBRANCH   2  27
TORSDOF 9
