REMARK  Name = ZINC14983111
REMARK  11 active torsions:
REMARK  status: ('A' for Active; 'I' for Inactive)
REMARK    1  A    between atoms: C_1  and  C_2
REMARK    2  A    between atoms: C_8  and  C_28
REMARK    3  A    between atoms: C_12  and  C_14
REMARK    4  A    between atoms: C_12  and  C_17
REMARK    5  A    between atoms: C_14  and  C_15
REMARK    6  A    between atoms: C_15  and  O_16
REMARK    7  A    between atoms: C_17  and  O_18
REMARK    8  A    between atoms: C_21  and  O_27
REMARK    9  A    between atoms: C_23  and  C_24
REMARK   10  A    between atoms: C_23  and  C_25
REMARK   11  A    between atoms: C_25  and  O_26
REMARK                            x       y       z     vdW  Elec       q    Type
REMARK                         _______ _______ _______ _____ _____    ______ ____
ROOT
ATOM      1  C   UNL     1      -3.537   0.836   1.950  0.00  0.00    +0.010 C 
ATOM      2  C   UNL     1      -2.417   1.869   1.966  0.00  0.00    +0.018 C 
ATOM      3  C   UNL     1      -1.245   1.387   1.113  0.00  0.00    +0.006 C 
ATOM      4  C   UNL     1      -1.655   1.384  -0.363  0.00  0.00    +0.005 C 
ATOM      5  C   UNL     1      -1.970   2.808  -0.820  0.00  0.00    +0.008 C 
ATOM      6  C   UNL     1      -3.078   3.422   0.025  0.00  0.00    +0.001 C 
ATOM      7  C   UNL     1      -2.858   3.247   1.528  0.00  0.00    +0.079 C 
ATOM      8  C   UNL     1      -4.118   3.695   2.302  0.00  0.00    +0.039 C 
ATOM      9  C   UNL     1      -3.501   4.080   3.675  0.00  0.00    +0.040 C 
ATOM     10  C   UNL     1      -2.131   4.658   3.267  0.00  0.00    +0.095 C 
ATOM     11  O   UNL     1      -1.852   4.209   1.935  0.00  0.00    -0.364 OA
ATOM     12  C   UNL     1      -4.449   2.889  -0.376  0.00  0.00    +0.012 C 
ATOM     13  C   UNL     1      -4.704   3.158  -1.859  0.00  0.00    +0.032 C 
ATOM     14  C   UNL     1      -3.656   2.428  -2.691  0.00  0.00    +0.123 C 
ATOM     15  C   UNL     1      -2.237   2.842  -2.317  0.00  0.00    +0.020 C 
ATOM     16  C   UNL     1      -1.934   4.226  -2.911  0.00  0.00    +0.016 C 
ATOM     17  C   UNL     1      -3.080   4.955  -0.190  0.00  0.00    +0.014 C 
ENDROOT
BRANCH  14  18
ATOM     18  O   UNL     1      -3.808   1.015  -2.526  0.00  0.00    -0.391 OA
ATOM     19  H   UNL     1      -4.689   0.686  -2.747  0.00  0.00    +0.210 HD
ENDBRANCH  14  18
BRANCH  10  20
ATOM     20  C   UNL     1      -1.048   4.173   4.234  0.00  0.00    +0.065 C 
BRANCH  20  21
ATOM     21  C   UNL     1      -1.399   4.615   5.656  0.00  0.00    +0.158 C 
BRANCH  21  22
ATOM     22  O   UNL     1      -0.402   4.141   6.562  0.00  0.00    -0.395 OA
ATOM     23  H   UNL     1      -0.560   4.384   7.485  0.00  0.00    +0.209 HD
ENDBRANCH  21  22
ENDBRANCH  20  21
ENDBRANCH  10  20
BRANCH  10  24
ATOM     24  C   UNL     1      -2.192   6.189   3.300  0.00  0.00    +0.190 C 
BRANCH  24  25
ATOM     25  O   UNL     1      -0.904   6.724   2.988  0.00  0.00    -0.392 OA
ATOM     26  H   UNL     1      -0.868   7.690   2.991  0.00  0.00    +0.210 HD
ENDBRANCH  24  25
ENDBRANCH  10  24
BRANCH  15  27
ATOM     27  C   UNL     1      -1.282   1.869  -3.046  0.00  0.00    +0.165 C 
BRANCH  27  28
ATOM     28  O   UNL     1      -1.542   1.910  -4.451  0.00  0.00    -0.394 OA
ATOM     29  H   UNL     1      -0.978   1.323  -4.972  0.00  0.00    +0.209 HD
ENDBRANCH  27  28
ENDBRANCH  15  27
TORSDOF 8
