REMARK  Name = ZINC38564281
REMARK  11 active torsions:
REMARK  status: ('A' for Active; 'I' for Inactive)
REMARK    1  A    between atoms: C_1  and  O_2
REMARK    2  A    between atoms: O_2  and  C_3
REMARK    3  A    between atoms: C_5  and  C_13
REMARK    4  A    between atoms: C_7  and  O_11
REMARK    5  A    between atoms: C_8  and  O_9
REMARK    6  A    between atoms: O_9  and  C_10
REMARK    7  A    between atoms: O_11  and  C_12
REMARK    8  A    between atoms: C_15  and  C_27
REMARK    9  A    between atoms: N_29  and  C_30
REMARK   10  A    between atoms: C_30  and  C_31
REMARK   11  A    between atoms: C_31  and  C_32
REMARK                            x       y       z     vdW  Elec       q    Type
REMARK                         _______ _______ _______ _____ _____    ______ ____
ROOT
ATOM      1  C   UNL     1      -4.850   0.223   0.038  0.00  0.00    +0.076 C 
ATOM      2  N   UNL     1      -4.814   1.534   0.133  0.00  0.00    -0.244 NA
ATOM      3  C   UNL     1      -5.885   2.331   0.009  0.00  0.00    +0.126 C 
ATOM      4  C   UNL     1      -7.086   1.855  -0.521  0.00  0.00    +0.039 C 
ATOM      5  C   UNL     1      -7.165   0.484  -0.713  0.00  0.00    -0.008 C 
ATOM      6  C   UNL     1      -7.968  -0.335  -1.465  0.00  0.00    +0.004 A 
ATOM      7  C   UNL     1      -9.192  -0.106  -2.133  0.00  0.00    +0.010 A 
ATOM      8  C   UNL     1      -9.709  -1.148  -2.847  0.00  0.00    +0.001 A 
ATOM      9  C   UNL     1      -9.092  -2.396  -2.939  0.00  0.00    +0.002 A 
ATOM     10  C   UNL     1      -7.925  -2.705  -2.309  0.00  0.00    +0.026 A 
ATOM     11  C   UNL     1      -7.328  -1.679  -1.524  0.00  0.00    +0.044 A 
ATOM     12  N   UNL     1      -6.255  -1.715  -0.771  0.00  0.00    -0.372 N 
ATOM     13  C   UNL     1      -6.168  -0.459  -0.066  0.00  0.00    +0.160 C 
ATOM     14  H   UNL     1      -5.630  -2.453  -0.704  0.00  0.00    +0.161 HD
ENDROOT
BRANCH   1  17
ATOM     15  C   UNL     1      -1.248  -0.707  -0.430  0.00  0.00    +0.166 A 
ATOM     16  C   UNL     1      -2.416   0.029  -0.422  0.00  0.00    +0.059 A 
ATOM     17  C   UNL     1      -3.608  -0.555   0.027  0.00  0.00    +0.006 A 
ATOM     18  C   UNL     1      -3.609  -1.887   0.467  0.00  0.00    +0.059 A 
ATOM     19  C   UNL     1      -2.437  -2.616   0.456  0.00  0.00    +0.166 A 
ATOM     20  C   UNL     1      -1.255  -2.032   0.003  0.00  0.00    +0.204 A 
BRANCH  15  22
ATOM     21  C   UNL     1      -0.156   1.220  -1.295  0.00  0.00    +0.277 C 
ATOM     22  O   UNL     1      -0.091  -0.141  -0.866  0.00  0.00    -0.491 OA
ENDBRANCH  15  22
BRANCH  20  23
ATOM     23  O   UNL     1      -0.105  -2.755  -0.011  0.00  0.00    -0.488 OA
ATOM     24  C   UNL     1       0.702  -2.714   1.168  0.00  0.00    +0.277 C 
ENDBRANCH  20  23
BRANCH  19  25
ATOM     25  O   UNL     1      -2.437  -3.907   0.882  0.00  0.00    -0.491 OA
ATOM     26  C   UNL     1      -3.684  -4.443   1.328  0.00  0.00    +0.277 C 
ENDBRANCH  19  25
ENDBRANCH   1  17
BRANCH   3  27
ATOM     27  C   UNL     1      -5.792   3.744   0.442  0.00  0.00    +0.262 C 
ATOM     28  O   UNL     1      -6.756   4.476   0.334  0.00  0.00    -0.269 OA
ATOM     29  N   UNL     1      -4.639   4.217   0.955  0.00  0.00    -0.310 N 
ATOM     30  H   UNL     1      -3.870   3.632   1.041  0.00  0.00    +0.149 HD
BRANCH  29  31
ATOM     31  C   UNL     1      -4.548   5.615   1.384  0.00  0.00    +0.109 C 
BRANCH  31  32
ATOM     32  C   UNL     1      -3.143   5.892   1.924  0.00  0.00    +0.054 C 
BRANCH  32  33
ATOM     33  C   UNL     1      -3.049   7.330   2.364  0.00  0.00    -0.046 A 
ATOM     34  C   UNL     1      -2.651   8.303   1.467  0.00  0.00    +0.006 A 
ATOM     35  C   UNL     1      -2.565   9.622   1.870  0.00  0.00    +0.038 A 
ATOM     36  C   UNL     1      -2.877   9.969   3.173  0.00  0.00    +0.123 A 
ATOM     37  C   UNL     1      -3.276   8.994   4.071  0.00  0.00    +0.038 A 
ATOM     38  C   UNL     1      -3.367   7.676   3.665  0.00  0.00    +0.006 A 
ATOM     39  F   UNL     1      -2.793  11.258   3.568  0.00  0.00    -0.205 F 
ENDBRANCH  32  33
ENDBRANCH  31  32
ENDBRANCH  29  31
ENDBRANCH   3  27
TORSDOF 8
