REMARK  Name = ZINC07445403
REMARK  6 active torsions:
REMARK  status: ('A' for Active; 'I' for Inactive)
REMARK    1  A    between atoms: C_1  and  C_2
REMARK    2  A    between atoms: C_9  and  C_11
REMARK    3  A    between atoms: C_11  and  S_12
REMARK    4  A    between atoms: S_12  and  C_13
REMARK    5  A    between atoms: N_18  and  C_19
REMARK    6  A    between atoms: C_19  and  C_20
REMARK                            x       y       z     vdW  Elec       q    Type
REMARK                         _______ _______ _______ _____ _____    ______ ____
ROOT
ATOM      1  C   UNL     1       3.777   0.514   5.386  0.00  0.00    +0.160 A 
ATOM      2  N   UNL     1       4.169  -0.741   5.497  0.00  0.00    -0.133 NA
ATOM      3  N   UNL     1       5.019  -1.105   6.515  0.00  0.00    -0.125 NA
ATOM      4  C   UNL     1       5.439  -0.199   7.375  0.00  0.00    +0.183 A 
ATOM      5  S   UNL     1       4.629   1.270   6.762  0.00  0.00    -0.025 S 
ATOM      6  N   UNL     1       6.290  -0.346   8.465  0.00  0.00    -0.315 N 
ATOM      7  H   UNL     1       6.511   0.422   9.015  0.00  0.00    +0.148 HD
ENDROOT
BRANCH   1   8
ATOM      8  S   UNL     1       2.707   1.249   4.195  0.00  0.00    -0.088 S 
BRANCH   8   9
ATOM      9  C   UNL     1       2.232  -0.133   3.120  0.00  0.00    +0.172 C 
BRANCH   9  17
ATOM     10  C   UNL     1       0.008   1.528  -0.006  0.00  0.00    +0.028 C 
ATOM     11  C   UNL     1       0.016  -0.002  -0.007  0.00  0.00    +0.073 C 
ATOM     12  C   UNL     1       0.633  -0.512  -1.313  0.00  0.00    +0.022 C 
ATOM     13  C   UNL     1       0.765  -2.035  -1.250  0.00  0.00    +0.003 C 
ATOM     14  C   UNL     1       1.692  -2.421  -0.095  0.00  0.00    +0.019 C 
ATOM     15  C   UNL     1       1.087  -1.933   1.225  0.00  0.00    +0.108 C 
ATOM     16  N   UNL     1       0.819  -0.492   1.122  0.00  0.00    -0.298 N 
ATOM     17  C   UNL     1       1.304   0.365   2.042  0.00  0.00    +0.226 C 
ATOM     18  O   UNL     1       0.994   1.537   2.003  0.00  0.00    -0.275 OA
ENDBRANCH   9  17
ENDBRANCH   8   9
ENDBRANCH   1   8
BRANCH   6  19
ATOM     19  C   UNL     1       6.852  -1.661   8.783  0.00  0.00    +0.178 C 
BRANCH  19  20
ATOM     20  C   UNL     1       7.733  -1.549  10.000  0.00  0.00    +0.122 A 
ATOM     21  C   UNL     1       7.337  -1.707  11.276  0.00  0.00    +0.046 A 
ATOM     22  C   UNL     1       8.480  -1.517  12.086  0.00  0.00    +0.041 A 
ATOM     23  C   UNL     1       9.506  -1.253  11.258  0.00  0.00    +0.195 A 
ATOM     24  O   UNL     1       9.049  -1.280   9.995  0.00  0.00    -0.466 OA
ENDBRANCH  19  20
ENDBRANCH   6  19
TORSDOF 5
