REMARK  Name = ZINC19875129
REMARK  4 active torsions:
REMARK  status: ('A' for Active; 'I' for Inactive)
REMARK    1  A    between atoms: C_3  and  C_18
REMARK    2  A    between atoms: C_6  and  C_7
REMARK    3  A    between atoms: C_7  and  N_8
REMARK    4  A    between atoms: C_14  and  N_17
REMARK                            x       y       z     vdW  Elec       q    Type
REMARK                         _______ _______ _______ _____ _____    ______ ____
ROOT
ATOM      1  C   UNL     1       1.221  -2.189  -0.022  0.00  0.00    +0.140 C 
ENDROOT
BRANCH   1   2
ATOM      2  N   UNL     1       1.212  -2.671  -1.410  0.00  0.00    -0.325 N 
ATOM      3  C   UNL     1       2.500  -2.385  -2.078  0.00  0.00    +0.110 C 
ATOM      4  C   UNL     1       2.079  -2.184  -3.552  0.00  0.00    +0.056 C 
ATOM      5  C   UNL     1       0.634  -1.741  -3.432  0.00  0.00    -0.025 A 
ATOM      6  C   UNL     1       0.196  -2.053  -2.149  0.00  0.00    +0.035 A 
ATOM      7  C   UNL     1      -1.109  -1.735  -1.781  0.00  0.00    +0.046 A 
ATOM      8  C   UNL     1      -1.958  -1.121  -2.689  0.00  0.00    +0.026 A 
ATOM      9  C   UNL     1      -1.509  -0.820  -3.969  0.00  0.00    +0.023 A 
ATOM     10  C   UNL     1      -0.213  -1.133  -4.335  0.00  0.00    +0.007 A 
BRANCH   8  11
ATOM     11  N   UNL     1      -3.266  -0.805  -2.316  0.00  0.00    -0.358 N 
ATOM     12  H   UNL     1      -3.941  -0.318  -3.036  0.00  0.00    +0.142 HD
ATOM     13  H   UNL     1      -3.622  -1.043  -1.303  0.00  0.00    +0.142 HD
ENDBRANCH   8  11
ENDBRANCH   1   2
BRANCH   1  19
ATOM     14  C   UNL     1       0.002  -0.004   0.002  0.00  0.00    +0.006 A 
ATOM     15  C   UNL     1      -0.017   1.375   0.010  0.00  0.00    +0.013 A 
ATOM     16  C   UNL     1       1.184   2.087   0.002  0.00  0.00    +0.037 A 
ATOM     17  C   UNL     1       2.397   1.396  -0.013  0.00  0.00    +0.013 A 
ATOM     18  C   UNL     1       2.402   0.016  -0.021  0.00  0.00    +0.006 A 
ATOM     19  C   UNL     1       1.208  -0.682  -0.013  0.00  0.00    -0.030 A 
BRANCH  16  20
ATOM     20  C   UNL     1       1.172   3.565   0.011  0.00  0.00    +0.242 C 
ATOM     21  O   UNL     1       0.114   4.164   0.024  0.00  0.00    -0.270 OA
ATOM     22  N   UNL     1       2.333   4.249   0.003  0.00  0.00    -0.325 N 
ATOM     23  H   UNL     1       2.324   5.349   0.009  0.00  0.00    +0.145 HD
ATOM     24  H   UNL     1       3.290   3.707  -0.009  0.00  0.00    +0.145 HD
ENDBRANCH  16  20
ENDBRANCH   1  19
TORSDOF 4
