REMARK  Name = ZINC29699494
REMARK  10 active torsions:
REMARK  status: ('A' for Active; 'I' for Inactive)
REMARK    1  A    between atoms: C_1  and  C_2
REMARK    2  A    between atoms: N_4  and  C_5
REMARK    3  A    between atoms: C_5  and  C_7
REMARK    4  A    between atoms: C_5  and  C_29
REMARK    5  A    between atoms: C_7  and  C_8
REMARK    6  A    between atoms: N_10  and  C_11
REMARK    7  A    between atoms: C_13  and  S_18
REMARK    8  A    between atoms: C_16  and  O_17
REMARK    9  A    between atoms: S_18  and  N_21
REMARK   10  A    between atoms: N_21  and  C_22
REMARK                            x       y       z     vdW  Elec       q    Type
REMARK                         _______ _______ _______ _____ _____    ______ ____
ROOT
ATOM      1  C   UNL     1       2.764   2.137  -4.427  0.00  0.00    +0.077 A 
ATOM      2  C   UNL     1       2.446   2.440  -3.111  0.00  0.00    +0.055 A 
ATOM      3  C   UNL     1       2.487   1.452  -2.146  0.00  0.00    +0.110 A 
ATOM      4  C   UNL     1       2.850   0.162  -2.487  0.00  0.00    +0.032 A 
ATOM      5  C   UNL     1       3.163  -0.148  -3.797  0.00  0.00    +0.049 A 
ATOM      6  C   UNL     1       3.124   0.836  -4.771  0.00  0.00    +0.138 A 
ENDROOT
BRANCH   1   9
ATOM      7  C   UNL     1       2.764   4.436  -5.049  0.00  0.00    +0.219 C 
ATOM      8  O   UNL     1       2.938   4.738  -3.887  0.00  0.00    -0.275 OA
ATOM      9  N   UNL     1       2.723   3.137  -5.408  0.00  0.00    -0.282 N 
ATOM     10  H   UNL     1       2.656   2.862  -6.471  0.00  0.00    +0.155 HD
BRANCH   7  11
ATOM     11  C   UNL     1       2.595   5.511  -6.090  0.00  0.00    +0.123 C 
BRANCH  11  12
ATOM     12  C   UNL     1       2.683   6.885  -5.423  0.00  0.00    +0.118 C 
BRANCH  12  16
ATOM     13  C   UNL     1       5.613   8.128  -3.295  0.00  0.00    +0.109 C 
ATOM     14  C   UNL     1       4.227   7.928  -3.853  0.00  0.00    +0.210 C 
ATOM     15  O   UNL     1       3.289   8.532  -3.377  0.00  0.00    -0.276 OA
ATOM     16  N   UNL     1       4.030   7.080  -4.881  0.00  0.00    -0.308 N 
ATOM     17  H   UNL     1       4.881   6.532  -5.313  0.00  0.00    +0.149 HD
ENDBRANCH  12  16
BRANCH  12  18
ATOM     18  C   UNL     1       2.393   7.958  -6.442  0.00  0.00    +0.010 A 
ATOM     19  C   UNL     1       1.243   8.643  -6.654  0.00  0.00    +0.013 A 
ATOM     20  C   UNL     1       1.206   9.595  -7.657  0.00  0.00    +0.008 A 
ATOM     21  C   UNL     1       2.320   9.813  -8.397  0.00  0.00    +0.045 A 
ATOM     22  S   UNL     1       3.475   8.660  -7.676  0.00  0.00    -0.100 S 
ENDBRANCH  12  18
ENDBRANCH  11  12
ENDBRANCH   7  11
ENDBRANCH   1   9
BRANCH   3  23
ATOM     23  S   UNL     1       2.084   1.839  -0.475  0.00  0.00    +0.072 S 
ATOM     24  O   UNL     1       2.214   3.248  -0.341  0.00  0.00    -0.150 OA
ATOM     25  O   UNL     1       2.807   0.927   0.340  0.00  0.00    -0.150 OA
BRANCH  23  26
ATOM     26  N   UNL     1       0.479   1.490  -0.265  0.00  0.00    -0.216 N 
ATOM     27  H   UNL     1      -0.238   2.300  -0.063  0.00  0.00    +0.174 HD
BRANCH  26  28
ATOM     28  C   UNL     1       0.035   0.168  -0.345  0.00  0.00    +0.049 A 
ATOM     29  C   UNL     1       0.281  -0.713   0.700  0.00  0.00    +0.024 A 
ATOM     30  C   UNL     1      -0.159  -2.020   0.618  0.00  0.00    +0.003 A 
ATOM     31  C   UNL     1      -0.845  -2.451  -0.502  0.00  0.00    +0.020 A 
ATOM     32  C   UNL     1      -1.092  -1.577  -1.546  0.00  0.00    +0.043 A 
ATOM     33  C   UNL     1      -0.658  -0.266  -1.468  0.00  0.00    +0.044 A 
ATOM     34 CL   UNL     1      -1.953  -2.123  -2.950  0.00  0.00    -0.083 Cl
ENDBRANCH  26  28
ENDBRANCH  23  26
ENDBRANCH   3  23
BRANCH   6  35
ATOM     35  O   UNL     1       3.437   0.534  -6.059  0.00  0.00    -0.505 OA
ATOM     36  H   UNL     1       3.721  -0.494  -6.329  0.00  0.00    +0.292 HD
ENDBRANCH   6  35
TORSDOF 9
