REMARK  Name = ZINC45637158
REMARK  7 active torsions:
REMARK  status: ('A' for Active; 'I' for Inactive)
REMARK    1  A    between atoms: C_1  and  C_2
REMARK    2  A    between atoms: C_6  and  C_25
REMARK    3  A    between atoms: C_8  and  N_11
REMARK    4  A    between atoms: N_14  and  N_15
REMARK    5  A    between atoms: N_18  and  C_19
REMARK    6  A    between atoms: C_25  and  C_26
REMARK    7  A    between atoms: C_25  and  C_27
REMARK                            x       y       z     vdW  Elec       q    Type
REMARK                         _______ _______ _______ _____ _____    ______ ____
ROOT
ATOM      1  N   UNL     1       0.223   1.463   2.341  0.00  0.00    -0.295 N 
ATOM      2  C   UNL     1       1.300   2.137   2.790  0.00  0.00    +0.316 C 
ATOM      3  O   UNL     1       2.276   1.529   3.186  0.00  0.00    -0.251 OA
ATOM      4  N   UNL     1       1.296   3.485   2.800  0.00  0.00    -0.217 N 
ATOM      5  H   UNL     1      -0.555   1.948   2.025  0.00  0.00    +0.151 HD
ATOM      6  H   UNL     1       2.071   3.970   3.123  0.00  0.00    +0.174 HD
ENDROOT
BRANCH   1  12
ATOM      7  C   UNL     1       0.572   1.548  -0.132  0.00  0.00    +0.007 C 
ATOM      8  C   UNL     1       0.577   0.018  -0.144  0.00  0.00    -0.012 C 
ATOM      9  C   UNL     1      -0.850  -0.495  -0.349  0.00  0.00    +0.004 C 
ATOM     10  C   UNL     1      -1.740   0.003   0.791  0.00  0.00    +0.006 C 
ATOM     11  C   UNL     1      -1.199  -0.515   2.125  0.00  0.00    +0.012 C 
ATOM     12  C   UNL     1       0.228  -0.002   2.330  0.00  0.00    +0.078 C 
ATOM     13  C   UNL     1       1.118  -0.501   1.190  0.00  0.00    +0.026 C 
BRANCH  11  14
ATOM     14  C   UNL     1      -2.089  -0.016   3.265  0.00  0.00    -0.012 C 
ATOM     15  C   UNL     1      -3.516  -0.529   3.060  0.00  0.00    +0.007 C 
ATOM     16  C   UNL     1      -1.548  -0.534   4.599  0.00  0.00    +0.007 C 
ENDBRANCH  11  14
ENDBRANCH   1  12
BRANCH   4  17
ATOM     17  N   UNL     1       0.172   4.185   2.344  0.00  0.00    -0.217 N 
ATOM     18  C   UNL     1       0.168   5.533   2.354  0.00  0.00    +0.320 C 
ATOM     19  O   UNL     1      -0.808   6.141   1.958  0.00  0.00    -0.251 OA
ATOM     20  N   UNL     1       1.245   6.207   2.803  0.00  0.00    -0.268 N 
ATOM     21  H   UNL     1      -0.604   3.700   2.021  0.00  0.00    +0.174 HD
ATOM     22  H   UNL     1       2.050   5.725   3.049  0.00  0.00    +0.156 HD
BRANCH  20  23
ATOM     23  C   UNL     1       1.202   7.601   2.913  0.00  0.00    +0.035 A 
ATOM     24  C   UNL     1       2.349   8.352   2.693  0.00  0.00    +0.023 A 
ATOM     25  C   UNL     1       2.303   9.728   2.803  0.00  0.00    +0.002 A 
ATOM     26  C   UNL     1       1.117  10.358   3.132  0.00  0.00    +0.000 A 
ATOM     27  C   UNL     1      -0.027   9.613   3.353  0.00  0.00    +0.002 A 
ATOM     28  C   UNL     1       0.011   8.237   3.238  0.00  0.00    +0.023 A 
ENDBRANCH  20  23
ENDBRANCH   4  17
TORSDOF 4
