REMARK  Name = ZINC00067486
REMARK  8 active torsions:
REMARK  status: ('A' for Active; 'I' for Inactive)
REMARK    1  A    between atoms: C_3  and  O_23
REMARK    2  A    between atoms: C_6  and  C_7
REMARK    3  A    between atoms: C_7  and  C_8
REMARK    4  A    between atoms: C_8  and  C_9
REMARK    5  A    between atoms: N_11  and  N_12
REMARK    6  A    between atoms: N_12  and  C_13
REMARK    7  A    between atoms: C_13  and  N_15
REMARK    8  A    between atoms: N_15  and  C_16
REMARK                            x       y       z     vdW  Elec       q    Type
REMARK                         _______ _______ _______ _____ _____    ______ ____
ROOT
ATOM      1  C   UNL     1       3.607  -0.884   0.228  0.00  0.00    +0.229 C 
ATOM      2  O   UNL     1       4.601  -0.292  -0.137  0.00  0.00    -0.274 OA
ATOM      3  N   UNL     1       2.403  -0.284   0.161  0.00  0.00    -0.235 N 
ATOM      4  H   UNL     1       1.608  -0.758   0.452  0.00  0.00    +0.173 HD
ENDROOT
BRANCH   3   5
ATOM      5  N   UNL     1       2.298   1.024  -0.331  0.00  0.00    -0.246 N 
ATOM      6  H   UNL     1       3.093   1.497  -0.622  0.00  0.00    +0.172 HD
BRANCH   5   7
ATOM      7  C   UNL     1       1.093   1.624  -0.398  0.00  0.00    +0.151 C 
ATOM      8  S   UNL     1       0.965   3.222  -0.998  0.00  0.00    -0.017 S 
BRANCH   7   9
ATOM      9  N   UNL     1      -0.011   0.966   0.007  0.00  0.00    -0.296 N 
ATOM     10  H   UNL     1       0.052   0.040   0.289  0.00  0.00    +0.154 HD
BRANCH   9  11
ATOM     11  C   UNL     1      -1.250   1.617   0.017  0.00  0.00    +0.033 A 
ATOM     12  C   UNL     1      -2.093   1.494   1.113  0.00  0.00    +0.026 A 
ATOM     13  C   UNL     1      -3.312   2.142   1.123  0.00  0.00    +0.040 A 
ATOM     14  C   UNL     1      -3.700   2.905   0.034  0.00  0.00    +0.124 A 
ATOM     15  C   UNL     1      -2.864   3.025  -1.063  0.00  0.00    +0.040 A 
ATOM     16  C   UNL     1      -1.641   2.383  -1.074  0.00  0.00    +0.026 A 
ATOM     17  F   UNL     1      -4.896   3.533   0.043  0.00  0.00    -0.205 F 
ENDBRANCH   9  11
ENDBRANCH   7   9
ENDBRANCH   5   7
ENDBRANCH   3   5
BRANCH   1  18
ATOM     18  C   UNL     1       3.720  -2.291   0.756  0.00  0.00    +0.102 C 
BRANCH  18  19
ATOM     19  C   UNL     1       5.185  -2.732   0.726  0.00  0.00    +0.044 C 
BRANCH  19  25
ATOM     20  C   UNL     1       5.506  -4.354   2.604  0.00  0.00    +0.007 A 
ATOM     21  C   UNL     1       5.604  -5.643   3.092  0.00  0.00    +0.045 A 
ATOM     22  C   UNL     1       5.504  -6.721   2.225  0.00  0.00    +0.117 A 
ATOM     23  C   UNL     1       5.300  -6.502   0.870  0.00  0.00    +0.045 A 
ATOM     24  C   UNL     1       5.197  -5.211   0.388  0.00  0.00    +0.007 A 
ATOM     25  C   UNL     1       5.298  -4.138   1.255  0.00  0.00    -0.047 A 
BRANCH  22  26
ATOM     26  O   UNL     1       5.605  -7.990   2.701  0.00  0.00    -0.507 OA
ATOM     27  H   UNL     1       6.508  -8.335   2.711  0.00  0.00    +0.292 HD
ENDBRANCH  22  26
ENDBRANCH  19  25
ENDBRANCH  18  19
ENDBRANCH   1  18
TORSDOF 8
