REMARK  Name = ZINC00933703
REMARK  13 active torsions:
REMARK  status: ('A' for Active; 'I' for Inactive)
REMARK    1  A    between atoms: C_1  and  C_2
REMARK    2  A    between atoms: C_2  and  C_3
REMARK    3  A    between atoms: N_9  and  S_10
REMARK    4  A    between atoms: S_10  and  C_13
REMARK    5  A    between atoms: C_16  and  S_19
REMARK    6  A    between atoms: S_19  and  N_22
REMARK    7  A    between atoms: N_22  and  C_23
REMARK    8  A    between atoms: N_22  and  C_33
REMARK    9  A    between atoms: C_23  and  C_24
REMARK   10  A    between atoms: C_29  and  O_30
REMARK   11  A    between atoms: O_30  and  C_31
REMARK   12  A    between atoms: C_31  and  C_32
REMARK   13  A    between atoms: C_33  and  C_34
REMARK                            x       y       z     vdW  Elec       q    Type
REMARK                         _______ _______ _______ _____ _____    ______ ____
ROOT
ATOM      1  S   UNL     1      -7.579   0.027   0.494  0.00  0.00    +0.062 S 
ATOM      2  O   UNL     1      -7.425  -0.440   1.828  0.00  0.00    -0.153 OA
ATOM      3  O   UNL     1      -8.247   1.242   0.185  0.00  0.00    -0.153 OA
ENDROOT
BRANCH   1   7
ATOM      4  C   UNL     1      -3.414   0.360  -1.249  0.00  0.00    +0.106 A 
ATOM      5  C   UNL     1      -3.656  -0.503  -0.197  0.00  0.00    +0.030 A 
ATOM      6  C   UNL     1      -4.926  -0.601   0.339  0.00  0.00    +0.030 A 
ATOM      7  C   UNL     1      -5.957   0.157  -0.184  0.00  0.00    +0.106 A 
ATOM      8  C   UNL     1      -5.717   1.016  -1.240  0.00  0.00    +0.030 A 
ATOM      9  C   UNL     1      -4.445   1.118  -1.772  0.00  0.00    +0.030 A 
BRANCH   4  10
ATOM     10  S   UNL     1      -1.793   0.489  -1.928  0.00  0.00    +0.061 S 
ATOM     11  O   UNL     1      -1.931   1.128  -3.189  0.00  0.00    -0.153 OA
ATOM     12  O   UNL     1      -1.190  -0.789  -1.783  0.00  0.00    -0.153 OA
BRANCH  10  18
ATOM     13  C   UNL     1      -1.083   2.982  -1.115  0.00  0.00    +0.080 C 
ATOM     14  C   UNL     1      -1.439   3.589   0.246  0.00  0.00    +0.021 C 
ATOM     15  C   UNL     1      -0.390   3.166   1.278  0.00  0.00    +0.003 C 
ATOM     16  C   UNL     1      -0.387   1.642   1.414  0.00  0.00    +0.017 C 
ATOM     17  C   UNL     1      -0.023   1.014   0.065  0.00  0.00    +0.110 C 
ATOM     18  N   UNL     1      -0.939   1.528  -0.962  0.00  0.00    -0.174 NA
BRANCH  13  20
ATOM     19  C   UNL     1      -2.428   4.795  -2.187  0.00  0.00    +0.005 C 
ATOM     20  C   UNL     1      -2.197   3.284  -2.120  0.00  0.00    +0.017 C 
ENDBRANCH  13  20
ENDBRANCH  10  18
ENDBRANCH   4  10
ENDBRANCH   1   7
BRANCH   1  21
ATOM     21  N   UNL     1      -8.363  -1.170  -0.339  0.00  0.00    -0.165 NA
BRANCH  21  22
ATOM     22  C   UNL     1      -9.129  -0.843  -1.544  0.00  0.00    +0.148 C 
BRANCH  22  23
ATOM     23  C   UNL     1      -8.267  -1.057  -2.761  0.00  0.00    +0.010 A 
ATOM     24  C   UNL     1      -7.661   0.021  -3.378  0.00  0.00    +0.008 A 
ATOM     25  C   UNL     1      -6.866  -0.176  -4.491  0.00  0.00    +0.001 A 
ATOM     26  C   UNL     1      -6.683  -1.450  -4.997  0.00  0.00    +0.004 A 
ATOM     27  C   UNL     1      -7.290  -2.530  -4.387  0.00  0.00    +0.046 A 
ATOM     28  C   UNL     1      -8.085  -2.336  -3.266  0.00  0.00    +0.125 A 
BRANCH  28  29
ATOM     29  O   UNL     1      -8.684  -3.397  -2.664  0.00  0.00    -0.492 OA
BRANCH  29  30
ATOM     30  C   UNL     1      -8.452  -4.685  -3.239  0.00  0.00    +0.225 C 
ATOM     31  C   UNL     1      -9.202  -5.746  -2.432  0.00  0.00    +0.048 C 
ENDBRANCH  29  30
ENDBRANCH  28  29
ENDBRANCH  22  23
ENDBRANCH  21  22
BRANCH  21  32
ATOM     32  C   UNL     1      -8.292  -2.557   0.130  0.00  0.00    +0.184 C 
BRANCH  32  33
ATOM     33  C   UNL     1      -9.494  -2.860   0.986  0.00  0.00    +0.120 A 
ATOM     34  C   UNL     1     -10.669  -3.346   0.548  0.00  0.00    +0.046 A 
ATOM     35  C   UNL     1     -11.505  -3.478   1.681  0.00  0.00    +0.041 A 
ATOM     36  C   UNL     1     -10.791  -3.064   2.743  0.00  0.00    +0.195 A 
ATOM     37  O   UNL     1      -9.571  -2.697   2.317  0.00  0.00    -0.466 OA
ENDBRANCH  32  33
ENDBRANCH  21  32
ENDBRANCH   1  21
TORSDOF 11
