REMARK  Name = ZINC00648476
REMARK  17 active torsions:
REMARK  status: ('A' for Active; 'I' for Inactive)
REMARK    1  A    between atoms: C_1  and  C_2
REMARK    2  A    between atoms: C_3  and  C_35
REMARK    3  A    between atoms: C_4  and  C_25
REMARK    4  A    between atoms: C_10  and  C_15
REMARK    5  A    between atoms: C_18  and  O_23
REMARK    6  A    between atoms: C_19  and  O_21
REMARK    7  A    between atoms: O_21  and  C_22
REMARK    8  A    between atoms: O_23  and  C_24
REMARK    9  A    between atoms: C_30  and  O_31
REMARK   10  A    between atoms: O_31  and  C_32
REMARK   11  A    between atoms: C_32  and  C_33
REMARK   12  A    between atoms: C_32  and  C_34
REMARK   13  A    between atoms: C_35  and  O_37
REMARK   14  A    between atoms: O_37  and  C_38
REMARK   15  A    between atoms: C_38  and  C_39
REMARK   16  A    between atoms: C_39  and  C_40
REMARK   17  A    between atoms: C_39  and  C_41
REMARK                            x       y       z     vdW  Elec       q    Type
REMARK                         _______ _______ _______ _____ _____    ______ ____
ROOT
ATOM      1  C   UNL     1       0.212   6.864  -2.086  0.00  0.00    +0.061 C 
ATOM      2  C   UNL     1      -0.326   5.968  -1.001  0.00  0.00    +0.016 C 
ATOM      3  C   UNL     1       0.412   4.934  -0.562  0.00  0.00    +0.065 C 
ATOM      4  C   UNL     1      -0.096   4.015   0.511  0.00  0.00    +0.096 C 
ATOM      5  C   UNL     1      -1.241   4.643   1.265  0.00  0.00    +0.024 C 
ATOM      6  C   UNL     1      -1.911   5.695   0.750  0.00  0.00    +0.016 C 
ATOM      7  N   UNL     1      -1.562   6.212  -0.470  0.00  0.00    -0.321 N 
ATOM      8  C   UNL     1      -3.053   6.333   1.501  0.00  0.00    +0.059 C 
ATOM      9  C   UNL     1      -3.759   5.277   2.354  0.00  0.00    +0.032 C 
ATOM     10  C   UNL     1      -2.734   4.663   3.314  0.00  0.00    +0.088 C 
ATOM     11  C   UNL     1      -1.591   4.101   2.514  0.00  0.00    +0.162 C 
ATOM     12  O   UNL     1      -0.959   3.162   2.955  0.00  0.00    -0.292 OA
ATOM     13  H   UNL     1      -2.286   6.828  -1.023  0.00  0.00    +0.152 HD
ENDROOT
BRANCH   9  14
ATOM     14  C   UNL     1      -4.871   5.923   3.140  0.00  0.00    -0.040 A 
ATOM     15  C   UNL     1      -4.585   6.937   4.035  0.00  0.00    +0.008 A 
ATOM     16  C   UNL     1      -5.601   7.532   4.759  0.00  0.00    +0.049 A 
ATOM     17  C   UNL     1      -6.911   7.113   4.587  0.00  0.00    +0.161 A 
ATOM     18  C   UNL     1      -7.199   6.093   3.686  0.00  0.00    +0.162 A 
ATOM     19  C   UNL     1      -6.176   5.503   2.961  0.00  0.00    +0.053 A 
BRANCH  18  20
ATOM     20  O   UNL     1      -8.483   5.678   3.515  0.00  0.00    -0.491 OA
ATOM     21  C   UNL     1      -8.704   4.626   2.573  0.00  0.00    +0.277 C 
ENDBRANCH  18  20
BRANCH  17  22
ATOM     22  O   UNL     1      -7.912   7.698   5.298  0.00  0.00    -0.491 OA
ATOM     23  C   UNL     1      -7.542   8.739   6.204  0.00  0.00    +0.277 C 
ENDBRANCH  17  22
ENDBRANCH   9  14
BRANCH   4  24
ATOM     24  C   UNL     1      -0.565   2.729  -0.120  0.00  0.00    +0.006 A 
ATOM     25  C   UNL     1      -1.540   2.755  -1.098  0.00  0.00    +0.008 A 
ATOM     26  C   UNL     1      -1.966   1.576  -1.682  0.00  0.00    +0.001 A 
ATOM     27  C   UNL     1      -1.426   0.368  -1.281  0.00  0.00    +0.004 A 
ATOM     28  C   UNL     1      -0.450   0.337  -0.303  0.00  0.00    +0.046 A 
ATOM     29  C   UNL     1      -0.017   1.519   0.280  0.00  0.00    +0.125 A 
BRANCH  29  30
ATOM     30  O   UNL     1       0.943   1.492   1.242  0.00  0.00    -0.489 OA
BRANCH  30  31
ATOM     31  C   UNL     1       1.462   0.210   1.603  0.00  0.00    +0.167 C 
ATOM     32  C   UNL     1       2.873   0.374   2.172  0.00  0.00    +0.051 C 
ATOM     33  C   UNL     1       0.557  -0.427   2.660  0.00  0.00    +0.051 C 
ENDBRANCH  30  31
ENDBRANCH  29  30
ENDBRANCH   4  24
BRANCH   3  34
ATOM     34  C   UNL     1       1.691   4.707  -1.121  0.00  0.00    +0.338 C 
ATOM     35  O   UNL     1       2.072   5.379  -2.061  0.00  0.00    -0.245 OA
BRANCH  34  36
ATOM     36  O   UNL     1       2.490   3.746  -0.612  0.00  0.00    -0.461 OA
BRANCH  36  37
ATOM     37  C   UNL     1       3.739   3.524  -1.270  0.00  0.00    +0.235 C 
BRANCH  37  38
ATOM     38  C   UNL     1       4.554   2.496  -0.483  0.00  0.00    +0.020 C 
ATOM     39  C   UNL     1       5.841   2.174  -1.245  0.00  0.00    +0.010 C 
ATOM     40  C   UNL     1       4.906   3.068   0.892  0.00  0.00    +0.010 C 
ENDBRANCH  37  38
ENDBRANCH  36  37
ENDBRANCH  34  36
ENDBRANCH   3  34
TORSDOF 10
