REMARK  Name = ZINC21602436
REMARK  9 active torsions:
REMARK  status: ('A' for Active; 'I' for Inactive)
REMARK    1  A    between atoms: C_1  and  C_2
REMARK    2  A    between atoms: C_2  and  C_4
REMARK    3  A    between atoms: C_2  and  O_18
REMARK    4  A    between atoms: N_6  and  C_7
REMARK    5  A    between atoms: C_8  and  C_15
REMARK    6  A    between atoms: O_18  and  C_19
REMARK    7  A    between atoms: C_19  and  C_21
REMARK    8  A    between atoms: C_25  and  N_26
REMARK    9  A    between atoms: C_27  and  C_29
REMARK                            x       y       z     vdW  Elec       q    Type
REMARK                         _______ _______ _______ _____ _____    ______ ____
ROOT
ATOM      1  C   UNL     1      -0.511   3.033  -5.173  0.00  0.00    +0.062 C 
ATOM      2  C   UNL     1      -1.803   2.255  -4.912  0.00  0.00    +0.259 C 
ENDROOT
BRANCH   2   3
ATOM      3  C   UNL     1      -2.257   2.497  -3.496  0.00  0.00    +0.258 C 
ATOM      4  O   UNL     1      -3.300   3.079  -3.285  0.00  0.00    -0.271 OA
ATOM      5  N   UNL     1      -1.504   2.067  -2.463  0.00  0.00    -0.276 N 
ATOM      6  H   UNL     1      -0.558   1.540  -2.655  0.00  0.00    +0.155 HD
BRANCH   5   7
ATOM      7  C   UNL     1      -1.923   2.290  -1.160  0.00  0.00    +0.084 A 
ATOM      8  C   UNL     1      -1.294   1.929   0.019  0.00  0.00    +0.068 A 
ATOM      9  C   UNL     1      -1.949   2.292   1.275  0.00  0.00    -0.023 A 
ATOM     10  C   UNL     1      -3.116   2.947   1.141  0.00  0.00    -0.004 A 
ATOM     11  S   UNL     1      -3.359   3.086  -0.613  0.00  0.00    -0.077 S 
ATOM     12  C   UNL     1      -3.727   3.290   2.473  0.00  0.00    +0.043 C 
ATOM     13  C   UNL     1      -2.568   3.137   3.483  0.00  0.00    +0.010 C 
ATOM     14  C   UNL     1      -1.659   2.119   2.766  0.00  0.00    +0.037 C 
BRANCH   8  15
ATOM     15  C   UNL     1      -0.014   1.213   0.009  0.00  0.00    +0.244 C 
ATOM     16  O   UNL     1       0.002  -0.004   0.002  0.00  0.00    -0.270 OA
ATOM     17  N   UNL     1       1.143   1.903   0.001  0.00  0.00    -0.325 N 
ATOM     18  H   UNL     1       2.103   1.366  -0.006  0.00  0.00    +0.145 HD
ATOM     19  H   UNL     1       1.129   3.002   0.003  0.00  0.00    +0.145 HD
ENDBRANCH   8  15
ENDBRANCH   5   7
ENDBRANCH   2   3
BRANCH   2  20
ATOM     20  O   UNL     1      -2.832   2.702  -5.834  0.00  0.00    -0.449 OA
BRANCH  20  21
ATOM     21  C   UNL     1      -2.921   2.053  -7.013  0.00  0.00    +0.343 C 
ATOM     22  O   UNL     1      -2.159   1.138  -7.263  0.00  0.00    -0.245 OA
BRANCH  21  23
ATOM     23  C   UNL     1      -3.936   2.449  -7.992  0.00  0.00    +0.091 A 
ATOM     24  C   UNL     1      -3.659   3.463  -8.996  0.00  0.00    -0.021 A 
ATOM     25  C   UNL     1      -4.680   3.731  -9.839  0.00  0.00    -0.004 A 
ATOM     26  S   UNL     1      -5.995   2.670  -9.310  0.00  0.00    -0.077 S 
ATOM     27  C   UNL     1      -5.200   1.875  -7.991  0.00  0.00    +0.086 A 
ATOM     28  C   UNL     1      -4.685   4.718 -10.966  0.00  0.00    +0.043 C 
ATOM     29  C   UNL     1      -3.477   5.650 -10.798  0.00  0.00    +0.005 C 
ATOM     30  C   UNL     1      -2.232   4.800 -10.526  0.00  0.00    +0.005 C 
ATOM     31  C   UNL     1      -2.321   4.179  -9.131  0.00  0.00    +0.037 C 
BRANCH  27  32
ATOM     32  N   UNL     1      -5.705   0.903  -7.142  0.00  0.00    -0.280 N 
ATOM     33  C   UNL     1      -6.970   0.464  -7.296  0.00  0.00    +0.214 C 
ATOM     34  O   UNL     1      -7.667   0.919  -8.178  0.00  0.00    -0.276 OA
ATOM     35  C   UNL     1      -7.518  -0.594  -6.372  0.00  0.00    +0.109 C 
ATOM     36  H   UNL     1      -5.073   0.490  -6.342  0.00  0.00    +0.155 HD
ENDBRANCH  27  32
ENDBRANCH  21  23
ENDBRANCH  20  21
ENDBRANCH   2  20
TORSDOF 7
