REMARK  Name = ZINC39024740
REMARK  10 active torsions:
REMARK  status: ('A' for Active; 'I' for Inactive)
REMARK    1  A    between atoms: C_1  and  C_2
REMARK    2  A    between atoms: C_2  and  O_3
REMARK    3  A    between atoms: O_3  and  C_4
REMARK    4  A    between atoms: C_7  and  C_12
REMARK    5  A    between atoms: C_9  and  O_10
REMARK    6  A    between atoms: O_10  and  C_11
REMARK    7  A    between atoms: C_14  and  C_26
REMARK    8  A    between atoms: N_28  and  C_29
REMARK    9  A    between atoms: C_29  and  C_30
REMARK   10  A    between atoms: C_30  and  C_31
REMARK                            x       y       z     vdW  Elec       q    Type
REMARK                         _______ _______ _______ _____ _____    ______ ____
ROOT
ATOM      1  C   UNL     1      -1.992  -6.059  -0.013  0.00  0.00    +0.076 C 
ATOM      2  N   UNL     1      -3.191  -6.592   0.084  0.00  0.00    -0.244 NA
ATOM      3  C   UNL     1      -3.450  -7.899  -0.055  0.00  0.00    +0.126 C 
ATOM      4  C   UNL     1      -2.507  -8.773  -0.603  0.00  0.00    +0.039 C 
ATOM      5  C   UNL     1      -1.236  -8.252  -0.797  0.00  0.00    -0.008 C 
ATOM      6  C   UNL     1      -0.158  -8.614  -1.560  0.00  0.00    +0.004 A 
ATOM      7  C   UNL     1       0.158  -9.809  -2.246  0.00  0.00    +0.010 A 
ATOM      8  C   UNL     1       1.316  -9.819  -2.967  0.00  0.00    +0.001 A 
ATOM      9  C   UNL     1       2.177  -8.724  -3.051  0.00  0.00    +0.002 A 
ATOM     10  C   UNL     1       1.958  -7.546  -2.405  0.00  0.00    +0.026 A 
ATOM     11  C   UNL     1       0.781  -7.458  -1.610  0.00  0.00    +0.044 A 
ATOM     12  N   UNL     1       0.356  -6.484  -0.843  0.00  0.00    -0.372 N 
ATOM     13  C   UNL     1      -0.810  -6.954  -0.136  0.00  0.00    +0.160 C 
ATOM     14  H   UNL     1       0.755  -5.603  -0.767  0.00  0.00    +0.161 HD
ENDROOT
BRANCH   1  18
ATOM     15  C   UNL     1      -1.510  -1.845   0.007  0.00  0.00    +0.162 A 
ATOM     16  C   UNL     1      -2.706  -2.405  -0.428  0.00  0.00    +0.050 A 
ATOM     17  C   UNL     1      -2.867  -3.772  -0.437  0.00  0.00    +0.013 A 
ATOM     18  C   UNL     1      -1.823  -4.603  -0.006  0.00  0.00    +0.002 A 
ATOM     19  C   UNL     1      -0.618  -4.037   0.433  0.00  0.00    +0.059 A 
ATOM     20  C   UNL     1      -0.464  -2.666   0.432  0.00  0.00    +0.162 A 
BRANCH  20  21
ATOM     21  O   UNL     1       0.705  -2.113   0.852  0.00  0.00    -0.491 OA
ATOM     22  C   UNL     1       1.733  -3.011   1.273  0.00  0.00    +0.277 C 
ENDBRANCH  20  21
BRANCH  15  23
ATOM     23  O   UNL     1      -1.358  -0.496   0.013  0.00  0.00    -0.489 OA
BRANCH  23  25
ATOM     24  C   UNL     1      -2.112   1.770  -0.357  0.00  0.00    +0.048 C 
ATOM     25  C   UNL     1      -2.468   0.284  -0.435  0.00  0.00    +0.226 C 
ENDBRANCH  23  25
ENDBRANCH  15  23
ENDBRANCH   1  18
BRANCH   3  26
ATOM     26  C   UNL     1      -4.762  -8.429   0.380  0.00  0.00    +0.262 C 
ATOM     27  O   UNL     1      -5.010  -9.613   0.260  0.00  0.00    -0.269 OA
ATOM     28  N   UNL     1      -5.681  -7.599   0.910  0.00  0.00    -0.310 N 
ATOM     29  H   UNL     1      -5.484  -6.654   1.007  0.00  0.00    +0.149 HD
BRANCH  28  30
ATOM     30  C   UNL     1      -6.980  -8.123   1.341  0.00  0.00    +0.109 C 
BRANCH  30  31
ATOM     31  C   UNL     1      -7.830  -6.981   1.902  0.00  0.00    +0.054 C 
BRANCH  31  32
ATOM     32  C   UNL     1      -9.166  -7.520   2.345  0.00  0.00    -0.046 A 
ATOM     33  C   UNL     1     -10.222  -7.568   1.454  0.00  0.00    +0.006 A 
ATOM     34  C   UNL     1     -11.447  -8.063   1.859  0.00  0.00    +0.038 A 
ATOM     35  C   UNL     1     -11.617  -8.510   3.158  0.00  0.00    +0.123 A 
ATOM     36  C   UNL     1     -10.558  -8.462   4.050  0.00  0.00    +0.038 A 
ATOM     37  C   UNL     1      -9.333  -7.972   3.641  0.00  0.00    +0.006 A 
ATOM     38  F   UNL     1     -12.814  -8.994   3.556  0.00  0.00    -0.205 F 
ENDBRANCH  31  32
ENDBRANCH  30  31
ENDBRANCH  28  30
ENDBRANCH   3  26
TORSDOF 8
