REMARK  Name = ZINC63349965
REMARK  4 active torsions:
REMARK  status: ('A' for Active; 'I' for Inactive)
REMARK    1  A    between atoms: C_1  and  C_2
REMARK    2  A    between atoms: C_4  and  C_10
REMARK    3  A    between atoms: C_5  and  O_9
REMARK    4  A    between atoms: CA_23  and  C_26
REMARK                            x       y       z     vdW  Elec       q    Type
REMARK                         _______ _______ _______ _____ _____    ______ ____
ROOT
ATOM      1  C   UNL     1       0.027  -2.813  -2.521  0.00  0.00    +0.115 C 
ATOM      2  C   UNL     1      -1.390  -3.292  -2.846  0.00  0.00    +0.128 C 
ATOM      3  C   UNL     1      -2.220  -2.036  -3.086  0.00  0.00    -0.035 C 
ATOM      4  C   UNL     1      -3.266  -2.117  -2.275  0.00  0.00    -0.001 A 
ATOM      5  C   UNL     1      -4.450  -1.259  -2.112  0.00  0.00    +0.010 A 
ATOM      6  C   UNL     1      -5.339  -1.638  -1.156  0.00  0.00    +0.001 A 
ATOM      7  C   UNL     1      -5.170  -2.772  -0.355  0.00  0.00    +0.002 A 
ATOM      8  C   UNL     1      -4.115  -3.621  -0.441  0.00  0.00    +0.026 A 
ATOM      9  C   UNL     1      -3.116  -3.331  -1.415  0.00  0.00    +0.043 A 
ATOM     10  N   UNL     1      -2.018  -3.991  -1.726  0.00  0.00    -0.376 N 
ATOM     11  C   UNL     1      -1.757  -0.948  -4.024  0.00  0.00    +0.063 C 
ATOM     12  CA  UNL     1      -0.289  -0.662  -3.659  0.00  0.00    +0.172 C 
ATOM     13  N   UNL     1       0.471  -1.915  -3.600  0.00  0.00    -0.295 NA
ATOM     14  H   UNL     1       1.462  -1.736  -3.536  0.00  0.00    +0.123 HD
ATOM     15  H   UNL     1      -1.678  -4.791  -1.294  0.00  0.00    +0.160 HD
ENDROOT
BRANCH   1  19
ATOM     16  C   UNL     1      -1.810   0.811   0.399  0.00  0.00    +0.044 C 
ATOM     17  C   UNL     1      -0.855  -0.335   0.188  0.00  0.00    -0.049 A 
ATOM     18  C   UNL     1      -0.851  -1.018  -1.015  0.00  0.00    +0.012 A 
ATOM     19  C   UNL     1       0.024  -2.069  -1.211  0.00  0.00    +0.015 A 
ATOM     20  C   UNL     1       0.899  -2.440  -0.200  0.00  0.00    +0.135 A 
ATOM     21  C   UNL     1       0.894  -1.753   1.006  0.00  0.00    +0.060 A 
ATOM     22  C   UNL     1       0.020  -0.698   1.195  0.00  0.00    +0.022 A 
ATOM     23 BR   UNL     1       2.084  -2.255   2.386  0.00  0.00    -0.047 Br
BRANCH  20  24
ATOM     24  O   UNL     1       1.760  -3.474  -0.391  0.00  0.00    -0.505 OA
ATOM     25  H   UNL     1       2.613  -3.212  -0.763  0.00  0.00    +0.292 HD
ENDBRANCH  20  24
ENDBRANCH   1  19
BRANCH  12  26
ATOM     26  C   UNL     1       0.320   0.238  -4.702  0.00  0.00    +0.373 C 
ATOM     27  O   UNL     1       0.263   1.449  -4.571  0.00  0.00    -0.245 OA
ATOM     28  OXT UNL     1       0.868  -0.243  -5.679  0.00  0.00    -0.245 OA
ENDBRANCH  12  26
TORSDOF 3
