REMARK  Name = ZINC15722716
REMARK  9 active torsions:
REMARK  status: ('A' for Active; 'I' for Inactive)
REMARK    1  A    between atoms: C_1  and  C_2
REMARK    2  A    between atoms: C_2  and  C_4
REMARK    3  A    between atoms: C_2  and  N_15
REMARK    4  A    between atoms: N_6  and  C_7
REMARK    5  A    between atoms: C_7  and  C_8
REMARK    6  A    between atoms: C_8  and  C_9
REMARK    7  A    between atoms: C_9  and  N_71
REMARK    8  A    between atoms: C_22  and  S_24
REMARK    9  A    between atoms: S_24  and  N_27
REMARK                            x       y       z     vdW  Elec       q    Type
REMARK                         _______ _______ _______ _____ _____    ______ ____
ROOT
ATOM      1  N   UNL     1      -3.608   1.789   0.029  0.00  0.00    -0.335 N 
ATOM      2  C   UNL     1      -3.860   2.728  -0.935  0.00  0.00    +0.087 A 
ATOM      3  C   UNL     1      -4.967   3.419  -0.623  0.00  0.00    +0.027 A 
ATOM      4  C   UNL     1      -5.466   2.880   0.644  0.00  0.00    +0.002 A 
ATOM      5  C   UNL     1      -4.575   1.853   1.007  0.00  0.00    +0.050 A 
ATOM      6  C   UNL     1      -4.791   1.150   2.188  0.00  0.00    +0.028 A 
ATOM      7  C   UNL     1      -5.875   1.459   2.980  0.00  0.00    +0.030 A 
ATOM      8  C   UNL     1      -6.753   2.470   2.615  0.00  0.00    +0.106 A 
ATOM      9  C   UNL     1      -6.557   3.177   1.462  0.00  0.00    +0.038 A 
ENDROOT
BRANCH   8  10
ATOM     10  S   UNL     1      -8.131   2.845   3.647  0.00  0.00    +0.061 S 
ATOM     11  O   UNL     1      -7.792   2.403   4.955  0.00  0.00    -0.153 OA
ATOM     12  O   UNL     1      -8.493   4.190   3.368  0.00  0.00    -0.153 OA
BRANCH  10  13
ATOM     13  N   UNL     1      -9.393   1.900   3.141  0.00  0.00    -0.177 NA
ATOM     14  C   UNL     1     -10.283   2.417   2.126  0.00  0.00    +0.109 C 
ATOM     15  C   UNL     1     -11.438   3.198   2.786  0.00  0.00    +0.017 C 
ATOM     16  C   UNL     1     -12.357   2.272   3.466  0.00  0.00    +0.001 C 
ATOM     17  C   UNL     1     -11.725   1.487   4.611  0.00  0.00    +0.001 C 
ATOM     18  C   UNL     1     -11.044   0.259   4.060  0.00  0.00    +0.017 C 
ATOM     19  C   UNL     1      -9.568   0.567   3.750  0.00  0.00    +0.109 C 
ENDBRANCH  10  13
ENDBRANCH   8  10
BRANCH   1  21
ATOM     20  C   UNL     1      -2.557  -0.021  -1.235  0.00  0.00    +0.041 C 
ATOM     21  C   UNL     1      -2.482   0.853   0.018  0.00  0.00    +0.170 C 
BRANCH  21  22
ATOM     22  C   UNL     1      -1.187   1.624   0.017  0.00  0.00    +0.236 C 
ATOM     23  O   UNL     1      -1.204   2.837   0.023  0.00  0.00    -0.274 OA
ATOM     24  N   UNL     1      -0.011   0.966   0.007  0.00  0.00    -0.314 N 
ATOM     25  H   UNL     1       0.002  -0.004   0.002  0.00  0.00    +0.149 HD
BRANCH  24  26
ATOM     26  C   UNL     1       1.248   1.716  -0.001  0.00  0.00    +0.102 C 
BRANCH  26  27
ATOM     27  C   UNL     1       2.424   0.737  -0.017  0.00  0.00    +0.000 C 
BRANCH  27  28
ATOM     28  C   UNL     1       3.738   1.520  -0.025  0.00  0.00    -0.077 C 
BRANCH  28  34
ATOM     29  C   UNL     1       4.925  -0.195   1.204  0.00  0.00    -0.079 C 
ATOM     30  C   UNL     1       6.019  -1.259   1.095  0.00  0.00    -0.019 C 
ATOM     31  C   UNL     1       7.364  -0.576   0.834  0.00  0.00    -0.004 C 
ATOM     32  C   UNL     1       7.263   0.263  -0.442  0.00  0.00    -0.019 C 
ATOM     33  C   UNL     1       6.133   1.284  -0.288  0.00  0.00    -0.079 C 
ATOM     34  N   UNL     1       4.862   0.562  -0.064  0.00  0.00    +0.380 N 
ATOM     35  H   UNL     1       4.713  -0.096  -0.838  0.00  0.00    -0.082 HD
ENDBRANCH  28  34
ENDBRANCH  27  28
ENDBRANCH  26  27
ENDBRANCH  24  26
ENDBRANCH  21  22
ENDBRANCH   1  21
TORSDOF 8
