REMARK  Name = ZINC03195973
REMARK  5 active torsions:
REMARK  status: ('A' for Active; 'I' for Inactive)
REMARK    1  A    between atoms: C_1  and  C_2
REMARK    2  A    between atoms: C_5  and  C_8
REMARK    3  A    between atoms: C_11  and  C_13
REMARK    4  A    between atoms: C_14  and  N_20
REMARK    5  A    between atoms: N_15  and  N_19
REMARK                            x       y       z     vdW  Elec       q    Type
REMARK                         _______ _______ _______ _____ _____    ______ ____
ROOT
ATOM      1  C   UNL     1      -4.024   3.790  -3.304  0.00  0.00    +0.079 A 
ATOM      2  C   UNL     1      -4.939   4.409  -2.497  0.00  0.00    +0.075 A 
ATOM      3  S   UNL     1      -4.302   3.981  -0.882  0.00  0.00    -0.075 S 
ATOM      4  C   UNL     1      -2.895   3.030  -1.442  0.00  0.00    +0.115 A 
ATOM      5  N   UNL     1      -3.021   3.121  -2.757  0.00  0.00    -0.239 NA
ENDROOT
BRANCH   1  10
ATOM      6  C   UNL     1      -4.513   4.116  -9.033  0.00  0.00    +0.044 C 
ATOM      7  C   UNL     1      -4.385   4.031  -7.534  0.00  0.00    -0.050 A 
ATOM      8  C   UNL     1      -3.338   3.324  -6.971  0.00  0.00    +0.004 A 
ATOM      9  C   UNL     1      -3.215   3.243  -5.599  0.00  0.00    +0.010 A 
ATOM     10  C   UNL     1      -4.150   3.874  -4.780  0.00  0.00    +0.001 A 
ATOM     11  C   UNL     1      -5.206   4.580  -5.352  0.00  0.00    +0.010 A 
ATOM     12  C   UNL     1      -5.316   4.659  -6.726  0.00  0.00    +0.004 A 
ENDBRANCH   1  10
BRANCH   4  13
ATOM     13  C   UNL     1      -1.864   2.335  -0.649  0.00  0.00    +0.087 C 
ATOM     14  C   UNL     1      -1.811   2.300   0.741  0.00  0.00    +0.111 C 
ATOM     15  N   UNL     1      -0.742   1.580   1.184  0.00  0.00    -0.249 N 
ATOM     16  C   UNL     1      -0.013   1.086   0.008  0.00  0.00    +0.204 C 
ATOM     17  C   UNL     1      -0.787   1.608  -1.183  0.00  0.00    +0.187 C 
ATOM     18  O   UNL     1      -0.530   1.435  -2.359  0.00  0.00    -0.290 OA
BRANCH  15  19
ATOM     19  N   UNL     1      -0.407   1.357   2.489  0.00  0.00    -0.252 NA
ATOM     20  H   UNL     1      -1.064   1.802   3.112  0.00  0.00    +0.141 HD
ATOM     21  H   UNL     1      -0.339   0.368   2.681  0.00  0.00    +0.141 HD
ENDBRANCH  15  19
BRANCH  14  22
ATOM     22  N   UNL     1      -2.715   2.912   1.559  0.00  0.00    -0.345 N 
ATOM     23  H   UNL     1      -3.454   3.411   1.177  0.00  0.00    +0.144 HD
ATOM     24  H   UNL     1      -2.620   2.848   2.522  0.00  0.00    +0.144 HD
ENDBRANCH  14  22
ENDBRANCH   4  13
TORSDOF 4
