REMARK  Name = ZINC40645207
REMARK  10 active torsions:
REMARK  status: ('A' for Active; 'I' for Inactive)
REMARK    1  A    between atoms: C_1  and  C_2
REMARK    2  A    between atoms: C_2  and  C_34
REMARK    3  A    between atoms: C_4  and  N_10
REMARK    4  A    between atoms: C_6  and  C_8
REMARK    5  A    between atoms: C_6  and  C_9
REMARK    6  A    between atoms: C_12  and  N_31
REMARK    7  A    between atoms: C_13  and  N_17
REMARK    8  A    between atoms: N_17  and  C_18
REMARK    9  A    between atoms: C_18  and  C_19
REMARK   10  A    between atoms: C_18  and  C_25
REMARK                            x       y       z     vdW  Elec       q    Type
REMARK                         _______ _______ _______ _____ _____    ______ ____
ROOT
ATOM      1  N   UNL     1       2.615  -0.819  -2.626  0.00  0.00    -0.324 N 
ATOM      2  C   UNL     1       3.803  -0.320  -3.138  0.00  0.00    +0.155 A 
ATOM      3  C   UNL     1       4.309  -0.800  -4.342  0.00  0.00    +0.205 A 
ATOM      4  C   UNL     1       5.505  -0.266  -4.814  0.00  0.00    +0.155 A 
ATOM      5  N   UNL     1       6.118   0.677  -4.100  0.00  0.00    -0.218 NA
ATOM      6  C   UNL     1       5.606   1.104  -2.964  0.00  0.00    +0.225 A 
ATOM      7  N   UNL     1       4.474   0.628  -2.487  0.00  0.00    -0.218 NA
ATOM      8  H   UNL     1       2.133  -1.510  -3.106  0.00  0.00    +0.148 HD
ENDROOT
BRANCH   1  12
ATOM      9  C   UNL     1      -0.019   1.528   0.010  0.00  0.00    -0.010 C 
ATOM     10  C   UNL     1       0.002  -0.004   0.002  0.00  0.00    -0.072 C 
ATOM     11  C   UNL     1       0.573  -0.505  -1.321  0.00  0.00    +0.009 C 
ATOM     12  C   UNL     1       2.088  -0.301  -1.357  0.00  0.00    +0.069 C 
ATOM     13  C   UNL     1       2.703  -1.086  -0.198  0.00  0.00    +0.009 C 
ATOM     14  C   UNL     1       2.147  -0.590   1.133  0.00  0.00    -0.072 C 
ATOM     15  N   UNL     1       0.697  -0.529   1.164  0.00  0.00    +0.386 N 
ATOM     16  C   UNL     1       2.769   0.766   1.481  0.00  0.00    -0.010 C 
ATOM     17  C   UNL     1       2.600  -1.589   2.223  0.00  0.00    -0.010 C 
ATOM     18  C   UNL     1      -1.468  -0.478   0.079  0.00  0.00    -0.010 C 
ATOM     19  H   UNL     1       0.416   0.021   1.982  0.00  0.00    -0.084 HD
ATOM     20  H   UNL     1       0.341  -1.472   1.351  0.00  0.00    -0.084 HD
ENDBRANCH   1  12
BRANCH   3  21
ATOM     21  N   UNL     1       3.595  -1.850  -5.102  0.00  0.00    +0.063 N 
ATOM     22  O   UNL     1       2.769  -1.541  -5.930  0.00  0.00    -0.126 OA
ATOM     23  O   UNL     1       3.836  -3.016  -4.895  0.00  0.00    -0.126 OA
ENDBRANCH   3  21
BRANCH   4  24
ATOM     24  N   UNL     1       6.051  -0.711  -6.008  0.00  0.00    -0.316 N 
ATOM     25  H   UNL     1       5.599  -1.398  -6.522  0.00  0.00    +0.148 HD
BRANCH  24  26
ATOM     26  C   UNL     1       7.310  -0.142  -6.494  0.00  0.00    +0.132 C 
BRANCH  26  27
ATOM     27  C   UNL     1       8.468  -0.870  -5.861  0.00  0.00    -0.023 A 
ATOM     28  C   UNL     1       8.416  -2.242  -5.700  0.00  0.00    +0.006 A 
ATOM     29  C   UNL     1       9.478  -2.910  -5.119  0.00  0.00    +0.000 A 
ATOM     30  C   UNL     1      10.592  -2.206  -4.701  0.00  0.00    +0.000 A 
ATOM     31  C   UNL     1      10.644  -0.835  -4.863  0.00  0.00    +0.000 A 
ATOM     32  C   UNL     1       9.584  -0.167  -5.447  0.00  0.00    +0.006 A 
ENDBRANCH  26  27
BRANCH  26  33
ATOM     33  C   UNL     1       7.383  -0.289  -7.992  0.00  0.00    -0.023 A 
ATOM     34  C   UNL     1       6.932  -1.448  -8.595  0.00  0.00    +0.006 A 
ATOM     35  C   UNL     1       6.998  -1.583  -9.970  0.00  0.00    +0.000 A 
ATOM     36  C   UNL     1       7.515  -0.559 -10.741  0.00  0.00    +0.000 A 
ATOM     37  C   UNL     1       7.965   0.601 -10.137  0.00  0.00    +0.000 A 
ATOM     38  C   UNL     1       7.895   0.737  -8.764  0.00  0.00    +0.006 A 
ENDBRANCH  26  33
ENDBRANCH  24  26
ENDBRANCH   4  24
TORSDOF 6
