REMARK  Name = ZINC39991364
REMARK  16 active torsions:
REMARK  status: ('A' for Active; 'I' for Inactive)
REMARK    1  A    between atoms: C_1  and  C_2
REMARK    2  A    between atoms: C_2  and  C_3
REMARK    3  A    between atoms: C_3  and  C_4
REMARK    4  A    between atoms: C_4  and  N_5
REMARK    5  A    between atoms: C_6  and  N_29
REMARK    6  A    between atoms: C_7  and  C_15
REMARK    7  A    between atoms: C_8  and  C_14
REMARK    8  A    between atoms: C_9  and  C_12
REMARK    9  A    between atoms: N_19  and  C_23
REMARK   10  A    between atoms: C_23  and  C_24
REMARK   11  A    between atoms: C_24  and  C_25
REMARK   12  A    between atoms: C_25  and  O_26
REMARK   13  A    between atoms: O_26  and  C_27
REMARK   14  A    between atoms: C_27  and  C_28
REMARK   15  A    between atoms: C_31  and  C_38
REMARK   16  A    between atoms: C_34  and  C_37
REMARK                            x       y       z     vdW  Elec       q    Type
REMARK                         _______ _______ _______ _____ _____    ______ ____
ROOT
ATOM      1  N   UNL     1       1.877  -2.405  -2.509  0.00  0.00    -0.295 N 
ATOM      2  C   UNL     1       1.039  -2.674  -3.543  0.00  0.00    +0.112 A 
ATOM      3  C   UNL     1       1.452  -3.500  -4.601  0.00  0.00    +0.019 A 
ATOM      4  C   UNL     1       2.745  -4.051  -4.582  0.00  0.00    -0.017 A 
ATOM      5  C   UNL     1       3.585  -3.761  -3.511  0.00  0.00    +0.120 A 
ATOM      6  C   UNL     1       3.120  -2.916  -2.471  0.00  0.00    +0.270 A 
ATOM      7  O   UNL     1       3.853  -2.654  -1.532  0.00  0.00    -0.266 OA
ATOM      8  C   UNL     1       3.214  -4.941  -5.704  0.00  0.00    +0.046 C 
ENDROOT
BRANCH   3   9
ATOM      9  C   UNL     1       0.544  -3.786  -5.713  0.00  0.00    +0.032 C 
ATOM     10  C   UNL     1       0.842  -3.345  -6.966  0.00  0.00    +0.077 C 
ATOM     11  C   UNL     1       0.137  -3.547  -8.191  0.00  0.00    +0.258 C 
ATOM     12  O   UNL     1      -0.893  -4.195  -8.223  0.00  0.00    -0.269 OA
ATOM     13  N   UNL     1       0.637  -3.008  -9.290  0.00  0.00    -0.255 N 
ATOM     14  C   UNL     1       1.780  -2.289  -9.254  0.00  0.00    +0.121 C 
ATOM     15  S   UNL     1       2.599  -1.510 -10.541  0.00  0.00    -0.027 S 
ATOM     16  S   UNL     1       2.218  -2.350  -7.524  0.00  0.00    -0.061 S 
BRANCH  13  17
ATOM     17  C   UNL     1      -0.059  -3.194 -10.566  0.00  0.00    +0.117 C 
BRANCH  17  18
ATOM     18  C   UNL     1      -1.065  -2.058 -10.768  0.00  0.00    +0.047 C 
BRANCH  18  19
ATOM     19  C   UNL     1      -1.792  -2.252 -12.100  0.00  0.00    +0.161 C 
BRANCH  19  20
ATOM     20  O   UNL     1      -2.730  -1.191 -12.289  0.00  0.00    -0.380 OA
BRANCH  20  21
ATOM     21  C   UNL     1      -3.467  -1.278 -13.511  0.00  0.00    +0.156 C 
ATOM     22  C   UNL     1      -4.436  -0.098 -13.607  0.00  0.00    +0.034 C 
ENDBRANCH  20  21
ENDBRANCH  19  20
ENDBRANCH  18  19
ENDBRANCH  17  18
ENDBRANCH  13  17
ENDBRANCH   3   9
BRANCH   2  23
ATOM     23  N   UNL     1      -0.215  -2.136  -3.556  0.00  0.00    -0.311 N 
ATOM     24  C   UNL     1      -1.335  -2.810  -2.880  0.00  0.00    +0.137 C 
ATOM     25  C   UNL     1      -2.503  -2.913  -3.867  0.00  0.00    +0.133 C 
ATOM     26  O   UNL     1      -2.776  -1.619  -4.410  0.00  0.00    -0.371 OA
ATOM     27  C   UNL     1      -1.697  -1.062  -5.165  0.00  0.00    +0.133 C 
ATOM     28  C   UNL     1      -0.486  -0.861  -4.239  0.00  0.00    +0.137 C 
ATOM     29  C   UNL     1      -2.123   0.287  -5.747  0.00  0.00    +0.039 C 
ATOM     30  C   UNL     1      -3.744  -3.434  -3.139  0.00  0.00    +0.039 C 
ENDBRANCH   2  23
BRANCH   5  31
ATOM     31  C   UNL     1       4.908  -4.306  -3.462  0.00  0.00    +0.105 C 
ATOM     32  N   UNL     1       5.957  -4.739  -3.423  0.00  0.00    -0.191 NA
ENDBRANCH   5  31
BRANCH   1  33
ATOM     33  C   UNL     1       1.420  -1.540  -1.419  0.00  0.00    +0.126 C 
BRANCH  33  34
ATOM     34  C   UNL     1       1.875  -0.104  -1.682  0.00  0.00    +0.021 C 
BRANCH  34  36
ATOM     35  C   UNL     1       1.853   2.236  -0.807  0.00  0.00    +0.004 C 
ATOM     36  C   UNL     1       1.398   0.800  -0.544  0.00  0.00    -0.002 C 
ENDBRANCH  34  36
ENDBRANCH  33  34
ENDBRANCH   1  33
TORSDOF 11
