REMARK  Name = ZINC01160430
REMARK  7 active torsions:
REMARK  status: ('A' for Active; 'I' for Inactive)
REMARK    1  A    between atoms: C_3  and  C_6
REMARK    2  A    between atoms: C_6  and  N_7
REMARK    3  A    between atoms: N_7  and  C_8
REMARK    4  A    between atoms: C_8  and  C_9
REMARK    5  A    between atoms: N_11  and  C_12
REMARK    6  A    between atoms: C_13  and  C_20
REMARK    7  A    between atoms: N_22  and  C_23
REMARK                            x       y       z     vdW  Elec       q    Type
REMARK                         _______ _______ _______ _____ _____    ______ ____
ROOT
ATOM      1  C   UNL     1       2.495  -5.005   0.866  0.00  0.00    +0.084 A 
ATOM      2  C   UNL     1       2.424  -4.196  -0.255  0.00  0.00    +0.069 A 
ATOM      3  C   UNL     1       2.358  -4.851  -1.561  0.00  0.00    -0.023 A 
ATOM      4  C   UNL     1       2.387  -6.196  -1.527  0.00  0.00    -0.004 A 
ATOM      5  S   UNL     1       2.483  -6.602   0.200  0.00  0.00    -0.077 S 
ATOM      6  C   UNL     1       2.326  -6.796  -2.905  0.00  0.00    +0.043 C 
ATOM      7  C   UNL     1       2.694  -5.633  -3.853  0.00  0.00    +0.010 C 
ATOM      8  C   UNL     1       2.275  -4.405  -3.021  0.00  0.00    +0.037 C 
ENDROOT
BRANCH   1  11
ATOM      9  C   UNL     1       2.624  -5.568   3.163  0.00  0.00    +0.201 C 
ATOM     10  O   UNL     1       2.626  -6.743   2.864  0.00  0.00    -0.278 OA
ATOM     11  N   UNL     1       2.559  -4.628   2.199  0.00  0.00    -0.281 N 
ATOM     12  H   UNL     1       2.557  -3.562   2.469  0.00  0.00    +0.155 HD
BRANCH   9  13
ATOM     13  C   UNL     1       2.693  -5.158   4.611  0.00  0.00    +0.016 C 
BRANCH  13  14
ATOM     14  N   UNL     1       2.756  -6.357   5.457  0.00  0.00    +0.389 N 
ATOM     15  H   UNL     1       3.650  -6.936   5.182  0.00  0.00    -0.085 HD
ATOM     16  H   UNL     1       1.856  -6.963   5.276  0.00  0.00    -0.085 HD
BRANCH  14  17
ATOM     17  C   UNL     1       2.825  -5.995   6.879  0.00  0.00    -0.006 C 
BRANCH  17  20
ATOM     18  C   UNL     1       3.607  -9.005   8.857  0.00  0.00    +0.041 A 
ATOM     19  C   UNL     1       4.010  -7.886   8.092  0.00  0.00    +0.042 A 
ATOM     20  C   UNL     1       2.888  -7.248   7.714  0.00  0.00    +0.088 A 
ATOM     21  O   UNL     1       1.833  -7.915   8.211  0.00  0.00    -0.470 OA
ATOM     22  C   UNL     1       2.263  -8.984   8.900  0.00  0.00    +0.195 A 
ENDBRANCH  17  20
ENDBRANCH  14  17
ENDBRANCH  13  14
ENDBRANCH   9  13
ENDBRANCH   1  11
BRANCH   2  23
ATOM     23  C   UNL     1       2.409  -2.734  -0.137  0.00  0.00    +0.251 C 
ATOM     24  O   UNL     1       3.455  -2.113  -0.144  0.00  0.00    -0.270 OA
ATOM     25  N   UNL     1       1.237  -2.079  -0.021  0.00  0.00    -0.281 N 
ATOM     26  H   UNL     1       0.298  -2.645   0.073  0.00  0.00    +0.155 HD
BRANCH  25  27
ATOM     27  C   UNL     1       1.214  -0.681  -0.019  0.00  0.00    +0.034 A 
ATOM     28  C   UNL     1       2.137   0.031  -0.775  0.00  0.00    +0.024 A 
ATOM     29  C   UNL     1       2.112   1.412  -0.772  0.00  0.00    +0.017 A 
ATOM     30  C   UNL     1       1.169   2.086  -0.017  0.00  0.00    +0.018 A 
ATOM     31  C   UNL     1       0.249   1.380   0.737  0.00  0.00    +0.017 A 
ATOM     32  C   UNL     1       0.269  -0.001   0.738  0.00  0.00    +0.024 A 
ATOM     33 BR   UNL     1       1.138   3.977  -0.015  0.00  0.00    -0.050 Br
ENDBRANCH  25  27
ENDBRANCH   2  23
TORSDOF 7
