REMARK  Name = ZINC46772249
REMARK  9 active torsions:
REMARK  status: ('A' for Active; 'I' for Inactive)
REMARK    1  A    between atoms: C_1  and  C_2
REMARK    2  A    between atoms: C_8  and  C_13
REMARK    3  A    between atoms: C_9  and  C_12
REMARK    4  A    between atoms: C_13  and  C_14
REMARK    5  A    between atoms: N_16  and  N_17
REMARK    6  A    between atoms: N_17  and  C_18
REMARK    7  A    between atoms: C_18  and  N_20
REMARK    8  A    between atoms: N_20  and  C_21
REMARK    9  A    between atoms: C_26  and  C_27
REMARK                            x       y       z     vdW  Elec       q    Type
REMARK                         _______ _______ _______ _____ _____    ______ ____
ROOT
ATOM      1  C   UNL     1      -1.474  -2.782   4.192  0.00  0.00    +0.233 C 
ATOM      2  O   UNL     1      -2.354  -3.260   3.508  0.00  0.00    -0.274 OA
ATOM      3  N   UNL     1      -1.679  -2.576   5.508  0.00  0.00    -0.235 N 
ATOM      4  H   UNL     1      -0.975  -2.195   6.055  0.00  0.00    +0.173 HD
ENDROOT
BRANCH   3   5
ATOM      5  N   UNL     1      -2.910  -2.914   6.086  0.00  0.00    -0.246 N 
ATOM      6  H   UNL     1      -3.614  -3.296   5.539  0.00  0.00    +0.172 HD
BRANCH   5   7
ATOM      7  C   UNL     1      -3.115  -2.709   7.402  0.00  0.00    +0.151 C 
ATOM      8  S   UNL     1      -4.619  -3.122   8.109  0.00  0.00    -0.017 S 
BRANCH   7   9
ATOM      9  N   UNL     1      -2.137  -2.178   8.162  0.00  0.00    -0.296 N 
ATOM     10  H   UNL     1      -1.259  -2.018   7.781  0.00  0.00    +0.154 HD
BRANCH   9  11
ATOM     11  C   UNL     1      -2.387  -1.858   9.501  0.00  0.00    +0.036 A 
ATOM     12  C   UNL     1      -3.560  -1.204   9.853  0.00  0.00    +0.023 A 
ATOM     13  C   UNL     1      -3.804  -0.889  11.175  0.00  0.00    +0.002 A 
ATOM     14  C   UNL     1      -2.881  -1.225  12.149  0.00  0.00    +0.000 A 
ATOM     15  C   UNL     1      -1.711  -1.876  11.802  0.00  0.00    +0.005 A 
ATOM     16  C   UNL     1      -1.465  -2.200  10.482  0.00  0.00    -0.029 A 
ATOM     17  C   UNL     1      -0.193  -2.915  10.105  0.00  0.00    +0.045 C 
ENDBRANCH   9  11
ENDBRANCH   7   9
ENDBRANCH   5   7
ENDBRANCH   3   5
BRANCH   1  18
ATOM     18  C   UNL     1      -0.150  -2.419   3.571  0.00  0.00    +0.134 C 
BRANCH  18  26
ATOM     19  C   UNL     1      -1.899   1.441  -0.284  0.00  0.00    +0.044 C 
ATOM     20  C   UNL     1      -1.391   0.024  -0.233  0.00  0.00    -0.050 A 
ATOM     21  C   UNL     1      -1.250  -0.700  -1.410  0.00  0.00    +0.005 A 
ATOM     22  C   UNL     1      -0.787  -1.997  -1.386  0.00  0.00    +0.026 A 
ATOM     23  C   UNL     1      -0.457  -2.591  -0.172  0.00  0.00    +0.047 A 
ATOM     24  C   UNL     1      -0.602  -1.854   1.017  0.00  0.00    +0.004 A 
ATOM     25  C   UNL     1      -1.067  -0.538   0.969  0.00  0.00    +0.013 A 
ATOM     26  C   UNL     1      -0.179  -2.745   2.100  0.00  0.00    -0.011 A 
ATOM     27  C   UNL     1       0.178  -3.909   1.533  0.00  0.00    +0.018 A 
ATOM     28  N   UNL     1       0.018  -3.835   0.176  0.00  0.00    -0.358 N 
ATOM     29  H   UNL     1       0.212  -4.553  -0.448  0.00  0.00    +0.166 HD
ATOM     30  C   UNL     1       0.679  -5.117   2.281  0.00  0.00    +0.063 C 
ENDBRANCH  18  26
ENDBRANCH   1  18
TORSDOF 6
