REMARK  Name = ZINC22125004
REMARK  3 active torsions:
REMARK  status: ('A' for Active; 'I' for Inactive)
REMARK    1  A    between atoms: N_11  and  N_12
REMARK    2  A    between atoms: N_12  and  C_13
REMARK    3  A    between atoms: C_13  and  N_15
REMARK                            x       y       z     vdW  Elec       q    Type
REMARK                         _______ _______ _______ _____ _____    ______ ____
ROOT
ATOM      1  C   UNL     1      -5.617   3.833   0.050  0.00  0.00    +0.002 A 
ATOM      2  C   UNL     1      -4.299   4.256   0.046  0.00  0.00    +0.017 A 
ATOM      3  C   UNL     1      -3.289   3.328   0.036  0.00  0.00    +0.042 A 
ATOM      4  C   UNL     1      -3.533   1.935   0.029  0.00  0.00    +0.094 A 
ATOM      5  C   UNL     1      -4.890   1.539   0.034  0.00  0.00    +0.044 A 
ATOM      6  C   UNL     1      -5.894   2.474   0.043  0.00  0.00    +0.017 A 
ATOM      7 BR   UNL     1      -5.327  -0.301   0.026  0.00  0.00    -0.048 Br
ATOM      8  N   UNL     1      -2.434   1.149   0.020  0.00  0.00    -0.223 NA
ATOM      9  C   UNL     1      -1.216   1.640   0.017  0.00  0.00    +0.176 A 
ATOM     10  S   UNL     1      -1.514   3.402   0.036  0.00  0.00    -0.051 S 
ATOM     11  N   UNL     1      -0.011   0.966   0.007  0.00  0.00    -0.243 N 
ATOM     12  H   UNL     1       0.004  -0.134   0.006  0.00  0.00    +0.172 HD
ENDROOT
BRANCH  11  13
ATOM     13  N   UNL     1       1.193   1.683  -0.000  0.00  0.00    -0.247 N 
ATOM     14  H   UNL     1       1.178   2.783   0.006  0.00  0.00    +0.172 HD
BRANCH  13  15
ATOM     15  C   UNL     1       2.369   1.025  -0.015  0.00  0.00    +0.144 C 
ATOM     16  S   UNL     1       3.840   1.901  -0.024  0.00  0.00    -0.018 S 
BRANCH  15  17
ATOM     17  N   UNL     1       2.387  -0.323  -0.022  0.00  0.00    -0.340 N 
ATOM     18  H   UNL     1       3.347  -0.860  -0.035  0.00  0.00    +0.144 HD
ATOM     19  H   UNL     1       1.442  -0.886  -0.017  0.00  0.00    +0.144 HD
ENDBRANCH  15  17
ENDBRANCH  13  15
ENDBRANCH  11  13
TORSDOF 3
