REMARK  Name = ZINC43766800
REMARK  11 active torsions:
REMARK  status: ('A' for Active; 'I' for Inactive)
REMARK    1  A    between atoms: C_1  and  C_2
REMARK    2  A    between atoms: C_2  and  C_3
REMARK    3  A    between atoms: C_2  and  C_4
REMARK    4  A    between atoms: C_2  and  C_5
REMARK    5  A    between atoms: C_13  and  C_25
REMARK    6  A    between atoms: C_15  and  C_21
REMARK    7  A    between atoms: C_15  and  C_23
REMARK    8  A    between atoms: C_16  and  N_20
REMARK    9  A    between atoms: C_17  and  C_18
REMARK   10  A    between atoms: C_30  and  O_31
REMARK   11  A    between atoms: O_31  and  C_32
REMARK                            x       y       z     vdW  Elec       q    Type
REMARK                         _______ _______ _______ _____ _____    ______ ____
ROOT
ATOM      1  C   UNL     1       0.612   0.128  -1.472  0.00  0.00    -0.001 C 
ATOM      2  C   UNL     1       0.410  -1.351  -1.830  0.00  0.00    +0.031 C 
ATOM      3  C   UNL     1       1.081  -2.176  -0.761  0.00  0.00    -0.021 C 
ATOM      4  C   UNL     1       2.170  -1.743  -0.156  0.00  0.00    -0.029 C 
ATOM      5  C   UNL     1       2.859  -0.455  -0.496  0.00  0.00    +0.031 C 
ATOM      6  C   UNL     1       2.111   0.423  -1.471  0.00  0.00    +0.013 C 
ATOM      7  C   UNL     1       3.182   0.276   0.808  0.00  0.00    +0.070 C 
ATOM      8  C   UNL     1       4.160  -0.573   1.621  0.00  0.00    +0.188 C 
ATOM      9  C   UNL     1       3.687  -1.989   1.757  0.00  0.00    +0.054 C 
ATOM     10  C   UNL     1       2.771  -2.557   0.933  0.00  0.00    +0.074 C 
ENDROOT
BRANCH   7  11
ATOM     11  C   UNL     1       1.915   0.484   1.597  0.00  0.00    +0.001 A 
ATOM     12  C   UNL     1       1.221  -0.604   2.091  0.00  0.00    +0.007 A 
ATOM     13  C   UNL     1       0.058  -0.413   2.814  0.00  0.00    +0.001 A 
ATOM     14  C   UNL     1      -0.413   0.866   3.046  0.00  0.00    +0.004 A 
ATOM     15  C   UNL     1       0.277   1.957   2.554  0.00  0.00    +0.046 A 
ATOM     16  C   UNL     1       1.447   1.769   1.833  0.00  0.00    +0.130 A 
BRANCH  16  17
ATOM     17  O   UNL     1       2.131   2.841   1.353  0.00  0.00    -0.434 OA
BRANCH  17  18
ATOM     18  C   UNL     1       1.591   4.133   1.634  0.00  0.00    +0.541 C 
ATOM     19  F   UNL     1       0.307   4.232   1.087  0.00  0.00    -0.166 F 
ATOM     20  F   UNL     1       1.524   4.319   3.019  0.00  0.00    -0.166 F 
ENDBRANCH  17  18
ENDBRANCH  16  17
ENDBRANCH   7  11
BRANCH   1  22
ATOM     21  C   UNL     1       0.711   1.639   0.516  0.00  0.00    +0.011 C 
ATOM     22  C   UNL     1       0.031   0.406  -0.084  0.00  0.00    -0.035 C 
ATOM     23  C   UNL     1       0.275  -0.802   0.822  0.00  0.00    +0.011 C 
ATOM     24  C   UNL     1      -1.473   0.660  -0.202  0.00  0.00    +0.011 C 
ENDBRANCH   1  22
BRANCH   9  25
ATOM     25  N   UNL     1       4.208  -2.749   2.766  0.00  0.00    -0.358 N 
ATOM     26  H   UNL     1       4.865  -2.369   3.370  0.00  0.00    +0.142 HD
ATOM     27  H   UNL     1       3.921  -3.669   2.878  0.00  0.00    +0.142 HD
ENDBRANCH   9  25
BRANCH  10  28
ATOM     28  C   UNL     1       2.386  -3.925   1.112  0.00  0.00    +0.101 C 
ATOM     29  N   UNL     1       2.081  -5.010   1.253  0.00  0.00    -0.191 NA
ENDBRANCH  10  28
BRANCH   8  30
ATOM     30  C   UNL     1       4.306   0.015   2.962  0.00  0.00    +0.091 C 
ATOM     31  N   UNL     1       4.418   0.469   3.998  0.00  0.00    -0.194 NA
ENDBRANCH   8  30
BRANCH   8  32
ATOM     32  C   UNL     1       5.471  -0.567   0.952  0.00  0.00    +0.091 C 
ATOM     33  N   UNL     1       6.483  -0.562   0.435  0.00  0.00    -0.194 NA
ENDBRANCH   8  32
TORSDOF 8
