REMARK  Name = ZINC40325289
REMARK  10 active torsions:
REMARK  status: ('A' for Active; 'I' for Inactive)
REMARK    1  A    between atoms: C_1  and  C_2
REMARK    2  A    between atoms: C_2  and  C_3
REMARK    3  A    between atoms: C_3  and  S_4
REMARK    4  A    between atoms: S_4  and  C_7
REMARK    5  A    between atoms: C_10  and  C_13
REMARK    6  A    between atoms: C_15  and  C_18
REMARK    7  A    between atoms: N_20  and  C_21
REMARK    8  A    between atoms: C_21  and  C_22
REMARK    9  A    between atoms: C_22  and  C_24
REMARK   10  A    between atoms: C_22  and  N_30
REMARK                            x       y       z     vdW  Elec       q    Type
REMARK                         _______ _______ _______ _____ _____    ______ ____
ROOT
ATOM      1  C   UNL     1       6.516  -4.843  -8.345  0.00  0.00    +0.266 C 
ATOM      2  O   UNL     1       7.470  -5.009  -7.610  0.00  0.00    -0.268 OA
ATOM      3  N   UNL     1       6.654  -5.010  -9.675  0.00  0.00    -0.311 N 
ATOM      4  H   UNL     1       5.892  -4.877 -10.262  0.00  0.00    +0.149 HD
ENDROOT
BRANCH   1   7
ATOM      5  C   UNL     1       3.603  -3.909  -6.305  0.00  0.00    +0.168 A 
ATOM      6  C   UNL     1       4.916  -4.249  -6.411  0.00  0.00    +0.086 A 
ATOM      7  C   UNL     1       5.201  -4.457  -7.778  0.00  0.00    +0.168 A 
ATOM      8  N   UNL     1       4.099  -4.248  -8.458  0.00  0.00    -0.073 NA
ATOM      9  O   UNL     1       3.075  -3.905  -7.543  0.00  0.00    -0.354 OA
BRANCH   5  13
ATOM     10  C   UNL     1       1.532  -3.035  -2.701  0.00  0.00    +0.088 A 
ATOM     11  C   UNL     1       0.860  -2.991  -3.909  0.00  0.00    +0.027 A 
ATOM     12  C   UNL     1       1.527  -3.274  -5.083  0.00  0.00    +0.013 A 
ATOM     13  C   UNL     1       2.883  -3.605  -5.050  0.00  0.00    +0.020 A 
ATOM     14  C   UNL     1       3.555  -3.647  -3.828  0.00  0.00    +0.013 A 
ATOM     15  C   UNL     1       2.877  -3.357  -2.662  0.00  0.00    +0.027 A 
BRANCH  10  16
ATOM     16  S   UNL     1       0.673  -2.672  -1.206  0.00  0.00    -0.003 S 
ATOM     17  O   UNL     1       1.394  -3.366  -0.196  0.00  0.00    -0.169 OA
ATOM     18  O   UNL     1      -0.683  -2.996  -1.480  0.00  0.00    -0.169 OA
BRANCH  16  19
ATOM     19  C   UNL     1       0.857  -0.881  -0.986  0.00  0.00    +0.171 C 
BRANCH  19  21
ATOM     20  C   UNL     1       0.296   1.062   0.482  0.00  0.00    +0.005 C 
ATOM     21  C   UNL     1       0.142  -0.449   0.296  0.00  0.00    +0.020 C 
ENDBRANCH  19  21
ENDBRANCH  16  19
ENDBRANCH  10  16
ENDBRANCH   5  13
ENDBRANCH   1   7
BRANCH   3  22
ATOM     22  C   UNL     1       7.952  -5.391 -10.236  0.00  0.00    +0.094 C 
BRANCH  22  23
ATOM     23  C   UNL     1       7.806  -5.641 -11.738  0.00  0.00    -0.020 C 
BRANCH  23  24
ATOM     24  N   UNL     1       9.124  -5.934 -12.316  0.00  0.00    +0.385 N 
ATOM     25  C   UNL     1      10.004  -4.773 -12.139  0.00  0.00    -0.078 C 
ATOM     26  C   UNL     1      11.402  -5.102 -12.667  0.00  0.00    -0.019 C 
ATOM     27  C   UNL     1      11.311  -5.453 -14.155  0.00  0.00    -0.004 C 
ATOM     28  C   UNL     1      10.333  -6.618 -14.335  0.00  0.00    -0.019 C 
ATOM     29  C   UNL     1       8.975  -6.232 -13.745  0.00  0.00    -0.078 C 
ATOM     30  H   UNL     1       9.526  -6.732 -11.847  0.00  0.00    -0.081 HD
ENDBRANCH  23  24
BRANCH  23  31
ATOM     31  C   UNL     1       6.886  -6.813 -11.965  0.00  0.00    -0.059 A 
ATOM     32  C   UNL     1       7.363  -8.103 -11.826  0.00  0.00    +0.002 A 
ATOM     33  C   UNL     1       6.519  -9.178 -12.034  0.00  0.00    +0.000 A 
ATOM     34  C   UNL     1       5.198  -8.963 -12.381  0.00  0.00    +0.000 A 
ATOM     35  C   UNL     1       4.721  -7.673 -12.519  0.00  0.00    +0.000 A 
ATOM     36  C   UNL     1       5.564  -6.598 -12.306  0.00  0.00    +0.002 A 
ENDBRANCH  23  31
ENDBRANCH  22  23
ENDBRANCH   3  22
TORSDOF 9
