REMARK  Name = ZINC16572439
REMARK  10 active torsions:
REMARK  status: ('A' for Active; 'I' for Inactive)
REMARK    1  A    between atoms: C_1  and  C_2
REMARK    2  A    between atoms: C_2  and  C_3
REMARK    3  A    between atoms: C_3  and  C_5
REMARK    4  A    between atoms: C_3  and  C_6
REMARK    5  A    between atoms: C_6  and  C_8
REMARK    6  A    between atoms: C_6  and  N_23
REMARK    7  A    between atoms: C_14  and  C_16
REMARK    8  A    between atoms: C_19  and  C_22
REMARK    9  A    between atoms: N_26  and  C_27
REMARK   10  A    between atoms: C_30  and  C_33
REMARK                            x       y       z     vdW  Elec       q    Type
REMARK                         _______ _______ _______ _____ _____    ______ ____
ROOT
ATOM      1  C   UNL     1      -0.016   1.461   0.007  0.00  0.00    +0.163 C 
ENDROOT
BRANCH   1   2
ATOM      2  C   UNL     1       1.398   1.983  -0.014  0.00  0.00    +0.239 C 
ATOM      3  O   UNL     1       2.330   1.208  -0.035  0.00  0.00    -0.273 OA
ATOM      4  N   UNL     1       1.625   3.311  -0.009  0.00  0.00    -0.262 N 
ATOM      5  C   UNL     1       2.928   3.793  -0.028  0.00  0.00    +0.188 A 
ATOM      6  N   UNL     1       4.072   3.127  -0.046  0.00  0.00    -0.125 NA
ATOM      7  N   UNL     1       5.188   3.717  -0.066  0.00  0.00    -0.140 NA
ATOM      8  C   UNL     1       5.247   5.043  -0.058  0.00  0.00    +0.134 A 
ATOM      9  S   UNL     1       3.502   5.435  -0.027  0.00  0.00    -0.030 S 
ATOM     10  H   UNL     1       0.879   3.931   0.008  0.00  0.00    +0.157 HD
BRANCH   8  11
ATOM     11  C   UNL     1       6.421   5.941  -0.071  0.00  0.00    +0.009 A 
ATOM     12  C   UNL     1       6.245   7.325  -0.065  0.00  0.00    +0.011 A 
ATOM     13  C   UNL     1       7.345   8.158  -0.071  0.00  0.00    +0.004 A 
ATOM     14  C   UNL     1       8.620   7.623  -0.095  0.00  0.00    -0.050 A 
ATOM     15  C   UNL     1       8.802   6.252  -0.108  0.00  0.00    +0.004 A 
ATOM     16  C   UNL     1       7.710   5.408  -0.096  0.00  0.00    +0.011 A 
ATOM     17  C   UNL     1       9.818   8.538  -0.108  0.00  0.00    +0.044 C 
ENDBRANCH   8  11
ENDBRANCH   1   2
BRANCH   1  18
ATOM     18  N   UNL     1       0.005  -0.004  -0.003  0.00  0.00    -0.288 N 
ATOM     19  C   UNL     1      -1.052  -0.690  -0.483  0.00  0.00    +0.304 C 
ATOM     20  O   UNL     1      -2.022  -0.092  -0.908  0.00  0.00    -0.252 OA
ATOM     21  N   UNL     1      -1.033  -2.037  -0.492  0.00  0.00    -0.269 N 
ATOM     22  H   UNL     1       0.779  -0.481   0.336  0.00  0.00    +0.151 HD
ATOM     23  H   UNL     1      -0.234  -2.513  -0.216  0.00  0.00    +0.156 HD
BRANCH  21  24
ATOM     24  C   UNL     1      -2.166  -2.750  -0.900  0.00  0.00    +0.035 A 
ATOM     25  C   UNL     1      -2.480  -3.961  -0.297  0.00  0.00    +0.023 A 
ATOM     26  C   UNL     1      -3.602  -4.660  -0.699  0.00  0.00    +0.005 A 
ATOM     27  C   UNL     1      -4.406  -4.160  -1.706  0.00  0.00    -0.050 A 
ATOM     28  C   UNL     1      -4.093  -2.957  -2.312  0.00  0.00    +0.005 A 
ATOM     29  C   UNL     1      -2.976  -2.251  -1.912  0.00  0.00    +0.023 A 
ATOM     30  C   UNL     1      -5.626  -4.928  -2.145  0.00  0.00    +0.044 C 
ENDBRANCH  21  24
ENDBRANCH   1  18
BRANCH   1  31
ATOM     31  C   UNL     1      -0.723   1.952   1.271  0.00  0.00    +0.015 C 
ATOM     32  C   UNL     1      -2.158   1.422   1.292  0.00  0.00    +0.010 C 
BRANCH  31  34
ATOM     33  C   UNL     1      -0.606   2.037   3.766  0.00  0.00    +0.004 C 
ATOM     34  C   UNL     1       0.027   1.444   2.505  0.00  0.00    +0.002 C 
ENDBRANCH  31  34
ENDBRANCH   1  31
TORSDOF 6
