REMARK  Name = ZINC13641077
REMARK  15 active torsions:
REMARK  status: ('A' for Active; 'I' for Inactive)
REMARK    1  A    between atoms: C_1  and  C_2
REMARK    2  A    between atoms: C_2  and  C_3
REMARK    3  A    between atoms: C_3  and  N_4
REMARK    4  A    between atoms: N_4  and  C_5
REMARK    5  A    between atoms: N_4  and  S_8
REMARK    6  A    between atoms: C_5  and  C_6
REMARK    7  A    between atoms: C_6  and  C_7
REMARK    8  A    between atoms: S_8  and  C_11
REMARK    9  A    between atoms: C_24  and  C_27
REMARK   10  A    between atoms: C_29  and  O_37
REMARK   11  A    between atoms: C_30  and  O_35
REMARK   12  A    between atoms: C_31  and  O_33
REMARK   13  A    between atoms: O_33  and  C_34
REMARK   14  A    between atoms: O_35  and  C_36
REMARK   15  A    between atoms: O_37  and  C_38
REMARK                            x       y       z     vdW  Elec       q    Type
REMARK                         _______ _______ _______ _____ _____    ______ ____
ROOT
ATOM      1  C   UNL     1       4.438   1.178  -2.061  0.00  0.00    +0.106 A 
ATOM      2  C   UNL     1       4.071  -0.032  -2.620  0.00  0.00    +0.030 A 
ATOM      3  C   UNL     1       2.834  -0.572  -2.330  0.00  0.00    +0.025 A 
ATOM      4  C   UNL     1       1.964   0.099  -1.480  0.00  0.00    +0.031 A 
ATOM      5  C   UNL     1       2.327   1.313  -0.918  0.00  0.00    -0.018 A 
ATOM      6  C   UNL     1       3.574   1.845  -1.216  0.00  0.00    +0.034 A 
ATOM      7  C   UNL     1       1.423   2.073  -0.000  0.00  0.00    +0.049 C 
ATOM      8  C   UNL     1       1.873   1.959   1.437  0.00  0.00    -0.023 C 
ATOM      9  C   UNL     1       0.835   1.903   2.235  0.00  0.00    -0.030 C 
ATOM     10  C   UNL     1      -0.453   1.976   1.437  0.00  0.00    +0.033 C 
ATOM     11  C   UNL     1      -0.019   1.527   0.010  0.00  0.00    +0.029 C 
ATOM     12  C   UNL     1       0.002  -0.004   0.002  0.00  0.00    +0.105 C 
ATOM     13  N   UNL     1       0.715  -0.463  -1.195  0.00  0.00    -0.336 N 
ATOM     14  H   UNL     1       0.330  -1.139  -1.774  0.00  0.00    +0.147 HD
ENDROOT
BRANCH  12  15
ATOM     15  C   UNL     1       0.710  -0.506   1.234  0.00  0.00    -0.020 A 
ATOM     16  C   UNL     1       2.091  -0.528   1.275  0.00  0.00    +0.055 A 
ATOM     17  C   UNL     1       2.747  -0.984   2.409  0.00  0.00    +0.165 A 
ATOM     18  C   UNL     1       2.012  -1.429   3.501  0.00  0.00    +0.204 A 
ATOM     19  C   UNL     1       0.623  -1.411   3.454  0.00  0.00    +0.165 A 
ATOM     20  C   UNL     1      -0.024  -0.949   2.318  0.00  0.00    +0.055 A 
BRANCH  19  21
ATOM     21  O   UNL     1      -0.100  -1.847   4.521  0.00  0.00    -0.491 OA
ATOM     22  C   UNL     1      -1.523  -1.800   4.402  0.00  0.00    +0.277 C 
ENDBRANCH  19  21
BRANCH  18  23
ATOM     23  O   UNL     1       2.651  -1.882   4.614  0.00  0.00    -0.488 OA
ATOM     24  C   UNL     1       2.957  -3.277   4.665  0.00  0.00    +0.277 C 
ENDBRANCH  18  23
BRANCH  17  25
ATOM     25  O   UNL     1       4.106  -1.000   2.450  0.00  0.00    -0.491 OA
ATOM     26  C   UNL     1       4.795  -0.527   1.291  0.00  0.00    +0.277 C 
ENDBRANCH  17  25
ENDBRANCH  12  15
BRANCH   1  27
ATOM     27  S   UNL     1       6.016   1.872  -2.427  0.00  0.00    +0.061 S 
ATOM     28  O   UNL     1       6.337   2.742  -1.350  0.00  0.00    -0.153 OA
ATOM     29  O   UNL     1       6.855   0.791  -2.810  0.00  0.00    -0.153 OA
BRANCH  27  30
ATOM     30  N   UNL     1       5.832   2.826  -3.768  0.00  0.00    -0.177 NA
BRANCH  30  31
ATOM     31  C   UNL     1       5.487   4.242  -3.618  0.00  0.00    +0.109 C 
BRANCH  31  33
ATOM     32  C   UNL     1       6.403   6.562  -3.486  0.00  0.00    +0.005 C 
ATOM     33  C   UNL     1       6.764   5.084  -3.643  0.00  0.00    +0.014 C 
ENDBRANCH  31  33
ENDBRANCH  30  31
BRANCH  30  34
ATOM     34  C   UNL     1       6.014   2.254  -5.104  0.00  0.00    +0.109 C 
BRANCH  34  35
ATOM     35  C   UNL     1       4.656   1.832  -5.668  0.00  0.00    +0.014 C 
ATOM     36  C   UNL     1       4.847   1.235  -7.064  0.00  0.00    +0.005 C 
ENDBRANCH  34  35
ENDBRANCH  30  34
ENDBRANCH  27  30
ENDBRANCH   1  27
TORSDOF 10
