REMARK  Name = ZINC36694365
REMARK  11 active torsions:
REMARK  status: ('A' for Active; 'I' for Inactive)
REMARK    1  A    between atoms: C_1  and  C_2
REMARK    2  A    between atoms: C_2  and  N_3
REMARK    3  A    between atoms: N_3  and  C_4
REMARK    4  A    between atoms: N_3  and  C_6
REMARK    5  A    between atoms: C_4  and  C_5
REMARK    6  A    between atoms: C_6  and  C_7
REMARK    7  A    between atoms: C_7  and  N_8
REMARK    8  A    between atoms: C_19  and  C_21
REMARK    9  A    between atoms: C_21  and  S_22
REMARK   10  A    between atoms: S_22  and  C_25
REMARK   11  A    between atoms: C_28  and  C_31
REMARK                            x       y       z     vdW  Elec       q    Type
REMARK                         _______ _______ _______ _____ _____    ______ ____
ROOT
ATOM      1  N   UNL     1      -0.803  -3.594   2.129  0.00  0.00    -0.251 N 
ATOM      2  C   UNL     1       0.233  -4.425   1.732  0.00  0.00    +0.168 A 
ATOM      3  N   UNL     1       1.329  -4.119   1.078  0.00  0.00    -0.224 NA
ATOM      4  C   UNL     1       2.262  -5.041   0.755  0.00  0.00    +0.080 A 
ATOM      5  C   UNL     1       3.477  -4.845   0.058  0.00  0.00    +0.030 A 
ATOM      6  C   UNL     1       4.319  -5.897  -0.190  0.00  0.00    +0.017 A 
ATOM      7  C   UNL     1       4.014  -7.185   0.229  0.00  0.00    +0.019 A 
ATOM      8  C   UNL     1       2.834  -7.412   0.914  0.00  0.00    +0.032 A 
ATOM      9  C   UNL     1       1.985  -6.364   1.167  0.00  0.00    +0.042 A 
ATOM     10  S   UNL     1       0.419  -6.184   1.987  0.00  0.00    -0.052 S 
ATOM     11 BR   UNL     1       5.200  -8.614  -0.132  0.00  0.00    -0.050 Br
ATOM     12  C   UNL     1      -1.852  -4.101   2.805  0.00  0.00    +0.243 C 
ATOM     13  O   UNL     1      -1.891  -5.285   3.066  0.00  0.00    -0.273 OA
ENDROOT
BRANCH   1  14
ATOM     14  C   UNL     1      -0.756  -2.164   1.814  0.00  0.00    +0.097 C 
BRANCH  14  15
ATOM     15  C   UNL     1      -1.421  -1.919   0.458  0.00  0.00    -0.059 C 
BRANCH  15  16
ATOM     16  N   UNL     1      -1.374  -0.485   0.142  0.00  0.00    +0.380 N 
ATOM     17  H   UNL     1      -1.792   0.039   0.895  0.00  0.00    -0.082 HD
BRANCH  16  19
ATOM     18  C   UNL     1       0.082   1.451  -0.216  0.00  0.00    -0.017 C 
ATOM     19  C   UNL     1       0.024  -0.066  -0.029  0.00  0.00    -0.082 C 
ENDBRANCH  16  19
BRANCH  16  20
ATOM     20  C   UNL     1      -2.116  -0.233  -1.101  0.00  0.00    -0.082 C 
ATOM     21  C   UNL     1      -3.600  -0.533  -0.879  0.00  0.00    -0.017 C 
ENDBRANCH  16  20
ENDBRANCH  15  16
ENDBRANCH  14  15
ENDBRANCH   1  14
BRANCH  12  22
ATOM     22  C   UNL     1      -2.978  -3.198   3.237  0.00  0.00    +0.267 C 
BRANCH  22  23
ATOM     23  S   UNL     1      -4.231  -4.171   4.118  0.00  0.00    +0.005 S 
ATOM     24  O   UNL     1      -4.874  -5.067   3.222  0.00  0.00    -0.169 OA
ATOM     25  O   UNL     1      -3.709  -4.634   5.355  0.00  0.00    -0.169 OA
BRANCH  23  26
ATOM     26  C   UNL     1      -5.477  -3.008   4.563  0.00  0.00    +0.089 A 
ATOM     27  C   UNL     1      -5.398  -2.338   5.769  0.00  0.00    +0.027 A 
ATOM     28  C   UNL     1      -6.376  -1.425   6.118  0.00  0.00    +0.005 A 
ATOM     29  C   UNL     1      -7.433  -1.182   5.261  0.00  0.00    -0.050 A 
ATOM     30  C   UNL     1      -7.511  -1.852   4.054  0.00  0.00    +0.005 A 
ATOM     31  C   UNL     1      -6.531  -2.761   3.703  0.00  0.00    +0.027 A 
ATOM     32  C   UNL     1      -8.499  -0.188   5.642  0.00  0.00    +0.044 C 
ENDBRANCH  23  26
ENDBRANCH  22  23
ENDBRANCH  12  22
TORSDOF 8
