REMARK  Name = ZINC22286276
REMARK  12 active torsions:
REMARK  status: ('A' for Active; 'I' for Inactive)
REMARK    1  A    between atoms: C_1  and  C_2
REMARK    2  A    between atoms: C_6  and  O_8
REMARK    3  A    between atoms: O_8  and  C_9
REMARK    4  A    between atoms: C_9  and  C_10
REMARK    5  A    between atoms: C_10  and  N_11
REMARK    6  A    between atoms: C_12  and  C_14
REMARK    7  A    between atoms: C_14  and  S_15
REMARK    8  A    between atoms: S_15  and  C_16
REMARK    9  A    between atoms: N_20  and  C_21
REMARK   10  A    between atoms: C_21  and  C_22
REMARK   11  A    between atoms: C_29  and  C_36
REMARK   12  A    between atoms: C_32  and  C_35
REMARK                            x       y       z     vdW  Elec       q    Type
REMARK                         _______ _______ _______ _____ _____    ______ ____
ROOT
ATOM      1  C   UNL     1      -8.668  -0.862  -4.283  0.00  0.00    +0.194 A 
ATOM      2  N   UNL     1      -8.112  -0.131  -5.218  0.00  0.00    -0.121 NA
ATOM      3  N   UNL     1      -9.031   0.004  -6.267  0.00  0.00    -0.112 NA
ATOM      4  C   UNL     1     -10.121  -0.643  -5.935  0.00  0.00    +0.221 A 
ATOM      5  N   UNL     1      -9.926  -1.195  -4.701  0.00  0.00    -0.283 N 
ATOM      6  N   UNL     1     -11.273  -0.748  -6.704  0.00  0.00    -0.299 N 
ATOM      7  C   UNL     1     -11.041  -1.583  -7.889  0.00  0.00    +0.111 C 
ATOM      8  C   UNL     1     -12.362  -1.796  -8.632  0.00  0.00    +0.004 C 
ATOM      9  C   UNL     1     -12.934  -0.437  -9.046  0.00  0.00    +0.009 C 
ATOM     10  C   UNL     1     -13.121   0.430  -7.798  0.00  0.00    +0.004 C 
ATOM     11  C   UNL     1     -11.778   0.579  -7.079  0.00  0.00    +0.111 C 
ATOM     12  C   UNL     1     -14.131  -0.235  -6.860  0.00  0.00    +0.009 C 
ATOM     13  C   UNL     1     -12.115  -2.647  -9.879  0.00  0.00    +0.009 C 
ENDROOT
BRANCH   1  14
ATOM     14  S   UNL     1      -7.928  -1.328  -2.754  0.00  0.00    -0.077 S 
BRANCH  14  15
ATOM     15  C   UNL     1      -6.278  -0.576  -2.818  0.00  0.00    +0.173 C 
BRANCH  15  17
ATOM     16  N   UNL     1      -4.272  -0.444  -1.377  0.00  0.00    -0.311 N 
ATOM     17  C   UNL     1      -5.528  -0.901  -1.552  0.00  0.00    +0.223 C 
ATOM     18  O   UNL     1      -6.054  -1.574  -0.691  0.00  0.00    -0.275 OA
ATOM     19  H   UNL     1      -3.795   0.166  -2.157  0.00  0.00    +0.149 HD
BRANCH  16  20
ATOM     20  C   UNL     1      -3.543  -0.761  -0.146  0.00  0.00    +0.145 C 
BRANCH  20  21
ATOM     21  C   UNL     1      -2.151  -0.127  -0.201  0.00  0.00    +0.247 C 
BRANCH  21  22
ATOM     22  O   UNL     1      -2.277   1.297  -0.210  0.00  0.00    -0.490 OA
BRANCH  22  28
ATOM     23  C   UNL     1      -0.053   5.640  -0.333  0.00  0.00    +0.044 C 
ATOM     24  C   UNL     1      -0.002   4.134  -0.318  0.00  0.00    -0.047 A 
ATOM     25  C   UNL     1       1.218   3.484  -0.359  0.00  0.00    +0.003 A 
ATOM     26  C   UNL     1       1.268   2.103  -0.346  0.00  0.00    +0.004 A 
ATOM     27  C   UNL     1       0.100   1.368  -0.293  0.00  0.00    +0.045 A 
ATOM     28  C   UNL     1      -1.126   2.017  -0.257  0.00  0.00    +0.121 A 
ATOM     29  C   UNL     1      -1.173   3.404  -0.265  0.00  0.00    +0.049 A 
ENDBRANCH  22  28
ENDBRANCH  21  22
ENDBRANCH  20  21
ENDBRANCH  16  20
ENDBRANCH  15  17
ENDBRANCH  14  15
ENDBRANCH   1  14
BRANCH   5  30
ATOM     30  C   UNL     1     -10.895  -2.003  -3.956  0.00  0.00    +0.201 C 
BRANCH  30  31
ATOM     31  C   UNL     1     -11.652  -1.121  -2.996  0.00  0.00    +0.125 A 
ATOM     32  C   UNL     1     -12.795  -0.465  -3.265  0.00  0.00    +0.046 A 
ATOM     33  C   UNL     1     -13.153   0.233  -2.089  0.00  0.00    +0.041 A 
ATOM     34  C   UNL     1     -12.203  -0.033  -1.174  0.00  0.00    +0.195 A 
ATOM     35  O   UNL     1     -11.297  -0.853  -1.729  0.00  0.00    -0.466 OA
ENDBRANCH  30  31
ENDBRANCH   5  30
TORSDOF 9
