REMARK  Name = ZINC34749150
REMARK  9 active torsions:
REMARK  status: ('A' for Active; 'I' for Inactive)
REMARK    1  A    between atoms: C_1  and  C_2
REMARK    2  A    between atoms: C_2  and  C_3
REMARK    3  A    between atoms: C_4  and  C_36
REMARK    4  A    between atoms: N_10  and  C_27
REMARK    5  A    between atoms: N_16  and  C_19
REMARK    6  A    between atoms: C_19  and  C_20
REMARK    7  A    between atoms: C_27  and  C_28
REMARK    8  A    between atoms: C_30  and  C_35
REMARK    9  A    between atoms: C_33  and  C_34
REMARK                            x       y       z     vdW  Elec       q    Type
REMARK                         _______ _______ _______ _____ _____    ______ ____
ROOT
ATOM      1  C   UNL     1      -2.086  -0.780   0.002  0.00  0.00    -0.023 A 
ATOM      2  C   UNL     1      -2.951  -0.826   1.026  0.00  0.00    -0.007 A 
ATOM      3  S   UNL     1      -4.492  -1.266   0.246  0.00  0.00    -0.073 S 
ATOM      4  C   UNL     1      -3.929  -1.376  -1.434  0.00  0.00    +0.117 A 
ATOM      5  C   UNL     1      -2.561  -1.062  -1.341  0.00  0.00    +0.076 A 
ATOM      6  C   UNL     1      -1.836  -1.069  -2.575  0.00  0.00    +0.264 A 
ATOM      7  O   UNL     1      -0.644  -0.813  -2.593  0.00  0.00    -0.267 OA
ATOM      8  N   UNL     1      -2.488  -1.362  -3.716  0.00  0.00    -0.276 N 
ATOM      9  C   UNL     1      -3.821  -1.650  -3.715  0.00  0.00    +0.202 A 
ATOM     10  N   UNL     1      -4.510  -1.661  -2.593  0.00  0.00    -0.208 NA
ATOM     11  N   UNL     1      -4.450  -1.944  -4.899  0.00  0.00    -0.304 N 
ATOM     12  C   UNL     1      -4.233  -1.117  -6.096  0.00  0.00    +0.089 C 
ATOM     13  C   UNL     1      -5.599  -0.735  -6.676  0.00  0.00    -0.059 C 
ATOM     14  N   UNL     1      -6.387  -1.951  -6.914  0.00  0.00    +0.384 N 
ATOM     15  C   UNL     1      -6.672  -2.619  -5.638  0.00  0.00    -0.059 C 
ATOM     16  C   UNL     1      -5.355  -3.099  -5.009  0.00  0.00    +0.089 C 
ATOM     17  C   UNL     1      -2.684  -0.567   2.486  0.00  0.00    +0.052 C 
ATOM     18  H   UNL     1      -5.866  -2.576  -7.511  0.00  0.00    -0.081 HD
ENDROOT
BRANCH   1  20
ATOM     19  C   UNL     1      -0.452   1.080   0.138  0.00  0.00    +0.009 C 
ATOM     20  C   UNL     1      -0.639  -0.435   0.243  0.00  0.00    +0.033 C 
ENDBRANCH   1  20
BRANCH  14  21
ATOM     21  C   UNL     1      -7.651  -1.593  -7.571  0.00  0.00    -0.043 C 
BRANCH  21  22
ATOM     22  C   UNL     1      -8.405  -2.848  -7.926  0.00  0.00    -0.064 A 
ATOM     23  C   UNL     1      -8.201  -3.453  -9.153  0.00  0.00    +0.003 A 
ATOM     24  C   UNL     1      -8.893  -4.604  -9.480  0.00  0.00    +0.020 A 
ATOM     25  C   UNL     1      -9.790  -5.151  -8.579  0.00  0.00    +0.041 A 
ATOM     26  C   UNL     1      -9.993  -4.545  -7.352  0.00  0.00    +0.020 A 
ATOM     27  C   UNL     1      -9.297  -3.397  -7.024  0.00  0.00    +0.003 A 
ATOM     28 CL   UNL     1     -10.659  -6.597  -8.989  0.00  0.00    -0.084 Cl
ENDBRANCH  21  22
ENDBRANCH  14  21
BRANCH   8  29
ATOM     29  C   UNL     1      -1.751  -1.371  -4.982  0.00  0.00    +0.163 C 
BRANCH  29  30
ATOM     30  C   UNL     1      -0.659  -2.408  -4.920  0.00  0.00    -0.024 A 
ATOM     31  C   UNL     1       0.658  -2.016  -4.761  0.00  0.00    +0.009 A 
ATOM     32  C   UNL     1       1.659  -2.967  -4.705  0.00  0.00    -0.050 A 
ATOM     33  C   UNL     1       1.345  -4.309  -4.807  0.00  0.00    +0.003 A 
ATOM     34  C   UNL     1       0.029  -4.701  -4.965  0.00  0.00    +0.004 A 
ATOM     35  C   UNL     1      -0.974  -3.750  -5.017  0.00  0.00    -0.046 A 
ATOM     36  C   UNL     1      -2.409  -4.177  -5.184  0.00  0.00    +0.044 C 
ATOM     37  C   UNL     1       3.094  -2.540  -4.532  0.00  0.00    +0.044 C 
ENDBRANCH  29  30
ENDBRANCH   8  29
TORSDOF 5
