REMARK  Name = ZINC36601516
REMARK  15 active torsions:
REMARK  status: ('A' for Active; 'I' for Inactive)
REMARK    1  A    between atoms: C_1  and  C_2
REMARK    2  A    between atoms: C_2  and  C_3
REMARK    3  A    between atoms: C_3  and  C_4
REMARK    4  A    between atoms: C_4  and  N_5
REMARK    5  A    between atoms: C_6  and  C_8
REMARK    6  A    between atoms: C_8  and  C_10
REMARK    7  A    between atoms: C_8  and  N_19
REMARK    8  A    between atoms: C_13  and  N_16
REMARK    9  A    between atoms: N_16  and  C_17
REMARK   10  A    between atoms: N_16  and  C_18
REMARK   11  A    between atoms: N_19  and  C_20
REMARK   12  A    between atoms: C_20  and  C_21
REMARK   13  A    between atoms: C_24  and  C_26
REMARK   14  A    between atoms: C_27  and  C_29
REMARK   15  A    between atoms: C_33  and  N_35
REMARK                            x       y       z     vdW  Elec       q    Type
REMARK                         _______ _______ _______ _____ _____    ______ ____
ROOT
ATOM      1  N   UNL     1      -2.374  -9.197 -12.678  0.00  0.00    -0.275 N 
ATOM      2  C   UNL     1      -2.211  -7.979 -12.124  0.00  0.00    +0.248 C 
ATOM      3  O   UNL     1      -3.010  -7.572 -11.304  0.00  0.00    -0.270 OA
ENDROOT
BRANCH   2   4
ATOM      4  C   UNL     1      -1.060  -7.138 -12.515  0.00  0.00    +0.039 A 
ATOM      5  C   UNL     1       0.229  -7.476 -12.099  0.00  0.00    +0.013 A 
ATOM      6  C   UNL     1       1.298  -6.687 -12.467  0.00  0.00    +0.003 A 
ATOM      7  C   UNL     1       1.096  -5.562 -13.248  0.00  0.00    +0.033 A 
ATOM      8  C   UNL     1      -0.179  -5.221 -13.664  0.00  0.00    +0.127 A 
ATOM      9  C   UNL     1      -1.256  -6.005 -13.307  0.00  0.00    +0.045 A 
BRANCH   8  10
ATOM     10  N   UNL     1      -0.386  -4.016 -14.498  0.00  0.00    +0.056 N 
ATOM     11  O   UNL     1       0.558  -3.331 -14.815  0.00  0.00    -0.126 OA
ATOM     12  O   UNL     1      -1.499  -3.717 -14.862  0.00  0.00    -0.126 OA
ENDBRANCH   8  10
ENDBRANCH   2   4
BRANCH   1  13
ATOM     13  C   UNL     1      -1.262  -9.834 -13.388  0.00  0.00    +0.193 C 
BRANCH  13  14
ATOM     14  C   UNL     1      -0.801 -11.044 -12.616  0.00  0.00    -0.018 A 
ATOM     15  C   UNL     1      -1.310 -11.293 -11.354  0.00  0.00    +0.008 A 
ATOM     16  C   UNL     1      -0.890 -12.400 -10.645  0.00  0.00    +0.023 A 
ATOM     17  C   UNL     1       0.044 -13.265 -11.200  0.00  0.00    +0.029 A 
ATOM     18  C   UNL     1       0.553 -13.012 -12.467  0.00  0.00    +0.023 A 
ATOM     19  C   UNL     1       0.125 -11.906 -13.174  0.00  0.00    +0.008 A 
BRANCH  17  20
ATOM     20  N   UNL     1       0.472 -14.386 -10.484  0.00  0.00    -0.336 N 
ATOM     21  C   UNL     1       0.026 -14.588  -9.103  0.00  0.00    +0.129 C 
ATOM     22  C   UNL     1       1.366 -15.361 -11.115  0.00  0.00    +0.129 C 
ENDBRANCH  17  20
ENDBRANCH  13  14
BRANCH  13  24
ATOM     23  N   UNL     1      -0.904 -10.095 -15.821  0.00  0.00    -0.313 N 
ATOM     24  C   UNL     1      -1.719 -10.258 -14.760  0.00  0.00    +0.238 C 
ATOM     25  O   UNL     1      -2.819 -10.745 -14.910  0.00  0.00    -0.273 OA
ATOM     26  H   UNL     1      -0.024  -9.705 -15.701  0.00  0.00    +0.149 HD
BRANCH  23  27
ATOM     27  C   UNL     1      -1.347 -10.506 -17.155  0.00  0.00    +0.104 C 
BRANCH  27  28
ATOM     28  C   UNL     1      -0.242 -10.214 -18.173  0.00  0.00    +0.018 C 
BRANCH  28  30
ATOM     29  C   UNL     1       0.399 -10.352 -20.584  0.00  0.00    +0.004 C 
ATOM     30  C   UNL     1      -0.706 -10.644 -19.566  0.00  0.00    -0.002 C 
ENDBRANCH  28  30
ENDBRANCH  27  28
ENDBRANCH  23  27
ENDBRANCH  13  24
ENDBRANCH   1  13
BRANCH   1  31
ATOM     31  C   UNL     1      -3.664  -9.884 -12.570  0.00  0.00    +0.183 C 
BRANCH  31  32
ATOM     32  C   UNL     1      -4.676  -9.192 -13.447  0.00  0.00    +0.122 A 
ATOM     33  C   UNL     1      -5.411  -9.775 -14.411  0.00  0.00    +0.046 A 
ATOM     34  C   UNL     1      -6.222  -8.764 -14.976  0.00  0.00    +0.045 A 
ATOM     35  C   UNL     1      -5.934  -7.624 -14.323  0.00  0.00    +0.102 A 
ATOM     36  O   UNL     1      -5.001  -7.890 -13.394  0.00  0.00    -0.463 OA
ATOM     37  C   UNL     1      -6.557  -6.277 -14.586  0.00  0.00    +0.086 C 
ENDBRANCH  31  32
ENDBRANCH   1  31
TORSDOF 11
