REMARK  Name = ZINC35093793
REMARK  15 active torsions:
REMARK  status: ('A' for Active; 'I' for Inactive)
REMARK    1  A    between atoms: C_1  and  C_2
REMARK    2  A    between atoms: C_2  and  C_3
REMARK    3  A    between atoms: C_6  and  N_9
REMARK    4  A    between atoms: C_19  and  C_20
REMARK    5  A    between atoms: C_20  and  C_22
REMARK    6  A    between atoms: C_20  and  N_24
REMARK    7  A    between atoms: C_22  and  C_23
REMARK    8  A    between atoms: N_24  and  C_25
REMARK    9  A    between atoms: C_25  and  C_26
REMARK   10  A    between atoms: C_26  and  N_27
REMARK   11  A    between atoms: N_27  and  C_28
REMARK   12  A    between atoms: N_27  and  C_29
REMARK   13  A    between atoms: C_30  and  C_32
REMARK   14  A    between atoms: C_32  and  S_33
REMARK   15  A    between atoms: S_33  and  C_34
REMARK                            x       y       z     vdW  Elec       q    Type
REMARK                         _______ _______ _______ _____ _____    ______ ____
ROOT
ATOM      1  C   UNL     1       0.538  -2.037   5.931  0.00  0.00    +0.142 C 
ENDROOT
BRANCH   1  12
ATOM      2  N   UNL     1       2.967  -1.868   6.301  0.00  0.00    -0.263 N 
ATOM      3  C   UNL     1       4.237  -2.329   6.216  0.00  0.00    +0.266 A 
ATOM      4  O   UNL     1       5.172  -1.691   6.663  0.00  0.00    -0.267 OA
ATOM      5  C   UNL     1       4.442  -3.631   5.565  0.00  0.00    +0.065 A 
ATOM      6  C   UNL     1       5.709  -4.194   5.427  0.00  0.00    +0.015 A 
ATOM      7  C   UNL     1       5.845  -5.417   4.808  0.00  0.00    +0.001 A 
ATOM      8  C   UNL     1       4.731  -6.090   4.322  0.00  0.00    +0.002 A 
ATOM      9  C   UNL     1       3.471  -5.551   4.447  0.00  0.00    +0.028 A 
ATOM     10  C   UNL     1       3.307  -4.312   5.072  0.00  0.00    +0.078 A 
ATOM     11  N   UNL     1       2.084  -3.745   5.218  0.00  0.00    -0.231 NA
ATOM     12  C   UNL     1       1.931  -2.596   5.803  0.00  0.00    +0.138 A 
BRANCH   2  16
ATOM     13  C   UNL     1       2.221   1.806   8.121  0.00  0.00    -0.047 A 
ATOM     14  C   UNL     1       2.085   1.675   6.751  0.00  0.00    +0.005 A 
ATOM     15  C   UNL     1       2.332   0.459   6.145  0.00  0.00    +0.026 A 
ATOM     16  C   UNL     1       2.716  -0.633   6.913  0.00  0.00    +0.051 A 
ATOM     17  C   UNL     1       2.851  -0.497   8.288  0.00  0.00    +0.026 A 
ATOM     18  C   UNL     1       2.609   0.723   8.888  0.00  0.00    +0.005 A 
BRANCH  13  20
ATOM     19  C   UNL     1       3.242   3.954   8.824  0.00  0.00    +0.009 C 
ATOM     20  C   UNL     1       1.950   3.135   8.779  0.00  0.00    +0.032 C 
ENDBRANCH  13  20
ENDBRANCH   2  16
ENDBRANCH   1  12
BRANCH   1  21
ATOM     21  N   UNL     1       0.082  -2.174   7.317  0.00  0.00    -0.293 N 
ATOM     22  C   UNL     1      -0.369  -1.095   7.987  0.00  0.00    +0.226 C 
ATOM     23  O   UNL     1      -0.397  -0.012   7.444  0.00  0.00    -0.275 OA
BRANCH  21  24
ATOM     24  C   UNL     1       0.116  -3.483   7.973  0.00  0.00    +0.090 C 
BRANCH  24  25
ATOM     25  C   UNL     1       1.409  -3.615   8.781  0.00  0.00    -0.060 C 
BRANCH  25  26
ATOM     26  N   UNL     1       1.502  -4.971   9.337  0.00  0.00    +0.377 N 
ATOM     27  C   UNL     1       2.797  -5.135  10.012  0.00  0.00    -0.097 C 
ATOM     28  C   UNL     1       0.416  -5.181  10.304  0.00  0.00    -0.097 C 
ATOM     29  H   UNL     1       1.424  -5.646   8.592  0.00  0.00    -0.083 HD
ENDBRANCH  25  26
ENDBRANCH  24  25
ENDBRANCH  21  24
BRANCH  22  30
ATOM     30  C   UNL     1      -0.837  -1.236   9.413  0.00  0.00    +0.170 C 
BRANCH  30  31
ATOM     31  S   UNL     1      -1.378   0.380  10.034  0.00  0.00    -0.116 S 
BRANCH  31  32
ATOM     32  C   UNL     1      -1.889   0.052  11.688  0.00  0.00    +0.008 A 
ATOM     33  C   UNL     1      -1.803  -1.236  12.201  0.00  0.00    +0.015 A 
ATOM     34  C   UNL     1      -2.204  -1.490  13.498  0.00  0.00    +0.001 A 
ATOM     35  C   UNL     1      -2.691  -0.463  14.285  0.00  0.00    +0.000 A 
ATOM     36  C   UNL     1      -2.779   0.821  13.778  0.00  0.00    +0.001 A 
ATOM     37  C   UNL     1      -2.374   1.083  12.484  0.00  0.00    +0.015 A 
ENDBRANCH  31  32
ENDBRANCH  30  31
ENDBRANCH  22  30
ENDBRANCH   1  21
BRANCH   1  38
ATOM     38  C   UNL     1      -0.407  -2.807   5.005  0.00  0.00    +0.027 C 
ATOM     39  C   UNL     1      -1.794  -2.163   5.043  0.00  0.00    +0.006 C 
ENDBRANCH   1  38
TORSDOF 11
