REMARK  Name = ZINC58961283
REMARK  12 active torsions:
REMARK  status: ('A' for Active; 'I' for Inactive)
REMARK    1  A    between atoms: C_1  and  C_2
REMARK    2  A    between atoms: C_5  and  C_8
REMARK    3  A    between atoms: C_10  and  C_35
REMARK    4  A    between atoms: C_12  and  S_14
REMARK    5  A    between atoms: S_14  and  C_15
REMARK    6  A    between atoms: C_15  and  C_17
REMARK    7  A    between atoms: C_15  and  C_18
REMARK    8  A    between atoms: N_20  and  C_21
REMARK    9  A    between atoms: C_22  and  C_34
REMARK   10  A    between atoms: N_24  and  C_27
REMARK   11  A    between atoms: C_25  and  C_26
REMARK   12  A    between atoms: C_27  and  C_28
REMARK                            x       y       z     vdW  Elec       q    Type
REMARK                         _______ _______ _______ _____ _____    ______ ____
ROOT
ATOM      1  C   UNL     1       0.218  -9.307  -1.870  0.00  0.00    +0.137 C 
ATOM      2  C   UNL     1       0.399 -10.117  -0.585  0.00  0.00    +0.029 C 
ENDROOT
BRANCH   1   3
ATOM      3  C   UNL     1       0.247 -10.235  -3.057  0.00  0.00    +0.230 C 
ATOM      4  O   UNL     1       1.284 -10.415  -3.660  0.00  0.00    -0.274 OA
ATOM      5  N   UNL     1      -0.879 -10.864  -3.448  0.00  0.00    -0.282 N 
ATOM      6  H   UNL     1      -1.694 -10.766  -2.931  0.00  0.00    +0.155 HD
BRANCH   5   7
ATOM      7  C   UNL     1      -0.873 -11.662  -4.607  0.00  0.00    +0.077 A 
ATOM      8  C   UNL     1      -0.606 -11.222  -5.912  0.00  0.00    +0.081 A 
ATOM      9  N   UNL     1      -0.692 -12.248  -6.718  0.00  0.00    -0.174 NA
ATOM     10  N   UNL     1      -1.016 -13.380  -5.959  0.00  0.00    -0.262 N 
ATOM     11  C   UNL     1      -1.117 -12.996  -4.660  0.00  0.00    +0.058 A 
ATOM     12  C   UNL     1      -1.446 -13.889  -3.491  0.00  0.00    +0.067 C 
ATOM     13  C   UNL     1      -0.278  -9.808  -6.316  0.00  0.00    +0.069 C 
BRANCH  10  14
ATOM     14  C   UNL     1      -1.207 -14.738  -6.474  0.00  0.00    +0.179 C 
BRANCH  14  15
ATOM     15  C   UNL     1       0.109 -15.471  -6.458  0.00  0.00    -0.026 A 
ATOM     16  C   UNL     1       0.945 -15.414  -7.558  0.00  0.00    +0.005 A 
ATOM     17  C   UNL     1       2.153 -16.087  -7.544  0.00  0.00    +0.000 A 
ATOM     18  C   UNL     1       2.525 -16.816  -6.429  0.00  0.00    +0.000 A 
ATOM     19  C   UNL     1       1.690 -16.872  -5.330  0.00  0.00    +0.000 A 
ATOM     20  C   UNL     1       0.484 -16.196  -5.342  0.00  0.00    +0.005 A 
ENDBRANCH  14  15
ENDBRANCH  10  14
ENDBRANCH   5   7
ENDBRANCH   1   3
BRANCH   1  21
ATOM     21  S   UNL     1       1.562  -8.096  -2.015  0.00  0.00    -0.074 S 
BRANCH  21  26
ATOM     22  C   UNL     1       1.971  -5.156   0.548  0.00  0.00    +0.076 A 
ATOM     23  C   UNL     1       0.905  -5.363   1.429  0.00  0.00    +0.060 A 
ATOM     24  C   UNL     1       0.062  -6.436   1.202  0.00  0.00    +0.148 A 
ATOM     25  N   UNL     1       0.287  -7.229   0.167  0.00  0.00    -0.218 NA
ATOM     26  C   UNL     1       1.306  -7.010  -0.652  0.00  0.00    +0.190 A 
ATOM     27  N   UNL     1       2.134  -5.991  -0.475  0.00  0.00    -0.222 NA
BRANCH  22  32
ATOM     28  C   UNL     1       5.588  -0.743   1.325  0.00  0.00    +0.044 C 
ATOM     29  C   UNL     1       4.642  -1.898   1.121  0.00  0.00    -0.050 A 
ATOM     30  C   UNL     1       4.824  -2.759   0.054  0.00  0.00    +0.004 A 
ATOM     31  C   UNL     1       3.960  -3.818  -0.137  0.00  0.00    +0.010 A 
ATOM     32  C   UNL     1       2.903  -4.020   0.749  0.00  0.00    +0.001 A 
ATOM     33  C   UNL     1       2.725  -3.150   1.823  0.00  0.00    +0.010 A 
ATOM     34  C   UNL     1       3.598  -2.097   2.007  0.00  0.00    +0.004 A 
ENDBRANCH  22  32
BRANCH  24  35
ATOM     35  C   UNL     1      -1.101  -6.699   2.124  0.00  0.00    +0.434 C 
ATOM     36  F   UNL     1      -2.230  -6.017   1.658  0.00  0.00    -0.164 F 
ATOM     37  F   UNL     1      -1.367  -8.072   2.159  0.00  0.00    -0.164 F 
ATOM     38  F   UNL     1      -0.785  -6.252   3.412  0.00  0.00    -0.164 F 
ENDBRANCH  24  35
ENDBRANCH  21  26
ENDBRANCH   1  21
TORSDOF 8
