REMARK  Name = ZINC01282818
REMARK  5 active torsions:
REMARK  status: ('A' for Active; 'I' for Inactive)
REMARK    1  A    between atoms: C_5  and  C_7
REMARK    2  A    between atoms: C_7  and  S_8
REMARK    3  A    between atoms: S_8  and  C_9
REMARK    4  A    between atoms: C_14  and  C_24
REMARK    5  A    between atoms: C_27  and  O_30
REMARK                            x       y       z     vdW  Elec       q    Type
REMARK                         _______ _______ _______ _____ _____    ______ ____
ROOT
ATOM      1  C   UNL     1       1.276  -4.553   1.507  0.00  0.00    +0.211 A 
ATOM      2  N   UNL     1       1.279  -5.217   0.342  0.00  0.00    -0.187 NA
ATOM      3  C   UNL     1       1.294  -6.502   0.573  0.00  0.00    +0.219 A 
ATOM      4  N   UNL     1       1.308  -6.689   1.915  0.00  0.00    -0.220 N 
ATOM      5  N   UNL     1       1.298  -5.421   2.495  0.00  0.00    -0.141 NA
ATOM      6  C   UNL     1       1.338  -8.005   2.541  0.00  0.00    +0.175 C 
ATOM      7  C   UNL     1       1.010  -9.072   1.520  0.00  0.00    +0.041 C 
ATOM      8  C   UNL     1       1.004  -8.819   0.194  0.00  0.00    +0.020 C 
ATOM      9  N   UNL     1       1.295  -7.572  -0.306  0.00  0.00    -0.287 N 
ATOM     10  C   UNL     1       0.666  -9.903  -0.802  0.00  0.00    +0.052 C 
ATOM     11  C   UNL     1       1.106 -11.262  -0.253  0.00  0.00    +0.014 C 
ATOM     12  C   UNL     1       0.393 -11.496   1.084  0.00  0.00    +0.080 C 
ATOM     13  C   UNL     1       0.710 -10.356   2.011  0.00  0.00    +0.163 C 
ATOM     14  O   UNL     1       0.707 -10.547   3.211  0.00  0.00    -0.292 OA
ATOM     15  H   UNL     1       1.496  -7.446  -1.247  0.00  0.00    +0.155 HD
ENDROOT
BRANCH   6  16
ATOM     16  C   UNL     1       2.713  -8.259   3.103  0.00  0.00    -0.018 A 
ATOM     17  C   UNL     1       3.813  -8.255   2.266  0.00  0.00    +0.009 A 
ATOM     18  C   UNL     1       5.074  -8.489   2.778  0.00  0.00    +0.046 A 
ATOM     19  C   UNL     1       5.237  -8.727   4.135  0.00  0.00    +0.117 A 
ATOM     20  C   UNL     1       4.132  -8.730   4.974  0.00  0.00    +0.046 A 
ATOM     21  C   UNL     1       2.873  -8.491   4.457  0.00  0.00    +0.009 A 
BRANCH  19  22
ATOM     22  O   UNL     1       6.477  -8.957   4.642  0.00  0.00    -0.507 OA
ATOM     23  H   UNL     1       6.939  -8.158   4.929  0.00  0.00    +0.292 HD
ENDBRANCH  19  22
ENDBRANCH   6  16
BRANCH   1  24
ATOM     24  S   UNL     1       1.254  -2.800   1.685  0.00  0.00    -0.080 S 
BRANCH  24  25
ATOM     25  C   UNL     1       1.229  -2.186  -0.022  0.00  0.00    +0.114 C 
BRANCH  25  30
ATOM     26  C   UNL     1      -0.017   1.378   0.010  0.00  0.00    +0.000 A 
ATOM     27  C   UNL     1       1.171   2.086   0.002  0.00  0.00    +0.001 A 
ATOM     28  C   UNL     1       2.377   1.412  -0.013  0.00  0.00    +0.020 A 
ATOM     29  C   UNL     1       2.397   0.029  -0.021  0.00  0.00    +0.045 A 
ATOM     30  C   UNL     1       1.208  -0.679  -0.013  0.00  0.00    -0.019 A 
ATOM     31  C   UNL     1       0.002  -0.004   0.002  0.00  0.00    +0.006 A 
ATOM     32 CL   UNL     1       3.912  -0.818  -0.041  0.00  0.00    -0.083 Cl
ENDBRANCH  25  30
ENDBRANCH  24  25
ENDBRANCH   1  24
TORSDOF 5
