REMARK  Name = ZINC01733220
REMARK  15 active torsions:
REMARK  status: ('A' for Active; 'I' for Inactive)
REMARK    1  A    between atoms: C_1  and  C_2
REMARK    2  A    between atoms: C_2  and  C_25
REMARK    3  A    between atoms: C_3  and  N_18
REMARK    4  A    between atoms: C_5  and  N_10
REMARK    5  A    between atoms: C_7  and  C_8
REMARK    6  A    between atoms: C_7  and  C_9
REMARK    7  A    between atoms: C_11  and  C_13
REMARK    8  A    between atoms: C_13  and  C_14
REMARK    9  A    between atoms: C_13  and  C_15
REMARK   10  A    between atoms: C_13  and  O_16
REMARK   11  A    between atoms: C_17  and  N_57
REMARK   12  A    between atoms: C_19  and  C_21
REMARK   13  A    between atoms: C_21  and  C_22
REMARK   14  A    between atoms: C_21  and  C_23
REMARK   15  A    between atoms: C_21  and  O_24
REMARK                            x       y       z     vdW  Elec       q    Type
REMARK                         _______ _______ _______ _____ _____    ______ ____
ROOT
ATOM      1  C   UNL     1      -1.154  -2.981  -0.537  0.00  0.00    +0.011 C 
ATOM      2  C   UNL     1      -1.168  -1.998   0.635  0.00  0.00    -0.027 C 
ATOM      3  C   UNL     1      -1.372  -0.556   0.123  0.00  0.00    +0.027 C 
ATOM      4  C   UNL     1       0.714  -0.533   1.194  0.00  0.00    +0.027 C 
ATOM      5  C   UNL     1       0.204  -1.983   1.339  0.00  0.00    -0.027 C 
ATOM      6  C   UNL     1       1.164  -2.956   0.652  0.00  0.00    +0.011 C 
ATOM      7  C   UNL     1       0.046  -2.345   2.818  0.00  0.00    +0.011 C 
ATOM      8  C   UNL     1      -0.018   1.465   0.010  0.00  0.00    -0.091 C 
ATOM      9  C   UNL     1      -2.271  -2.370   1.628  0.00  0.00    +0.011 C 
ATOM     10  N   UNL     1      -0.005  -0.032   0.025  0.00  0.00    +0.403 N 
ATOM     11  H   UNL     1       0.442  -0.374  -0.835  0.00  0.00    -0.077 HD
ENDROOT
BRANCH   4  12
ATOM     12  N   UNL     1       2.162  -0.521   0.971  0.00  0.00    -0.326 N 
ATOM     13  C   UNL     1       2.932   0.392   1.595  0.00  0.00    +0.243 C 
ATOM     14  O   UNL     1       2.427   1.203   2.342  0.00  0.00    -0.273 OA
ATOM     15  H   UNL     1       2.566  -1.170   0.374  0.00  0.00    +0.147 HD
BRANCH  13  16
ATOM     16  C   UNL     1       4.422   0.404   1.366  0.00  0.00    +0.136 C 
ATOM     17  C   UNL     1       4.967   1.808   1.635  0.00  0.00    +0.051 C 
ATOM     18  C   UNL     1       5.092  -0.594   2.313  0.00  0.00    +0.051 C 
BRANCH  16  19
ATOM     19  O   UNL     1       4.699   0.036   0.013  0.00  0.00    -0.380 OA
ATOM     20  H   UNL     1       4.304   0.626  -0.643  0.00  0.00    +0.211 HD
ENDBRANCH  16  19
ENDBRANCH  13  16
ENDBRANCH   4  12
BRANCH   3  21
ATOM     21  N   UNL     1      -2.035  -0.566  -1.183  0.00  0.00    -0.326 N 
ATOM     22  C   UNL     1      -3.007   0.328  -1.453  0.00  0.00    +0.243 C 
ATOM     23  O   UNL     1      -3.333   1.141  -0.614  0.00  0.00    -0.273 OA
ATOM     24  H   UNL     1      -1.775  -1.217  -1.854  0.00  0.00    +0.147 HD
BRANCH  22  25
ATOM     25  C   UNL     1      -3.689   0.317  -2.797  0.00  0.00    +0.136 C 
ATOM     26  C   UNL     1      -5.084   0.931  -2.665  0.00  0.00    +0.051 C 
ATOM     27  C   UNL     1      -2.864   1.133  -3.794  0.00  0.00    +0.051 C 
BRANCH  25  28
ATOM     28  O   UNL     1      -3.803  -1.029  -3.262  0.00  0.00    -0.380 OA
ATOM     29  H   UNL     1      -4.315  -1.605  -2.678  0.00  0.00    +0.211 HD
ENDBRANCH  25  28
ENDBRANCH  22  25
ENDBRANCH   3  21
TORSDOF 6
