REMARK  Name = ZINC65748225
REMARK  16 active torsions:
REMARK  status: ('A' for Active; 'I' for Inactive)
REMARK    1  A    between atoms: C_1  and  C_2
REMARK    2  A    between atoms: C_3  and  C_10
REMARK    3  A    between atoms: C_4  and  C_8
REMARK    4  A    between atoms: C_4  and  C_9
REMARK    5  A    between atoms: C_11  and  C_12
REMARK    6  A    between atoms: C_12  and  C_39
REMARK    7  A    between atoms: C_13  and  C_14
REMARK    8  A    between atoms: C_15  and  C_16
REMARK    9  A    between atoms: C_16  and  C_38
REMARK   10  A    between atoms: C_17  and  C_18
REMARK   11  A    between atoms: C_18  and  O_20
REMARK   12  A    between atoms: O_20  and  C_21
REMARK   13  A    between atoms: C_23  and  O_37
REMARK   14  A    between atoms: C_25  and  O_36
REMARK   15  A    between atoms: C_27  and  O_35
REMARK   16  A    between atoms: C_29  and  C_32
REMARK                            x       y       z     vdW  Elec       q    Type
REMARK                         _______ _______ _______ _____ _____    ______ ____
ROOT
ATOM      1  C   UNL     1      -9.380   1.138   0.353  0.00  0.00    -0.044 C 
ATOM      2  C   UNL     1     -10.612   0.626   0.635  0.00  0.00    +0.095 C 
ATOM      3  C   UNL     1      -9.196   2.628   0.218  0.00  0.00    +0.044 C 
ENDROOT
BRANCH   1   5
ATOM      4  C   UNL     1      -7.030   0.794   0.028  0.00  0.00    +0.001 C 
ATOM      5  C   UNL     1      -8.284   0.278   0.189  0.00  0.00    +0.003 C 
BRANCH   4   7
ATOM      6  C   UNL     1      -4.681   0.449  -0.298  0.00  0.00    -0.050 C 
ATOM      7  C   UNL     1      -5.934  -0.066  -0.137  0.00  0.00    +0.003 C 
ATOM      8  C   UNL     1      -4.474   1.942  -0.299  0.00  0.00    +0.044 C 
BRANCH   6  10
ATOM      9  C   UNL     1      -2.334   0.100  -0.623  0.00  0.00    +0.004 C 
ATOM     10  C   UNL     1      -3.582  -0.413  -0.463  0.00  0.00    +0.003 C 
BRANCH   9  13
ATOM     11  C   UNL     1      -2.379  -1.755  -2.589  0.00  0.00    +0.039 C 
ATOM     12  C   UNL     1      -1.205  -1.690  -1.647  0.00  0.00    -0.069 C 
ATOM     13  C   UNL     1      -1.215  -0.767  -0.699  0.00  0.00    -0.043 C 
ATOM     14  C   UNL     1      -0.109  -0.586   0.299  0.00  0.00    -0.010 C 
ATOM     15  C   UNL     1       0.773  -1.836   0.340  0.00  0.00    +0.011 C 
ATOM     16  C   UNL     1       1.163  -2.204  -1.097  0.00  0.00    +0.005 C 
ATOM     17  C   UNL     1      -0.093  -2.681  -1.832  0.00  0.00    +0.031 C 
ATOM     18  C   UNL     1       0.741   0.622  -0.099  0.00  0.00    +0.016 C 
ATOM     19  C   UNL     1      -0.711  -0.345   1.685  0.00  0.00    +0.016 C 
ENDBRANCH   9  13
ENDBRANCH   6  10
ENDBRANCH   4   7
ENDBRANCH   1   5
BRANCH   2  20
ATOM     20  C   UNL     1     -10.751  -0.739   0.957  0.00  0.00    +0.334 C 
ATOM     21  O   UNL     1      -9.762  -1.433   1.108  0.00  0.00    -0.246 OA
BRANCH  20  22
ATOM     22  O   UNL     1     -11.982  -1.278   1.097  0.00  0.00    -0.429 OA
BRANCH  22  23
ATOM     23  C   UNL     1     -12.048  -2.668   1.423  0.00  0.00    +0.343 C 
ATOM     24  C   UNL     1     -13.494  -3.154   1.296  0.00  0.00    +0.214 C 
ATOM     25  C   UNL     1     -13.567  -4.628   1.705  0.00  0.00    +0.180 C 
ATOM     26  C   UNL     1     -13.026  -4.778   3.131  0.00  0.00    +0.186 C 
ATOM     27  C   UNL     1     -11.598  -4.230   3.187  0.00  0.00    +0.266 C 
ATOM     28  O   UNL     1     -11.597  -2.865   2.765  0.00  0.00    -0.322 OA
BRANCH  27  29
ATOM     29  C   UNL     1     -11.080  -4.320   4.599  0.00  0.00    +0.387 C 
ATOM     30  O   UNL     1     -10.915  -5.410   5.119  0.00  0.00    -0.243 OA
ATOM     31  O   UNL     1     -10.826  -3.303   5.221  0.00  0.00    -0.243 OA
ENDBRANCH  27  29
BRANCH  26  32
ATOM     32  O   UNL     1     -13.856  -4.047   4.036  0.00  0.00    -0.386 OA
ATOM     33  H   UNL     1     -13.571  -4.098   4.958  0.00  0.00    +0.210 HD
ENDBRANCH  26  32
BRANCH  25  34
ATOM     34  O   UNL     1     -14.925  -5.071   1.658  0.00  0.00    -0.386 OA
ATOM     35  H   UNL     1     -15.332  -4.997   0.784  0.00  0.00    +0.210 HD
ENDBRANCH  25  34
BRANCH  24  36
ATOM     36  O   UNL     1     -13.929  -3.010  -0.058  0.00  0.00    -0.383 OA
ATOM     37  H   UNL     1     -13.904  -2.101  -0.384  0.00  0.00    +0.210 HD
ENDBRANCH  24  36
ENDBRANCH  22  23
ENDBRANCH  20  22
ENDBRANCH   2  20
TORSDOF 11
