REMARK  Name = ZINC09661762
REMARK  16 active torsions:
REMARK  status: ('A' for Active; 'I' for Inactive)
REMARK    1  A    between atoms: C_1  and  C_2
REMARK    2  A    between atoms: C_2  and  C_3
REMARK    3  A    between atoms: C_3  and  C_5
REMARK    4  A    between atoms: C_3  and  N_65
REMARK    5  A    between atoms: C_8  and  S_17
REMARK    6  A    between atoms: N_9  and  C_10
REMARK    7  A    between atoms: C_10  and  C_11
REMARK    8  A    between atoms: S_17  and  C_18
REMARK    9  A    between atoms: C_18  and  C_19
REMARK   10  A    between atoms: N_21  and  C_22
REMARK   11  A    between atoms: C_24  and  O_32
REMARK   12  A    between atoms: C_25  and  N_29
REMARK   13  A    between atoms: C_27  and  C_28
REMARK   14  A    between atoms: O_32  and  C_33
REMARK   15  A    between atoms: C_34  and  N_65
REMARK   16  A    between atoms: C_35  and  N_65
REMARK                            x       y       z     vdW  Elec       q    Type
REMARK                         _______ _______ _______ _____ _____    ______ ____
ROOT
ATOM      1  C   UNL     1      -2.436  -0.343   2.140  0.00  0.00    +0.121 A 
ATOM      2  N   UNL     1      -2.856  -0.134   3.356  0.00  0.00    -0.135 NA
ATOM      3  N   UNL     1      -3.513   0.969   3.413  0.00  0.00    -0.123 NA
ATOM      4  C   UNL     1      -3.542   1.532   2.227  0.00  0.00    +0.192 A 
ATOM      5  N   UNL     1      -2.853   0.714   1.379  0.00  0.00    -0.303 N 
ENDROOT
BRANCH   1   6
ATOM      6  C   UNL     1      -1.635  -1.527   1.663  0.00  0.00    +0.000 C 
BRANCH   6   9
ATOM      7  C   UNL     1      -3.661  -2.824   1.943  0.00  0.00    -0.096 C 
ATOM      8  C   UNL     1      -1.532  -3.946   1.670  0.00  0.00    -0.096 C 
ATOM      9  N   UNL     1      -2.213  -2.762   2.235  0.00  0.00    +0.383 N 
ATOM     10  H   UNL     1      -2.078  -2.753   3.252  0.00  0.00    -0.082 HD
ENDBRANCH   6   9
BRANCH   6  12
ATOM     11  C   UNL     1      -0.148  -1.456   3.669  0.00  0.00    +0.002 C 
ATOM     12  C   UNL     1      -0.188  -1.391   2.141  0.00  0.00    -0.011 C 
ENDBRANCH   6  12
ENDBRANCH   1   6
BRANCH   5  13
ATOM     13  C   UNL     1      -2.614   0.921  -0.052  0.00  0.00    +0.160 C 
BRANCH  13  14
ATOM     14  C   UNL     1      -1.333   1.691  -0.241  0.00  0.00    -0.028 A 
ATOM     15  C   UNL     1      -0.134   1.016  -0.375  0.00  0.00    +0.005 A 
ATOM     16  C   UNL     1       1.041   1.722  -0.554  0.00  0.00    +0.000 A 
ATOM     17  C   UNL     1       1.018   3.104  -0.594  0.00  0.00    +0.000 A 
ATOM     18  C   UNL     1      -0.180   3.779  -0.454  0.00  0.00    +0.000 A 
ATOM     19  C   UNL     1      -1.355   3.073  -0.275  0.00  0.00    +0.005 A 
ENDBRANCH  13  14
ENDBRANCH   5  13
BRANCH   4  20
ATOM     20  S   UNL     1      -4.325   3.054   1.809  0.00  0.00    -0.077 S 
BRANCH  20  21
ATOM     21  C   UNL     1      -5.000   3.515   3.424  0.00  0.00    +0.173 C 
BRANCH  21  22
ATOM     22  C   UNL     1      -5.734   4.825   3.306  0.00  0.00    +0.227 C 
ATOM     23  O   UNL     1      -5.796   5.392   2.236  0.00  0.00    -0.275 OA
ATOM     24  N   UNL     1      -6.323   5.367   4.391  0.00  0.00    -0.284 N 
ATOM     25  H   UNL     1      -6.344   4.877   5.227  0.00  0.00    +0.155 HD
BRANCH  24  26
ATOM     26  C   UNL     1      -6.903   6.638   4.310  0.00  0.00    +0.040 A 
ATOM     27  C   UNL     1      -6.463   7.543   3.354  0.00  0.00    +0.071 A 
ATOM     28  C   UNL     1      -7.041   8.801   3.277  0.00  0.00    +0.152 A 
ATOM     29  C   UNL     1      -8.057   9.152   4.155  0.00  0.00    +0.168 A 
ATOM     30  C   UNL     1      -8.493   8.250   5.106  0.00  0.00    +0.041 A 
ATOM     31  C   UNL     1      -7.923   6.993   5.182  0.00  0.00    -0.027 A 
ATOM     32  C   UNL     1      -8.406   6.010   6.217  0.00  0.00    +0.046 C 
BRANCH  29  33
ATOM     33  N   UNL     1      -8.673  10.495   4.072  0.00  0.00    +0.060 N 
ATOM     34  O   UNL     1      -9.565  10.805   4.843  0.00  0.00    -0.126 OA
ATOM     35  O   UNL     1      -8.289  11.291   3.235  0.00  0.00    -0.126 OA
ENDBRANCH  29  33
BRANCH  28  36
ATOM     36  O   UNL     1      -6.612   9.689   2.342  0.00  0.00    -0.493 OA
ATOM     37  C   UNL     1      -5.563   9.260   1.472  0.00  0.00    +0.277 C 
ENDBRANCH  28  36
ENDBRANCH  24  26
ENDBRANCH  21  22
ENDBRANCH  20  21
ENDBRANCH   4  20
TORSDOF 11
