REMARK  Name = ZINC54065065
REMARK  6 active torsions:
REMARK  status: ('A' for Active; 'I' for Inactive)
REMARK    1  A    between atoms: C_1  and  C_2
REMARK    2  A    between atoms: C_2  and  C_4
REMARK    3  A    between atoms: C_2  and  N_11
REMARK    4  A    between atoms: N_14  and  N_15
REMARK    5  A    between atoms: C_16  and  C_18
REMARK    6  A    between atoms: C_20  and  C_24
REMARK                            x       y       z     vdW  Elec       q    Type
REMARK                         _______ _______ _______ _____ _____    ______ ____
ROOT
ATOM      1  N   UNL     1       1.987  -1.396   3.416  0.00  0.00    -0.228 N 
ATOM      2  C   UNL     1       2.639  -1.842   4.508  0.00  0.00    +0.278 C 
ATOM      3  O   UNL     1       3.851  -1.942   4.495  0.00  0.00    -0.267 OA
ATOM      4  H   UNL     1       1.020  -1.316   3.427  0.00  0.00    +0.173 HD
ENDROOT
BRANCH   1   8
ATOM      5  N   UNL     1       0.711  -0.489   1.189  0.00  0.00    -0.292 N 
ATOM      6  C   UNL     1       2.054  -0.600   1.174  0.00  0.00    +0.316 C 
ATOM      7  O   UNL     1       2.677  -0.297   0.175  0.00  0.00    -0.251 OA
ATOM      8  N   UNL     1       2.706  -1.046   2.266  0.00  0.00    -0.218 N 
ATOM      9  H   UNL     1       0.213  -0.731   1.986  0.00  0.00    +0.151 HD
ATOM     10  H   UNL     1       3.672  -1.126   2.255  0.00  0.00    +0.174 HD
BRANCH   5  12
ATOM     11  C   UNL     1      -0.019   1.526   0.010  0.00  0.00    +0.033 C 
ATOM     12  C   UNL     1       0.002  -0.004   0.002  0.00  0.00    +0.102 C 
BRANCH  12  13
ATOM     13  C   UNL     1      -1.412  -0.526   0.013  0.00  0.00    -0.026 A 
ATOM     14  C   UNL     1      -2.123  -0.571   1.198  0.00  0.00    +0.005 A 
ATOM     15  C   UNL     1      -3.420  -1.049   1.208  0.00  0.00    +0.002 A 
ATOM     16  C   UNL     1      -4.006  -1.483   0.034  0.00  0.00    +0.020 A 
ATOM     17  C   UNL     1      -3.295  -1.438  -1.152  0.00  0.00    +0.041 A 
ATOM     18  C   UNL     1      -1.999  -0.954  -1.163  0.00  0.00    +0.025 A 
ATOM     19 CL   UNL     1      -4.031  -1.983  -2.627  0.00  0.00    -0.084 Cl
ENDBRANCH  12  13
ENDBRANCH   5  12
ENDBRANCH   1   8
BRANCH   2  20
ATOM     20  C   UNL     1       1.884  -2.209   5.717  0.00  0.00    +0.122 A 
ATOM     21  C   UNL     1       2.406  -2.674   6.909  0.00  0.00    +0.062 A 
ATOM     22  C   UNL     1       1.294  -2.880   7.746  0.00  0.00    +0.093 A 
ATOM     23  N   UNL     1       0.217  -2.551   7.065  0.00  0.00    -0.173 NA
ATOM     24  N   UNL     1       0.529  -2.151   5.885  0.00  0.00    -0.272 N 
ATOM     25  H   UNL     1      -0.104  -1.855   5.212  0.00  0.00    +0.189 HD
BRANCH  22  26
ATOM     26  C   UNL     1       1.329  -3.378   9.144  0.00  0.00    +0.002 A 
ATOM     27  C   UNL     1       2.547  -3.685   9.747  0.00  0.00    +0.010 A 
ATOM     28  C   UNL     1       2.574  -4.148  11.046  0.00  0.00    +0.001 A 
ATOM     29  C   UNL     1       1.395  -4.308  11.751  0.00  0.00    +0.000 A 
ATOM     30  C   UNL     1       0.182  -4.005  11.158  0.00  0.00    +0.001 A 
ATOM     31  C   UNL     1       0.145  -3.536   9.860  0.00  0.00    +0.010 A 
ENDBRANCH  22  26
ENDBRANCH   2  20
TORSDOF 5
