REMARK  Name = ZINC08687908
REMARK  10 active torsions:
REMARK  status: ('A' for Active; 'I' for Inactive)
REMARK    1  A    between atoms: C_1  and  N_2
REMARK    2  A    between atoms: N_2  and  C_3
REMARK    3  A    between atoms: N_2  and  C_4
REMARK    4  A    between atoms: C_8  and  C_10
REMARK    5  A    between atoms: C_10  and  O_12
REMARK    6  A    between atoms: O_12  and  C_13
REMARK    7  A    between atoms: C_13  and  C_15
REMARK    8  A    between atoms: C_13  and  C_21
REMARK    9  A    between atoms: N_23  and  C_24
REMARK   10  A    between atoms: C_27  and  N_31
REMARK                            x       y       z     vdW  Elec       q    Type
REMARK                         _______ _______ _______ _____ _____    ______ ____
ROOT
ATOM      1  C   UNL     1      -7.270   0.003   0.068  0.00  0.00    +0.292 C 
ENDROOT
BRANCH   1   2
ATOM      2  C   UNL     1      -7.695   0.261   1.490  0.00  0.00    +0.002 A 
ATOM      3  C   UNL     1      -7.464  -0.693   2.464  0.00  0.00    +0.008 A 
ATOM      4  C   UNL     1      -7.854  -0.456   3.769  0.00  0.00    +0.000 A 
ATOM      5  C   UNL     1      -8.476   0.734   4.100  0.00  0.00    +0.000 A 
ATOM      6  C   UNL     1      -8.706   1.687   3.126  0.00  0.00    +0.000 A 
ATOM      7  C   UNL     1      -8.312   1.453   1.822  0.00  0.00    +0.008 A 
ENDBRANCH   1   2
BRANCH   1   8
ATOM      8  C   UNL     1      -8.347  -0.771  -0.647  0.00  0.00    +0.263 C 
ATOM      9  O   UNL     1      -8.128  -1.899  -1.034  0.00  0.00    -0.271 OA
ATOM     10  N   UNL     1      -9.555  -0.210  -0.855  0.00  0.00    -0.281 N 
ATOM     11  H   UNL     1      -9.752   0.666  -0.489  0.00  0.00    +0.155 HD
BRANCH  10  12
ATOM     12  C   UNL     1     -10.524  -0.891  -1.600  0.00  0.00    +0.048 A 
ATOM     13  C   UNL     1     -10.614  -2.275  -1.525  0.00  0.00    +0.026 A 
ATOM     14  C   UNL     1     -11.572  -2.945  -2.261  0.00  0.00    +0.034 A 
ATOM     15  C   UNL     1     -12.441  -2.239  -3.073  0.00  0.00    +0.127 A 
ATOM     16  C   UNL     1     -12.355  -0.861  -3.150  0.00  0.00    +0.049 A 
ATOM     17  C   UNL     1     -11.403  -0.184  -2.411  0.00  0.00    +0.041 A 
ATOM     18 BR   UNL     1     -11.291   1.701  -2.512  0.00  0.00    -0.048 Br
BRANCH  15  19
ATOM     19  N   UNL     1     -13.465  -2.961  -3.861  0.00  0.00    +0.056 N 
ATOM     20  O   UNL     1     -13.541  -4.165  -3.795  0.00  0.00    -0.126 OA
ATOM     21  O   UNL     1     -14.226  -2.345  -4.571  0.00  0.00    -0.126 OA
ENDBRANCH  15  19
ENDBRANCH  10  12
ENDBRANCH   1   8
BRANCH   1  22
ATOM     22  O   UNL     1      -6.057  -0.753   0.063  0.00  0.00    -0.444 OA
BRANCH  22  23
ATOM     23  C   UNL     1      -4.903  -0.058   0.066  0.00  0.00    +0.340 C 
ATOM     24  O   UNL     1      -4.925   1.156   0.073  0.00  0.00    -0.245 OA
BRANCH  23  29
ATOM     25  C   UNL     1      -1.204  -0.734   0.059  0.00  0.00    +0.030 A 
ATOM     26  C   UNL     1      -1.187  -2.124   0.051  0.00  0.00    +0.023 A 
ATOM     27  C   UNL     1      -2.373  -2.835   0.049  0.00  0.00    +0.003 A 
ATOM     28  C   UNL     1      -3.582  -2.169   0.053  0.00  0.00    +0.015 A 
ATOM     29  C   UNL     1      -3.610  -0.773   0.061  0.00  0.00    +0.061 A 
ATOM     30  C   UNL     1      -2.413  -0.056   0.070  0.00  0.00    +0.038 A 
BRANCH  25  32
ATOM     31  C   UNL     1      -0.021   1.444   0.077  0.00  0.00    +0.129 C 
ATOM     32  N   UNL     1      -0.003  -0.021   0.062  0.00  0.00    -0.336 N 
ATOM     33  C   UNL     1       1.274  -0.738   0.051  0.00  0.00    +0.129 C 
ENDBRANCH  25  32
ENDBRANCH  23  29
ENDBRANCH  22  23
ENDBRANCH   1  22
TORSDOF 8
