REMARK  Name = ZINC08594315
REMARK  5 active torsions:
REMARK  status: ('A' for Active; 'I' for Inactive)
REMARK    1  A    between atoms: C_1  and  C_2
REMARK    2  A    between atoms: C_4  and  C_33
REMARK    3  A    between atoms: N_5  and  C_26
REMARK    4  A    between atoms: C_14  and  C_17
REMARK    5  A    between atoms: N_19  and  C_20
REMARK                            x       y       z     vdW  Elec       q    Type
REMARK                         _______ _______ _______ _____ _____    ______ ____
ROOT
ATOM      1  C   UNL     1       0.676   1.396  -0.007  0.00  0.00    +0.068 C 
ATOM      2  C   UNL     1       0.533  -0.103  -0.042  0.00  0.00    +0.072 A 
ATOM      3  C   UNL     1       0.138  -0.752  -1.233  0.00  0.00    +0.049 A 
ATOM      4  C   UNL     1      -0.192  -0.378  -2.516  0.00  0.00    +0.051 A 
ATOM      5  N   UNL     1      -0.487  -1.492  -3.208  0.00  0.00    -0.236 N 
ATOM      6  N   UNL     1      -0.353  -2.616  -2.382  0.00  0.00    -0.163 NA
ATOM      7  C   UNL     1       0.021  -2.223  -1.186  0.00  0.00    +0.137 A 
ATOM      8  C   UNL     1       0.328  -2.859   0.095  0.00  0.00    +0.172 A 
ATOM      9  N   UNL     1       0.682  -2.086   1.103  0.00  0.00    -0.132 NA
ATOM     10  N   UNL     1       0.778  -0.814   1.028  0.00  0.00    -0.152 NA
ATOM     11  N   UNL     1       0.247  -4.235   0.245  0.00  0.00    -0.312 N 
ATOM     12  C   UNL     1      -0.143  -5.090  -0.884  0.00  0.00    +0.107 C 
ATOM     13  C   UNL     1      -1.317  -5.973  -0.451  0.00  0.00    +0.031 C 
ATOM     14  C   UNL     1      -0.931  -6.742   0.815  0.00  0.00    +0.078 C 
ATOM     15  C   UNL     1      -0.630  -5.752   1.943  0.00  0.00    +0.031 C 
ATOM     16  C   UNL     1       0.557  -4.866   1.535  0.00  0.00    +0.107 C 
ATOM     17  C   UNL     1      -0.218   1.031  -3.050  0.00  0.00    +0.066 C 
ENDROOT
BRANCH   5  18
ATOM     18  C   UNL     1      -0.872  -1.525  -4.555  0.00  0.00    +0.066 A 
ATOM     19  C   UNL     1      -0.212  -0.734  -5.487  0.00  0.00    +0.029 A 
ATOM     20  C   UNL     1      -0.594  -0.769  -6.813  0.00  0.00    +0.022 A 
ATOM     21  C   UNL     1      -1.633  -1.590  -7.215  0.00  0.00    +0.041 A 
ATOM     22  C   UNL     1      -2.292  -2.379  -6.288  0.00  0.00    +0.022 A 
ATOM     23  C   UNL     1      -1.911  -2.353  -4.961  0.00  0.00    +0.029 A 
ATOM     24 CL   UNL     1      -2.111  -1.630  -8.883  0.00  0.00    -0.084 Cl
ENDBRANCH   5  18
BRANCH  14  25
ATOM     25  C   UNL     1      -2.071  -7.638   1.225  0.00  0.00    +0.216 C 
ATOM     26  O   UNL     1      -3.091  -7.660   0.570  0.00  0.00    -0.276 OA
ATOM     27  N   UNL     1      -1.957  -8.415   2.320  0.00  0.00    -0.312 N 
ATOM     28  H   UNL     1      -1.141  -8.398   2.845  0.00  0.00    +0.149 HD
BRANCH  27  29
ATOM     29  C   UNL     1      -3.065  -9.287   2.719  0.00  0.00    +0.073 C 
ATOM     30  C   UNL     1      -4.060  -8.491   3.567  0.00  0.00    +0.022 C 
ATOM     31  C   UNL     1      -5.217  -9.401   3.983  0.00  0.00    +0.002 C 
ATOM     32  C   UNL     1      -4.675 -10.575   4.801  0.00  0.00    +0.000 C 
ATOM     33  C   UNL     1      -3.680 -11.370   3.953  0.00  0.00    +0.002 C 
ATOM     34  C   UNL     1      -2.522 -10.460   3.537  0.00  0.00    +0.022 C 
ENDBRANCH  27  29
ENDBRANCH  14  25
TORSDOF 3
