REMARK  Name = ZINC13499606
REMARK  13 active torsions:
REMARK  status: ('A' for Active; 'I' for Inactive)
REMARK    1  A    between atoms: C_1  and  C_2
REMARK    2  A    between atoms: C_2  and  C_3
REMARK    3  A    between atoms: C_3  and  C_4
REMARK    4  A    between atoms: C_4  and  C_6
REMARK    5  A    between atoms: C_4  and  N_17
REMARK    6  A    between atoms: N_10  and  C_11
REMARK    7  A    between atoms: C_11  and  C_12
REMARK    8  A    between atoms: N_17  and  C_18
REMARK    9  A    between atoms: N_17  and  C_25
REMARK   10  A    between atoms: C_18  and  C_19
REMARK   11  A    between atoms: C_25  and  C_26
REMARK   12  A    between atoms: C_29  and  C_39
REMARK   13  A    between atoms: C_31  and  C_38
REMARK                            x       y       z     vdW  Elec       q    Type
REMARK                         _______ _______ _______ _____ _____    ______ ____
ROOT
ATOM      1  N   UNL     1       1.572  -2.283   0.187  0.00  0.00    -0.284 NA
ENDROOT
BRANCH   1   2
ATOM      2  C   UNL     1       0.840  -2.222  -1.085  0.00  0.00    +0.127 C 
BRANCH   2   3
ATOM      3  C   UNL     1      -0.500  -2.893  -0.926  0.00  0.00    +0.169 A 
ATOM      4  N   UNL     1      -0.740  -4.026  -0.312  0.00  0.00    -0.112 NA
ATOM      5  N   UNL     1      -2.004  -4.262  -0.392  0.00  0.00    -0.023 NA
ATOM      6  N   UNL     1      -2.577  -3.309  -1.040  0.00  0.00    -0.043 NA
ATOM      7  N   UNL     1      -1.684  -2.443  -1.382  0.00  0.00    -0.220 N 
BRANCH   7   8
ATOM      8  C   UNL     1      -1.914  -1.204  -2.129  0.00  0.00    +0.221 C 
BRANCH   8   9
ATOM      9  C   UNL     1      -1.924  -1.502  -3.606  0.00  0.00    +0.126 A 
ATOM     10  C   UNL     1      -3.006  -1.827  -4.336  0.00  0.00    +0.046 A 
ATOM     11  C   UNL     1      -2.562  -2.021  -5.664  0.00  0.00    +0.041 A 
ATOM     12  C   UNL     1      -1.234  -1.803  -5.666  0.00  0.00    +0.195 A 
ATOM     13  O   UNL     1      -0.854  -1.483  -4.418  0.00  0.00    -0.466 OA
ENDBRANCH   8   9
ENDBRANCH   7   8
ENDBRANCH   2   3
BRANCH   2  14
ATOM     14  C   UNL     1       1.644  -2.940  -2.171  0.00  0.00    +0.026 C 
BRANCH  14  16
ATOM     15  C   UNL     1       3.812  -2.972  -3.412  0.00  0.00    +0.004 C 
ATOM     16  C   UNL     1       2.957  -2.192  -2.411  0.00  0.00    -0.001 C 
ENDBRANCH  14  16
ENDBRANCH   2  14
ENDBRANCH   1   2
BRANCH   1  17
ATOM     17  C   UNL     1       1.697  -3.669   0.657  0.00  0.00    +0.120 C 
BRANCH  17  18
ATOM     18  C   UNL     1       2.780  -3.749   1.703  0.00  0.00    -0.033 A 
ATOM     19  C   UNL     1       4.101  -3.882   1.320  0.00  0.00    +0.005 A 
ATOM     20  C   UNL     1       5.094  -3.955   2.279  0.00  0.00    +0.000 A 
ATOM     21  C   UNL     1       4.766  -3.895   3.621  0.00  0.00    +0.000 A 
ATOM     22  C   UNL     1       3.444  -3.761   4.003  0.00  0.00    +0.000 A 
ATOM     23  C   UNL     1       2.451  -3.683   3.044  0.00  0.00    +0.005 A 
ENDBRANCH  17  18
ENDBRANCH   1  17
BRANCH   1  24
ATOM     24  C   UNL     1       0.930  -1.438   1.204  0.00  0.00    +0.126 C 
BRANCH  24  25
ATOM     25  C   UNL     1       1.263   0.007   0.939  0.00  0.00    +0.032 A 
ATOM     26  C   UNL     1       0.396   0.783   0.240  0.00  0.00    +0.020 A 
ATOM     27  C   UNL     1       0.749   2.183  -0.000  0.00  0.00    +0.002 A 
ATOM     28  C   UNL     1      -0.105   3.032  -0.713  0.00  0.00    -0.041 A 
ATOM     29  C   UNL     1       0.253   4.334  -0.920  0.00  0.00    +0.007 A 
ATOM     30  C   UNL     1       1.456   4.822  -0.429  0.00  0.00    -0.048 A 
ATOM     31  C   UNL     1       2.312   4.005   0.275  0.00  0.00    +0.029 A 
ATOM     32  C   UNL     1       1.969   2.675   0.499  0.00  0.00    +0.050 A 
ATOM     33  N   UNL     1       2.806   1.835   1.202  0.00  0.00    -0.322 N 
ATOM     34  H   UNL     1       3.647   2.175   1.546  0.00  0.00    +0.169 HD
ATOM     35  C   UNL     1       2.472   0.551   1.423  0.00  0.00    +0.254 A 
ATOM     36  O   UNL     1       3.234  -0.162   2.052  0.00  0.00    -0.268 OA
ATOM     37  C   UNL     1       1.830   6.262  -0.670  0.00  0.00    +0.044 C 
ATOM     38  C   UNL     1      -1.413   2.512  -1.251  0.00  0.00    +0.044 C 
ENDBRANCH  24  25
ENDBRANCH   1  24
TORSDOF 10
