REMARK  Name = ZINC36811473
REMARK  8 active torsions:
REMARK  status: ('A' for Active; 'I' for Inactive)
REMARK    1  A    between atoms: C_1  and  C_2
REMARK    2  A    between atoms: C_2  and  C_3
REMARK    3  A    between atoms: C_6  and  C_9
REMARK    4  A    between atoms: C_12  and  S_15
REMARK    5  A    between atoms: S_15  and  C_16
REMARK    6  A    between atoms: C_16  and  C_18
REMARK    7  A    between atoms: C_16  and  C_19
REMARK    8  A    between atoms: N_27  and  C_28
REMARK                            x       y       z     vdW  Elec       q    Type
REMARK                         _______ _______ _______ _____ _____    ______ ____
ROOT
ATOM      1  S   UNL     1       2.880  -3.084   8.368  0.00  0.00    -0.076 S 
ENDROOT
BRANCH   1   5
ATOM      2  C   UNL     1       2.788  -1.912   4.668  0.00  0.00    +0.182 A 
ATOM      3  N   UNL     1       2.224  -2.191   5.852  0.00  0.00    -0.201 NA
ATOM      4  H   UNL     1       5.196  -2.850   6.417  0.00  0.00    +0.191 HD
ATOM      5  C   UNL     1       3.147  -2.604   6.694  0.00  0.00    +0.185 A 
ATOM      6  N   UNL     1       4.335  -2.596   6.050  0.00  0.00    -0.253 N 
ATOM      7  N   UNL     1       4.077  -2.151   4.743  0.00  0.00    -0.152 NA
BRANCH   2  11
ATOM      8  C   UNL     1       0.731  -0.503   1.223  0.00  0.00    -0.048 A 
ATOM      9  C   UNL     1       2.098  -0.709   1.173  0.00  0.00    +0.004 A 
ATOM     10  C   UNL     1       2.771  -1.166   2.288  0.00  0.00    +0.012 A 
ATOM     11  C   UNL     1       2.070  -1.420   3.466  0.00  0.00    +0.021 A 
ATOM     12  C   UNL     1       0.693  -1.212   3.510  0.00  0.00    +0.012 A 
ATOM     13  C   UNL     1       0.031  -0.749   2.391  0.00  0.00    +0.004 A 
BRANCH   8  15
ATOM     14  C   UNL     1      -0.019   1.526   0.010  0.00  0.00    +0.009 C 
ATOM     15  C   UNL     1       0.002  -0.004   0.002  0.00  0.00    +0.032 C 
ENDBRANCH   8  15
ENDBRANCH   2  11
ENDBRANCH   1   5
BRANCH   1  16
ATOM     16  C   UNL     1       1.095  -2.869   8.607  0.00  0.00    +0.117 C 
ATOM     17  C   UNL     1       0.738  -1.387   8.483  0.00  0.00    +0.027 C 
BRANCH  16  18
ATOM     18  C   UNL     1       0.708  -3.366   9.977  0.00  0.00    +0.128 A 
ATOM     19  N   UNL     1       1.353  -3.101  11.075  0.00  0.00    -0.231 NA
ATOM     20  C   UNL     1       0.736  -3.704  12.124  0.00  0.00    +0.090 A 
ATOM     21  C   UNL     1       0.995  -3.753  13.496  0.00  0.00    +0.030 A 
ATOM     22  C   UNL     1       0.169  -4.464  14.319  0.00  0.00    +0.002 A 
ATOM     23  C   UNL     1      -0.929  -5.141  13.808  0.00  0.00    +0.002 A 
ATOM     24  C   UNL     1      -1.204  -5.107  12.457  0.00  0.00    +0.028 A 
ATOM     25  C   UNL     1      -0.376  -4.389  11.605  0.00  0.00    +0.074 A 
ATOM     26  N   UNL     1      -0.370  -4.151  10.245  0.00  0.00    -0.270 N 
BRANCH  26  27
ATOM     27  C   UNL     1      -1.342  -4.654   9.271  0.00  0.00    +0.449 C 
ATOM     28  F   UNL     1      -2.587  -4.806   9.891  0.00  0.00    -0.185 F 
ATOM     29  F   UNL     1      -1.455  -3.745   8.214  0.00  0.00    -0.185 F 
ENDBRANCH  26  27
ENDBRANCH  16  18
ENDBRANCH   1  16
TORSDOF 6
