REMARK  Name = ZINC22426363
REMARK  10 active torsions:
REMARK  status: ('A' for Active; 'I' for Inactive)
REMARK    1  A    between atoms: C_1  and  C_2
REMARK    2  A    between atoms: N_7  and  C_9
REMARK    3  A    between atoms: C_12  and  C_15
REMARK    4  A    between atoms: C_15  and  C_17
REMARK    5  A    between atoms: C_15  and  N_18
REMARK    6  A    between atoms: C_19  and  C_21
REMARK    7  A    between atoms: C_21  and  N_22
REMARK    8  A    between atoms: N_22  and  C_23
REMARK    9  A    between atoms: N_22  and  S_30
REMARK   10  A    between atoms: S_30  and  C_33
REMARK                            x       y       z     vdW  Elec       q    Type
REMARK                         _______ _______ _______ _____ _____    ______ ____
ROOT
ATOM      1  N   UNL     1       1.356   2.010  -0.000  0.00  0.00    -0.307 N 
ATOM      2  C   UNL     1       1.617   3.238  -0.489  0.00  0.00    +0.233 C 
ATOM      3  O   UNL     1       0.715   3.924  -0.921  0.00  0.00    -0.274 OA
ATOM      4  H   UNL     1       2.175   1.388   0.391  0.00  0.00    +0.149 HD
ENDROOT
BRANCH   1   5
ATOM      5  C   UNL     1      -0.018   1.503   0.010  0.00  0.00    +0.100 C 
ATOM      6  C   UNL     1      -0.735   1.996   1.269  0.00  0.00    +0.033 C 
BRANCH   5  10
ATOM      7  C   UNL     1       0.040  -2.771  -0.013  0.00  0.00    +0.030 A 
ATOM      8  C   UNL     1      -0.898  -2.083  -0.773  0.00  0.00    +0.023 A 
ATOM      9  C   UNL     1      -0.914  -0.702  -0.763  0.00  0.00    +0.007 A 
ATOM     10  C   UNL     1       0.002  -0.004   0.002  0.00  0.00    -0.027 A 
ATOM     11  C   UNL     1       0.940  -0.685   0.755  0.00  0.00    +0.007 A 
ATOM     12  C   UNL     1       0.958  -2.066   0.755  0.00  0.00    +0.023 A 
BRANCH   7  18
ATOM     13  C   UNL     1      -2.268  -6.807   1.399  0.00  0.00    +0.009 C 
ATOM     14  C   UNL     1      -1.013  -6.236   0.736  0.00  0.00    +0.003 C 
ATOM     15  C   UNL     1      -0.863  -6.826  -0.668  0.00  0.00    +0.006 C 
ATOM     16  C   UNL     1       0.361  -6.205  -1.347  0.00  0.00    +0.019 C 
ATOM     17  C   UNL     1       0.198  -4.684  -1.389  0.00  0.00    +0.105 C 
ATOM     18  N   UNL     1       0.059  -4.167  -0.021  0.00  0.00    -0.330 N 
ATOM     19  C   UNL     1      -1.136  -4.714   0.634  0.00  0.00    +0.108 C 
ENDBRANCH   7  18
ENDBRANCH   5  10
ENDBRANCH   1   5
BRANCH   2  20
ATOM     20  C   UNL     1       3.031   3.760  -0.500  0.00  0.00    +0.227 C 
BRANCH  20  21
ATOM     21  N   UNL     1       3.051   5.106  -1.077  0.00  0.00    -0.191 N 
BRANCH  21  22
ATOM     22  C   UNL     1       3.121   5.272  -2.463  0.00  0.00    +0.087 A 
ATOM     23  C   UNL     1       1.963   5.236  -3.229  0.00  0.00    +0.027 A 
ATOM     24  C   UNL     1       2.036   5.403  -4.598  0.00  0.00    +0.002 A 
ATOM     25  C   UNL     1       3.261   5.599  -5.209  0.00  0.00    +0.003 A 
ATOM     26  C   UNL     1       4.418   5.631  -4.452  0.00  0.00    +0.040 A 
ATOM     27  C   UNL     1       4.352   5.468  -3.080  0.00  0.00    +0.146 A 
ATOM     28  F   UNL     1       5.482   5.499  -2.341  0.00  0.00    -0.203 F 
ENDBRANCH  21  22
BRANCH  21  29
ATOM     29  S   UNL     1       2.989   6.432  -0.086  0.00  0.00    +0.081 S 
ATOM     30  O   UNL     1       2.469   7.499  -0.868  0.00  0.00    -0.149 OA
ATOM     31  O   UNL     1       2.378   6.007   1.124  0.00  0.00    -0.149 OA
BRANCH  29  32
ATOM     32  C   UNL     1       4.650   6.862   0.312  0.00  0.00    +0.146 A 
ATOM     33  C   UNL     1       5.494   7.702  -0.337  0.00  0.00    +0.036 A 
ATOM     34  C   UNL     1       6.768   7.891   0.164  0.00  0.00    +0.010 A 
ATOM     35  C   UNL     1       7.137   7.231   1.290  0.00  0.00    +0.047 A 
ATOM     36  S   UNL     1       5.657   6.312   1.681  0.00  0.00    -0.077 S 
ENDBRANCH  29  32
ENDBRANCH  21  29
ENDBRANCH  20  21
ENDBRANCH   2  20
TORSDOF 8
