REMARK  Name = ZINC36306385
REMARK  16 active torsions:
REMARK  status: ('A' for Active; 'I' for Inactive)
REMARK    1  A    between atoms: C_1  and  C_2
REMARK    2  A    between atoms: C_2  and  O_3
REMARK    3  A    between atoms: O_3  and  C_4
REMARK    4  A    between atoms: C_4  and  C_5
REMARK    5  A    between atoms: C_5  and  C_7
REMARK    6  A    between atoms: C_5  and  O_36
REMARK    7  A    between atoms: C_7  and  N_8
REMARK    8  A    between atoms: N_8  and  C_9
REMARK    9  A    between atoms: N_8  and  C_15
REMARK   10  A    between atoms: C_9  and  C_10
REMARK   11  A    between atoms: C_15  and  C_16
REMARK   12  A    between atoms: C_17  and  C_30
REMARK   13  A    between atoms: N_19  and  C_29
REMARK   14  A    between atoms: C_20  and  O_21
REMARK   15  A    between atoms: O_21  and  C_22
REMARK   16  A    between atoms: C_26  and  C_28
REMARK                            x       y       z     vdW  Elec       q    Type
REMARK                         _______ _______ _______ _____ _____    ______ ____
ROOT
ATOM      1  C   UNL     1      -6.356  -5.745   0.560  0.00  0.00    +0.025 A 
ATOM      2  C   UNL     1      -6.771  -5.999   1.881  0.00  0.00    +0.098 A 
ATOM      3  N   UNL     1      -8.045  -6.331   1.853  0.00  0.00    -0.168 NA
ATOM      4  N   UNL     1      -8.478  -6.299   0.521  0.00  0.00    -0.235 N 
ATOM      5  C   UNL     1      -7.426  -5.931  -0.255  0.00  0.00    +0.221 A 
ATOM      6  C   UNL     1      -9.831  -6.604   0.049  0.00  0.00    +0.176 C 
ENDROOT
BRANCH   2   7
ATOM      7  C   UNL     1      -5.921  -5.909   3.094  0.00  0.00    +0.002 A 
ATOM      8  C   UNL     1      -4.627  -6.424   3.081  0.00  0.00    +0.010 A 
ATOM      9  C   UNL     1      -3.841  -6.337   4.212  0.00  0.00    +0.001 A 
ATOM     10  C   UNL     1      -4.335  -5.739   5.357  0.00  0.00    +0.000 A 
ATOM     11  C   UNL     1      -5.620  -5.226   5.375  0.00  0.00    +0.001 A 
ATOM     12  C   UNL     1      -6.413  -5.303   4.248  0.00  0.00    +0.010 A 
ENDBRANCH   2   7
BRANCH   1  13
ATOM     13  C   UNL     1      -4.972  -5.333   0.128  0.00  0.00    -0.035 C 
BRANCH  13  14
ATOM     14  N   UNL     1      -4.916  -3.872  -0.009  0.00  0.00    +0.389 N 
ATOM     15  H   UNL     1      -5.653  -3.563  -0.625  0.00  0.00    -0.081 HD
BRANCH  14  16
ATOM     16  C   UNL     1      -5.089  -3.250   1.311  0.00  0.00    -0.044 C 
BRANCH  16  17
ATOM     17  C   UNL     1      -5.236  -1.736   1.145  0.00  0.00    +0.124 C 
BRANCH  17  18
ATOM     18  O   UNL     1      -3.996  -1.183   0.698  0.00  0.00    -0.391 OA
ATOM     19  H   UNL     1      -3.257  -1.334   1.302  0.00  0.00    +0.210 HD
ENDBRANCH  17  18
BRANCH  17  20
ATOM     20  C   UNL     1      -5.617  -1.111   2.489  0.00  0.00    +0.189 C 
BRANCH  20  21
ATOM     21  O   UNL     1      -5.868   0.285   2.311  0.00  0.00    -0.378 OA
BRANCH  21  23
ATOM     22  C   UNL     1      -6.477   2.446   3.203  0.00  0.00    +0.034 C 
ATOM     23  C   UNL     1      -6.234   0.968   3.511  0.00  0.00    +0.156 C 
ENDBRANCH  21  23
ENDBRANCH  20  21
ENDBRANCH  17  20
ENDBRANCH  16  17
ENDBRANCH  14  16
BRANCH  14  24
ATOM     24  C   UNL     1      -3.615  -3.482  -0.567  0.00  0.00    -0.003 C 
BRANCH  24  25
ATOM     25  C   UNL     1      -3.455  -4.087  -1.938  0.00  0.00    +0.089 A 
ATOM     26  C   UNL     1      -3.764  -3.489  -3.103  0.00  0.00    +0.042 A 
ATOM     27  C   UNL     1      -3.457  -4.410  -4.131  0.00  0.00    +0.041 A 
ATOM     28  C   UNL     1      -2.979  -5.516  -3.533  0.00  0.00    +0.195 A 
ATOM     29  O   UNL     1      -2.974  -5.312  -2.205  0.00  0.00    -0.470 OA
ENDBRANCH  24  25
ENDBRANCH  14  24
ENDBRANCH  13  14
ENDBRANCH   1  13
BRANCH   5  30
ATOM     30  O   UNL     1      -7.440  -5.780  -1.604  0.00  0.00    -0.438 OA
BRANCH  30  31
ATOM     31  C   UNL     1      -7.221  -6.879  -2.372  0.00  0.00    +0.131 A 
ATOM     32  C   UNL     1      -7.099  -8.128  -1.779  0.00  0.00    +0.046 A 
ATOM     33  C   UNL     1      -6.877  -9.244  -2.562  0.00  0.00    +0.004 A 
ATOM     34  C   UNL     1      -6.774  -9.117  -3.935  0.00  0.00    +0.003 A 
ATOM     35  C   UNL     1      -6.894  -7.874  -4.528  0.00  0.00    -0.047 A 
ATOM     36  C   UNL     1      -7.123  -6.755  -3.750  0.00  0.00    +0.049 A 
ATOM     37  C   UNL     1      -6.781  -7.740  -6.025  0.00  0.00    +0.044 C 
ENDBRANCH  30  31
ENDBRANCH   5  30
TORSDOF 13
