REMARK  Name = ZINC35061807
REMARK  15 active torsions:
REMARK  status: ('A' for Active; 'I' for Inactive)
REMARK    1  A    between atoms: C_1  and  C_2
REMARK    2  A    between atoms: C_2  and  N_3
REMARK    3  A    between atoms: C_13  and  C_14
REMARK    4  A    between atoms: C_14  and  C_16
REMARK    5  A    between atoms: C_14  and  N_17
REMARK    6  A    between atoms: N_17  and  C_18
REMARK    7  A    between atoms: C_18  and  C_19
REMARK    8  A    between atoms: C_19  and  C_20
REMARK    9  A    between atoms: C_20  and  C_21
REMARK   10  A    between atoms: C_20  and  C_22
REMARK   11  A    between atoms: N_25  and  C_26
REMARK   12  A    between atoms: C_29  and  O_34
REMARK   13  A    between atoms: C_31  and  O_32
REMARK   14  A    between atoms: O_32  and  C_33
REMARK   15  A    between atoms: O_34  and  C_35
REMARK                            x       y       z     vdW  Elec       q    Type
REMARK                         _______ _______ _______ _____ _____    ______ ____
ROOT
ATOM      1  N   UNL     1      -1.858  -0.718   3.923  0.00  0.00    -0.276 N 
ATOM      2  C   UNL     1      -2.831  -1.642   4.053  0.00  0.00    +0.307 C 
ATOM      3  O   UNL     1      -3.107  -2.370   3.120  0.00  0.00    -0.252 OA
ATOM      4  N   UNL     1      -3.498  -1.757   5.219  0.00  0.00    -0.266 N 
ATOM      5  H   UNL     1      -3.327  -1.132   5.940  0.00  0.00    +0.156 HD
ENDROOT
BRANCH   4   6
ATOM      6  C   UNL     1      -4.441  -2.784   5.389  0.00  0.00    +0.077 A 
ATOM      7  C   UNL     1      -5.133  -3.279   4.295  0.00  0.00    +0.030 A 
ATOM      8  C   UNL     1      -6.062  -4.289   4.462  0.00  0.00    +0.047 A 
ATOM      9  C   UNL     1      -6.303  -4.809   5.725  0.00  0.00    +0.124 A 
ATOM     10  C   UNL     1      -5.612  -4.318   6.823  0.00  0.00    +0.093 A 
ATOM     11  C   UNL     1      -4.677  -3.310   6.657  0.00  0.00    +0.145 A 
BRANCH  11  12
ATOM     12  O   UNL     1      -3.995  -2.830   7.731  0.00  0.00    -0.493 OA
ATOM     13  C   UNL     1      -4.288  -3.417   9.001  0.00  0.00    +0.277 C 
ENDBRANCH  11  12
BRANCH   9  14
ATOM     14  O   UNL     1      -7.217  -5.803   5.887  0.00  0.00    -0.495 OA
ATOM     15  C   UNL     1      -7.891  -6.261   4.713  0.00  0.00    +0.277 C 
ENDBRANCH   9  14
ENDBRANCH   4   6
BRANCH   1  16
ATOM     16  C   UNL     1      -1.134  -0.592   2.656  0.00  0.00    +0.141 C 
ATOM     17  C   UNL     1      -1.329   0.818   2.095  0.00  0.00    +0.036 C 
BRANCH  16  28
ATOM     18  N   UNL     1       0.900  -1.940   2.326  0.00  0.00    -0.295 N 
ATOM     19  C   UNL     1       2.215  -2.205   2.502  0.00  0.00    +0.262 A 
ATOM     20  O   UNL     1       2.736  -3.183   1.998  0.00  0.00    -0.267 OA
ATOM     21  C   UNL     1       2.991  -1.265   3.324  0.00  0.00    +0.065 A 
ATOM     22  C   UNL     1       4.351  -1.446   3.565  0.00  0.00    +0.015 A 
ATOM     23  C   UNL     1       5.030  -0.533   4.343  0.00  0.00    +0.001 A 
ATOM     24  C   UNL     1       4.370   0.561   4.886  0.00  0.00    +0.002 A 
ATOM     25  C   UNL     1       3.026   0.758   4.659  0.00  0.00    +0.028 A 
ATOM     26  C   UNL     1       2.317  -0.152   3.874  0.00  0.00    +0.078 A 
ATOM     27  N   UNL     1       0.992   0.003   3.625  0.00  0.00    -0.232 NA
ATOM     28  C   UNL     1       0.334  -0.841   2.890  0.00  0.00    +0.133 A 
BRANCH  18  30
ATOM     29  C   UNL     1       0.011  -2.321   0.080  0.00  0.00    +0.027 C 
ATOM     30  C   UNL     1       0.079  -2.844   1.516  0.00  0.00    +0.123 C 
ENDBRANCH  18  30
ENDBRANCH  16  28
ENDBRANCH   1  16
BRANCH   1  31
ATOM     31  C   UNL     1      -1.526   0.160   5.047  0.00  0.00    +0.110 C 
BRANCH  31  32
ATOM     32  C   UNL     1      -2.383   1.425   4.978  0.00  0.00    +0.022 C 
BRANCH  32  33
ATOM     33  C   UNL     1      -2.035   2.342   6.152  0.00  0.00    -0.016 C 
ATOM     34  C   UNL     1      -2.801   3.660   6.014  0.00  0.00    +0.007 C 
ATOM     35  C   UNL     1      -2.427   1.660   7.465  0.00  0.00    +0.007 C 
ENDBRANCH  32  33
ENDBRANCH  31  32
ENDBRANCH   1  31
TORSDOF 9
