REMARK  Name = ZINC27819223
REMARK  4 active torsions:
REMARK  status: ('A' for Active; 'I' for Inactive)
REMARK    1  A    between atoms: C_1  and  C_2
REMARK    2  A    between atoms: C_2  and  C_4
REMARK    3  A    between atoms: C_2  and  N_10
REMARK    4  A    between atoms: C_18  and  C_21
REMARK                            x       y       z     vdW  Elec       q    Type
REMARK                         _______ _______ _______ _____ _____    ______ ____
ROOT
ATOM      1  N   UNL     1      -3.610   3.127   0.052  0.00  0.00    -0.321 N 
ATOM      2  C   UNL     1      -2.394   3.776   0.044  0.00  0.00    +0.150 A 
ATOM      3  C   UNL     1      -1.179   3.044   0.029  0.00  0.00    +0.147 A 
ATOM      4  C   UNL     1       0.037   3.771   0.021  0.00  0.00    +0.184 A 
ATOM      5  N   UNL     1      -0.014   5.111   0.030  0.00  0.00    -0.214 NA
ATOM      6  C   UNL     1      -1.169   5.735   0.044  0.00  0.00    +0.225 A 
ATOM      7  N   UNL     1      -2.329   5.100   0.051  0.00  0.00    -0.219 NA
ATOM      8  N   UNL     1       1.198   3.114   0.007  0.00  0.00    -0.224 NA
ATOM      9  C   UNL     1       1.199   1.790   0.000  0.00  0.00    +0.091 A 
ATOM     10  C   UNL     1      -0.013   1.076   0.008  0.00  0.00    +0.140 A 
ATOM     11  N   UNL     1      -1.161   1.712   0.017  0.00  0.00    -0.246 NA
ATOM     12  H   UNL     1      -3.647   2.027   0.045  0.00  0.00    +0.148 HD
ENDROOT
BRANCH   9  13
ATOM     13  C   UNL     1       2.485   1.055  -0.015  0.00  0.00    +0.002 A 
ATOM     14  C   UNL     1       2.495  -0.339  -0.017  0.00  0.00    +0.013 A 
ATOM     15  C   UNL     1       3.695  -1.019  -0.036  0.00  0.00    +0.039 A 
ATOM     16  C   UNL     1       4.890  -0.318  -0.045  0.00  0.00    +0.123 A 
ATOM     17  C   UNL     1       4.886   1.068  -0.038  0.00  0.00    +0.039 A 
ATOM     18  C   UNL     1       3.691   1.756  -0.023  0.00  0.00    +0.013 A 
ATOM     19  F   UNL     1       6.064  -0.987  -0.059  0.00  0.00    -0.205 F 
ENDBRANCH   9  13
BRANCH   1  21
ATOM     20  C   UNL     1      -5.207   4.269   1.510  0.00  0.00    +0.033 C 
ATOM     21  C   UNL     1      -4.854   3.901   0.068  0.00  0.00    +0.099 C 
BRANCH  21  22
ATOM     22  C   UNL     1      -5.966   3.078  -0.528  0.00  0.00    -0.028 A 
ATOM     23  C   UNL     1      -6.053   1.727  -0.247  0.00  0.00    +0.005 A 
ATOM     24  C   UNL     1      -7.076   0.972  -0.789  0.00  0.00    +0.000 A 
ATOM     25  C   UNL     1      -8.007   1.566  -1.620  0.00  0.00    +0.000 A 
ATOM     26  C   UNL     1      -7.918   2.916  -1.905  0.00  0.00    +0.000 A 
ATOM     27  C   UNL     1      -6.897   3.672  -1.359  0.00  0.00    +0.005 A 
ENDBRANCH  21  22
ENDBRANCH   1  21
TORSDOF 3
