REMARK  Name = ZINC39193189
REMARK  11 active torsions:
REMARK  status: ('A' for Active; 'I' for Inactive)
REMARK    1  A    between atoms: C_1  and  C_2
REMARK    2  A    between atoms: C_2  and  C_3
REMARK    3  A    between atoms: C_2  and  C_4
REMARK    4  A    between atoms: C_4  and  C_6
REMARK    5  A    between atoms: C_4  and  N_30
REMARK    6  A    between atoms: C_6  and  O_8
REMARK    7  A    between atoms: O_8  and  C_9
REMARK    8  A    between atoms: C_9  and  C_10
REMARK    9  A    between atoms: C_13  and  C_25
REMARK   10  A    between atoms: C_16  and  C_18
REMARK   11  A    between atoms: C_31  and  C_33
REMARK                            x       y       z     vdW  Elec       q    Type
REMARK                         _______ _______ _______ _____ _____    ______ ____
ROOT
ATOM      1  C   UNL     1      -0.116  -4.709   2.126  0.00  0.00    +0.273 C 
ATOM      2  O   UNL     1       0.363  -3.968   2.959  0.00  0.00    -0.270 OA
ATOM      3  N   UNL     1      -0.008  -6.045   2.271  0.00  0.00    -0.179 N 
ATOM      4  C   UNL     1       0.656  -6.734   3.389  0.00  0.00    +0.173 C 
ATOM      5  C   UNL     1       0.482  -8.227   3.047  0.00  0.00    +0.090 C 
ATOM      6  C   UNL     1      -0.281  -8.216   1.742  0.00  0.00    +0.069 C 
ATOM      7  N   UNL     1      -0.513  -6.999   1.389  0.00  0.00    -0.181 NA
ENDROOT
BRANCH   6   8
ATOM      8  C   UNL     1      -0.699  -9.414   0.991  0.00  0.00    -0.002 A 
ATOM      9  C   UNL     1      -0.399 -10.688   1.479  0.00  0.00    +0.011 A 
ATOM     10  C   UNL     1      -0.794 -11.804   0.771  0.00  0.00    +0.020 A 
ATOM     11  C   UNL     1      -1.486 -11.664  -0.420  0.00  0.00    +0.041 A 
ATOM     12  C   UNL     1      -1.786 -10.404  -0.909  0.00  0.00    +0.020 A 
ATOM     13  C   UNL     1      -1.402  -9.279  -0.209  0.00  0.00    +0.011 A 
ATOM     14 CL   UNL     1      -1.978 -13.074  -1.305  0.00  0.00    -0.084 Cl
ENDBRANCH   6   8
BRANCH   4  15
ATOM     15  C   UNL     1      -0.021  -6.402   4.693  0.00  0.00    +0.128 A 
ATOM     16  C   UNL     1       0.598  -6.189   5.869  0.00  0.00    +0.046 A 
ATOM     17  C   UNL     1      -0.412  -5.912   6.819  0.00  0.00    +0.041 A 
ATOM     18  C   UNL     1      -1.587  -5.971   6.167  0.00  0.00    +0.195 A 
ATOM     19  O   UNL     1      -1.344  -6.263   4.879  0.00  0.00    -0.466 OA
ENDBRANCH   4  15
BRANCH   1  20
ATOM     20  C   UNL     1      -0.832  -4.136   0.930  0.00  0.00    +0.329 C 
BRANCH  20  21
ATOM     21  O   UNL     1      -0.813  -2.709   1.002  0.00  0.00    -0.454 OA
BRANCH  21  22
ATOM     22  C   UNL     1      -1.413  -2.041   0.005  0.00  0.00    +0.328 C 
ATOM     23  O   UNL     1      -1.936  -2.647  -0.900  0.00  0.00    -0.249 OA
BRANCH  22  24
ATOM     24  C   UNL     1      -1.433  -0.534   0.013  0.00  0.00    +0.185 C 
BRANCH  24  25
ATOM     25  N   UNL     1      -2.142  -0.048  -1.174  0.00  0.00    -0.296 N 
ATOM     26  C   UNL     1      -2.727   1.166  -1.160  0.00  0.00    +0.280 C 
ATOM     27  O   UNL     1      -2.667   1.859  -0.162  0.00  0.00    -0.267 OA
ATOM     28  H   UNL     1      -2.190  -0.601  -1.970  0.00  0.00    +0.150 HD
BRANCH  26  29
ATOM     29  C   UNL     1      -3.436   1.652  -2.348  0.00  0.00    +0.189 A 
ATOM     30  C   UNL     1      -4.065   2.857  -2.470  0.00  0.00    +0.054 A 
ATOM     31  C   UNL     1      -4.604   2.902  -3.765  0.00  0.00    +0.042 A 
ATOM     32  C   UNL     1      -4.285   1.737  -4.370  0.00  0.00    +0.196 A 
ATOM     33  O   UNL     1      -3.577   0.988  -3.514  0.00  0.00    -0.458 OA
ENDBRANCH  26  29
ENDBRANCH  24  25
BRANCH  24  35
ATOM     34  C   UNL     1      -0.019   1.526   0.010  0.00  0.00    +0.009 C 
ATOM     35  C   UNL     1       0.002  -0.004   0.002  0.00  0.00    +0.014 C 
ATOM     36  C   UNL     1       0.742  -0.511   1.242  0.00  0.00    +0.009 C 
ENDBRANCH  24  35
ENDBRANCH  22  24
ENDBRANCH  21  22
ENDBRANCH  20  21
ENDBRANCH   1  20
TORSDOF 9
