REMARK  Name = ZINC45834885
REMARK  5 active torsions:
REMARK  status: ('A' for Active; 'I' for Inactive)
REMARK    1  A    between atoms: C_1  and  C_2
REMARK    2  A    between atoms: C_2  and  C_3
REMARK    3  A    between atoms: C_2  and  N_13
REMARK    4  A    between atoms: C_6  and  N_9
REMARK    5  A    between atoms: C_14  and  C_16
REMARK                            x       y       z     vdW  Elec       q    Type
REMARK                         _______ _______ _______ _____ _____    ______ ____
ROOT
ATOM      1  C   UNL     1      -0.226   1.488  -0.086  0.00  0.00    +0.033 C 
ATOM      2  C   UNL     1      -0.015  -0.025   0.001  0.00  0.00    +0.100 C 
ENDROOT
BRANCH   2   3
ATOM      3  C   UNL     1       0.695  -0.506  -1.239  0.00  0.00    -0.027 A 
ATOM      4  C   UNL     1      -0.015  -0.701  -2.409  0.00  0.00    +0.007 A 
ATOM      5  C   UNL     1       0.632  -1.141  -3.547  0.00  0.00    +0.023 A 
ATOM      6  C   UNL     1       1.998  -1.388  -3.515  0.00  0.00    +0.035 A 
ATOM      7  C   UNL     1       2.709  -1.190  -2.338  0.00  0.00    +0.023 A 
ATOM      8  C   UNL     1       2.057  -0.745  -1.205  0.00  0.00    +0.007 A 
BRANCH   6   9
ATOM      9  N   UNL     1       2.657  -1.834  -4.666  0.00  0.00    -0.270 N 
ATOM     10  C   UNL     1       2.245  -1.423  -5.881  0.00  0.00    +0.301 C 
ATOM     11  O   UNL     1       1.364  -0.590  -5.974  0.00  0.00    -0.253 OA
ATOM     12  N   UNL     1       2.809  -1.934  -6.993  0.00  0.00    -0.313 N 
ATOM     13  H   UNL     1       3.411  -2.440  -4.589  0.00  0.00    +0.156 HD
ATOM     14  H   UNL     1       3.511  -2.599  -6.919  0.00  0.00    +0.146 HD
ATOM     15  H   UNL     1       2.512  -1.638  -7.868  0.00  0.00    +0.146 HD
ENDBRANCH   6   9
ENDBRANCH   2   3
BRANCH   2  16
ATOM     16  N   UNL     1      -1.313  -0.694   0.110  0.00  0.00    -0.304 N 
ATOM     17  C   UNL     1      -1.899  -0.836   1.315  0.00  0.00    +0.251 C 
ATOM     18  O   UNL     1      -1.349  -0.409   2.313  0.00  0.00    -0.270 OA
ATOM     19  H   UNL     1      -1.752  -1.034  -0.686  0.00  0.00    +0.150 HD
BRANCH  17  20
ATOM     20  C   UNL     1      -3.199  -1.506   1.425  0.00  0.00    +0.074 A 
ATOM     21  C   UNL     1      -3.963  -1.747   2.549  0.00  0.00    +0.024 A 
ATOM     22  C   UNL     1      -5.171  -2.412   2.361  0.00  0.00    -0.036 A 
ATOM     23  C   UNL     1      -5.479  -2.761   1.084  0.00  0.00    -0.006 A 
ATOM     24  S   UNL     1      -4.210  -2.214   0.140  0.00  0.00    -0.088 S 
ATOM     25  C   UNL     1      -6.700  -3.485   0.598  0.00  0.00    +0.043 C 
ATOM     26  C   UNL     1      -7.876  -3.189   1.535  0.00  0.00    +0.005 C 
ATOM     27  C   UNL     1      -7.882  -4.228   2.652  0.00  0.00    +0.001 C 
ATOM     28  C   UNL     1      -6.587  -4.159   3.457  0.00  0.00    +0.005 C 
ATOM     29  C   UNL     1      -6.088  -2.721   3.541  0.00  0.00    +0.036 C 
ENDBRANCH  17  20
ENDBRANCH   2  16
TORSDOF 4
