REMARK  Name = ZINC15600210
REMARK  5 active torsions:
REMARK  status: ('A' for Active; 'I' for Inactive)
REMARK    1  A    between atoms: C_1  and  C_2
REMARK    2  A    between atoms: C_2  and  C_4
REMARK    3  A    between atoms: C_7  and  N_10
REMARK    4  A    between atoms: C_11  and  C_13
REMARK    5  A    between atoms: C_14  and  C_15
REMARK                            x       y       z     vdW  Elec       q    Type
REMARK                         _______ _______ _______ _____ _____    ______ ____
ROOT
ATOM      1  N   UNL     1      -0.005  -2.789  -4.882  0.00  0.00    -0.282 N 
ATOM      2  C   UNL     1       0.110  -4.132  -4.893  0.00  0.00    +0.241 C 
ATOM      3  O   UNL     1       0.123  -4.749  -3.844  0.00  0.00    -0.270 OA
ATOM      4  H   UNL     1      -0.093  -2.303  -5.717  0.00  0.00    +0.155 HD
ENDROOT
BRANCH   1   8
ATOM      5  C   UNL     1       0.019  -0.729  -1.275  0.00  0.00    +0.017 A 
ATOM      6  C   UNL     1       0.785  -1.892  -1.425  0.00  0.00    +0.013 A 
ATOM      7  C   UNL     1       0.774  -2.566  -2.613  0.00  0.00    +0.024 A 
ATOM      8  C   UNL     1       0.003  -2.099  -3.674  0.00  0.00    +0.034 A 
ATOM      9  C   UNL     1      -0.761  -0.943  -3.529  0.00  0.00    +0.024 A 
ATOM     10  C   UNL     1      -0.760  -0.266  -2.343  0.00  0.00    +0.013 A 
BRANCH   5  12
ATOM     11  C   UNL     1       0.866  -0.502   1.148  0.00  0.00    +0.091 C 
ATOM     12  C   UNL     1       0.027  -0.002   0.001  0.00  0.00    +0.160 C 
ATOM     13  O   UNL     1      -0.641   1.003   0.130  0.00  0.00    -0.292 OA
ENDBRANCH   5  12
ENDBRANCH   1   8
BRANCH   2  14
ATOM     14  C   UNL     1       0.217  -4.846  -6.163  0.00  0.00    +0.068 C 
ATOM     15  C   UNL     1       0.332  -6.192  -6.174  0.00  0.00    +0.013 C 
BRANCH  15  16
ATOM     16  C   UNL     1       0.441  -6.910  -7.451  0.00  0.00    -0.020 A 
ATOM     17  C   UNL     1       0.554  -8.305  -7.465  0.00  0.00    +0.057 A 
ATOM     18  C   UNL     1       0.656  -8.976  -8.667  0.00  0.00    +0.168 A 
ATOM     19  C   UNL     1       0.646  -8.264  -9.868  0.00  0.00    +0.184 A 
ATOM     20  C   UNL     1       0.532  -6.879  -9.855  0.00  0.00    +0.087 A 
ATOM     21  C   UNL     1       0.425  -6.202  -8.658  0.00  0.00    +0.031 A 
ATOM     22 CL   UNL     1       0.520  -5.998 -11.351  0.00  0.00    -0.080 Cl
ATOM     23  O   UNL     1       0.758  -9.149 -10.899  0.00  0.00    -0.451 OA
ATOM     24  C   UNL     1       1.248 -10.367 -10.310  0.00  0.00    +0.466 C 
ATOM     25  O   UNL     1       0.775 -10.306  -8.952  0.00  0.00    -0.453 OA
ENDBRANCH  15  16
ENDBRANCH   2  14
TORSDOF 4
