REMARK  Name = ZINC51115338
REMARK  5 active torsions:
REMARK  status: ('A' for Active; 'I' for Inactive)
REMARK    1  A    between atoms: C_4  and  C_7
REMARK    2  A    between atoms: C_10  and  N_12
REMARK    3  A    between atoms: C_13  and  C_15
REMARK    4  A    between atoms: C_20  and  N_21
REMARK    5  A    between atoms: N_21  and  N_22
REMARK                            x       y       z     vdW  Elec       q    Type
REMARK                         _______ _______ _______ _____ _____    ______ ____
ROOT
ATOM      1  N   UNL     1       2.950  -1.700  -2.259  0.00  0.00    -0.308 N 
ATOM      2  C   UNL     1       3.277  -2.090  -3.507  0.00  0.00    +0.248 C 
ATOM      3  O   UNL     1       4.435  -2.342  -3.781  0.00  0.00    -0.270 OA
ATOM      4  H   UNL     1       2.027  -1.498  -2.041  0.00  0.00    +0.149 HD
ENDROOT
BRANCH   2   5
ATOM      5  C   UNL     1       2.232  -2.212  -4.539  0.00  0.00    +0.079 A 
ATOM      6  C   UNL     1       0.882  -2.045  -4.210  0.00  0.00    +0.033 A 
ATOM      7  C   UNL     1      -0.061  -2.169  -5.216  0.00  0.00    +0.037 A 
ATOM      8  C   UNL     1       0.353  -2.451  -6.506  0.00  0.00    +0.128 A 
ATOM      9  N   UNL     1       1.630  -2.604  -6.796  0.00  0.00    -0.237 NA
ATOM     10  C   UNL     1       2.573  -2.491  -5.873  0.00  0.00    +0.144 A 
ATOM     11 BR   UNL     1      -1.899  -1.955  -4.830  0.00  0.00    -0.049 Br
BRANCH  10  12
ATOM     12  N   UNL     1       3.901  -2.654  -6.224  0.00  0.00    -0.267 N 
ATOM     13  H   UNL     1       4.587  -2.656  -5.538  0.00  0.00    +0.167 HD
BRANCH  12  14
ATOM     14  N   UNL     1       4.247  -2.814  -7.536  0.00  0.00    -0.255 NA
ATOM     15  H   UNL     1       3.908  -2.046  -8.095  0.00  0.00    +0.140 HD
ATOM     16  H   UNL     1       5.245  -2.921  -7.636  0.00  0.00    +0.140 HD
ENDBRANCH  12  14
ENDBRANCH  10  12
ENDBRANCH   2   5
BRANCH   1  19
ATOM     17  C   UNL     1       3.725  -0.620  -0.070  0.00  0.00    +0.041 C 
ATOM     18  C   UNL     1       3.675  -2.132   0.159  0.00  0.00    +0.033 C 
ATOM     19  C   UNL     1       3.989  -1.579  -1.233  0.00  0.00    +0.081 C 
BRANCH  17  23
ATOM     20  C   UNL     1       0.016   1.500  -0.066  0.00  0.00    +0.000 A 
ATOM     21  C   UNL     1       1.210   2.196  -0.087  0.00  0.00    +0.000 A 
ATOM     22  C   UNL     1       2.410   1.510  -0.089  0.00  0.00    +0.004 A 
ATOM     23  C   UNL     1       2.417   0.128  -0.068  0.00  0.00    -0.042 A 
ATOM     24  C   UNL     1       1.223  -0.569  -0.046  0.00  0.00    +0.004 A 
ATOM     25  C   UNL     1       0.022   0.117  -0.046  0.00  0.00    +0.000 A 
ENDBRANCH  17  23
ENDBRANCH   1  19
TORSDOF 5
