REMARK  Name = ZINC18119506
REMARK  7 active torsions:
REMARK  status: ('A' for Active; 'I' for Inactive)
REMARK    1  A    between atoms: C_1  and  C_2
REMARK    2  A    between atoms: C_5  and  N_8
REMARK    3  A    between atoms: C_13  and  C_27
REMARK    4  A    between atoms: N_15  and  C_21
REMARK    5  A    between atoms: C_27  and  C_28
REMARK    6  A    between atoms: C_28  and  C_29
REMARK    7  A    between atoms: C_28  and  C_30
REMARK                            x       y       z     vdW  Elec       q    Type
REMARK                         _______ _______ _______ _____ _____    ______ ____
ROOT
ATOM      1  N   UNL     1       0.232  -4.341  -0.465  0.00  0.00    -0.208 N 
ATOM      2  C   UNL     1       0.105  -5.015   0.724  0.00  0.00    +0.234 C 
ATOM      3  O   UNL     1      -0.264  -4.570   1.789  0.00  0.00    -0.274 OA
ATOM      4  C   UNL     1       0.508  -6.368   0.427  0.00  0.00    +0.141 C 
ATOM      5  C   UNL     1       0.343  -7.734   0.952  0.00  0.00    +0.127 C 
ATOM      6  N   UNL     1       0.596  -8.574  -0.262  0.00  0.00    -0.248 N 
ATOM      7  O   UNL     1       0.799  -7.678  -1.378  0.00  0.00    -0.258 OA
ATOM      8  C   UNL     1      -0.023  -6.543  -1.052  0.00  0.00    +0.249 C 
ATOM      9  C   UNL     1       0.391  -5.178  -1.531  0.00  0.00    +0.258 C 
ATOM     10  O   UNL     1       0.787  -4.884  -2.638  0.00  0.00    -0.272 OA
ENDROOT
BRANCH   1  15
ATOM     11  C   UNL     1       0.086   1.316  -0.903  0.00  0.00    +0.044 C 
ATOM     12  C   UNL     1       0.124  -0.186  -0.787  0.00  0.00    -0.050 A 
ATOM     13  C   UNL     1       0.291  -0.962  -1.919  0.00  0.00    +0.005 A 
ATOM     14  C   UNL     1       0.327  -2.339  -1.816  0.00  0.00    +0.024 A 
ATOM     15  C   UNL     1       0.197  -2.944  -0.573  0.00  0.00    +0.044 A 
ATOM     16  C   UNL     1       0.030  -2.162   0.562  0.00  0.00    +0.024 A 
ATOM     17  C   UNL     1      -0.000  -0.786   0.453  0.00  0.00    +0.005 A 
ENDBRANCH   1  15
BRANCH   6  18
ATOM     18  C   UNL     1       0.629  -9.970  -0.308  0.00  0.00    +0.065 A 
ATOM     19  C   UNL     1      -0.467 -10.707   0.122  0.00  0.00    +0.028 A 
ATOM     20  C   UNL     1      -0.430 -12.087   0.076  0.00  0.00    +0.002 A 
ATOM     21  C   UNL     1       0.696 -12.735  -0.398  0.00  0.00    +0.000 A 
ATOM     22  C   UNL     1       1.788 -12.004  -0.826  0.00  0.00    +0.002 A 
ATOM     23  C   UNL     1       1.757 -10.624  -0.788  0.00  0.00    +0.028 A 
ENDBRANCH   6  18
BRANCH   5  24
ATOM     24  C   UNL     1       1.372  -8.025   2.045  0.00  0.00    +0.031 C 
BRANCH  24  25
ATOM     25  C   UNL     1       1.079  -9.390   2.671  0.00  0.00    -0.015 C 
ATOM     26  C   UNL     1       2.189  -9.746   3.662  0.00  0.00    +0.007 C 
ATOM     27  C   UNL     1      -0.262  -9.337   3.405  0.00  0.00    +0.007 C 
ENDBRANCH  24  25
ENDBRANCH   5  24
TORSDOF 4
