REMARK  Name = ZINC22385402
REMARK  13 active torsions:
REMARK  status: ('A' for Active; 'I' for Inactive)
REMARK    1  A    between atoms: C_1  and  C_2
REMARK    2  A    between atoms: C_5  and  C_8
REMARK    3  A    between atoms: C_8  and  N_9
REMARK    4  A    between atoms: C_10  and  C_12
REMARK    5  A    between atoms: C_12  and  N_13
REMARK    6  A    between atoms: N_13  and  C_14
REMARK    7  A    between atoms: N_13  and  S_24
REMARK    8  A    between atoms: C_18  and  C_20
REMARK    9  A    between atoms: S_24  and  C_27
REMARK   10  A    between atoms: C_30  and  O_35
REMARK   11  A    between atoms: C_31  and  O_33
REMARK   12  A    between atoms: O_33  and  C_34
REMARK   13  A    between atoms: O_35  and  C_36
REMARK                            x       y       z     vdW  Elec       q    Type
REMARK                         _______ _______ _______ _____ _____    ______ ____
ROOT
ATOM      1  N   UNL     1      -0.069   5.239   0.030  0.00  0.00    -0.194 N 
ENDROOT
BRANCH   1   2
ATOM      2  C   UNL     1      -0.046   3.843   0.034  0.00  0.00    +0.052 A 
ATOM      3  C   UNL     1      -0.962   3.129  -0.729  0.00  0.00    +0.025 A 
ATOM      4  C   UNL     1      -0.936   1.749  -0.723  0.00  0.00    +0.002 A 
ATOM      5  C   UNL     1      -0.001   1.076   0.042  0.00  0.00    +0.012 A 
ATOM      6  C   UNL     1       0.908   1.783   0.807  0.00  0.00    +0.057 A 
ATOM      7  C   UNL     1       0.892   3.164   0.801  0.00  0.00    +0.037 A 
BRANCH   6   8
ATOM      8  C   UNL     1       1.921   1.045   1.645  0.00  0.00    +0.417 C 
ATOM      9  F   UNL     1       1.745  -0.333   1.483  0.00  0.00    -0.166 F 
ATOM     10  F   UNL     1       3.211   1.401   1.236  0.00  0.00    -0.166 F 
ATOM     11  F   UNL     1       1.748   1.383   2.991  0.00  0.00    -0.166 F 
ENDBRANCH   6   8
ENDBRANCH   1   2
BRANCH   1  12
ATOM     12  S   UNL     1       1.262   6.088  -0.469  0.00  0.00    +0.075 S 
ATOM     13  O   UNL     1       1.248   7.320   0.239  0.00  0.00    -0.150 OA
ATOM     14  O   UNL     1       2.362   5.189  -0.411  0.00  0.00    -0.150 OA
BRANCH  12  15
ATOM     15  C   UNL     1       1.022   6.481  -2.170  0.00  0.00    +0.112 A 
ATOM     16  C   UNL     1       1.469   5.613  -3.148  0.00  0.00    +0.032 A 
ATOM     17  C   UNL     1       1.278   5.914  -4.484  0.00  0.00    +0.051 A 
ATOM     18  C   UNL     1       0.647   7.094  -4.844  0.00  0.00    +0.162 A 
ATOM     19  C   UNL     1       0.202   7.970  -3.860  0.00  0.00    +0.163 A 
ATOM     20  C   UNL     1       0.392   7.660  -2.523  0.00  0.00    +0.078 A 
BRANCH  19  21
ATOM     21  O   UNL     1      -0.418   9.129  -4.209  0.00  0.00    -0.491 OA
ATOM     22  C   UNL     1      -0.848   9.981  -3.145  0.00  0.00    +0.277 C 
ENDBRANCH  19  21
BRANCH  18  23
ATOM     23  O   UNL     1       0.464   7.394  -6.158  0.00  0.00    -0.491 OA
ATOM     24  C   UNL     1       0.946   6.448  -7.114  0.00  0.00    +0.277 C 
ENDBRANCH  18  23
ENDBRANCH  12  15
ENDBRANCH   1  12
BRANCH   1  25
ATOM     25  C   UNL     1      -1.271   5.953   0.468  0.00  0.00    +0.227 C 
BRANCH  25  27
ATOM     26  N   UNL     1      -2.261   6.730   2.598  0.00  0.00    -0.310 N 
ATOM     27  C   UNL     1      -1.249   6.101   1.968  0.00  0.00    +0.232 C 
ATOM     28  O   UNL     1      -0.321   5.655   2.608  0.00  0.00    -0.274 OA
ATOM     29  H   UNL     1      -3.103   7.136   2.017  0.00  0.00    +0.149 HD
BRANCH  26  30
ATOM     30  C   UNL     1      -2.240   6.874   4.055  0.00  0.00    +0.139 C 
BRANCH  30  35
ATOM     31  C   UNL     1      -6.981   9.691   5.783  0.00  0.00    +0.044 C 
ATOM     32  C   UNL     1      -5.744   8.956   5.333  0.00  0.00    -0.050 A 
ATOM     33  C   UNL     1      -5.756   7.577   5.237  0.00  0.00    +0.003 A 
ATOM     34  C   UNL     1      -4.622   6.904   4.824  0.00  0.00    +0.005 A 
ATOM     35  C   UNL     1      -3.476   7.609   4.506  0.00  0.00    -0.030 A 
ATOM     36  C   UNL     1      -3.463   8.988   4.606  0.00  0.00    +0.005 A 
ATOM     37  C   UNL     1      -4.599   9.662   5.015  0.00  0.00    +0.003 A 
ENDBRANCH  30  35
ENDBRANCH  26  30
ENDBRANCH  25  27
ENDBRANCH   1  25
TORSDOF 10
