REMARK  Name = ZINC31159994
REMARK  14 active torsions:
REMARK  status: ('A' for Active; 'I' for Inactive)
REMARK    1  A    between atoms: C_1  and  C_2
REMARK    2  A    between atoms: C_7  and  C_25
REMARK    3  A    between atoms: C_7  and  C_26
REMARK    4  A    between atoms: C_20  and  C_22
REMARK    5  A    between atoms: C_20  and  O_24
REMARK    6  A    between atoms: C_22  and  O_23
REMARK    7  A    between atoms: C_26  and  O_27
REMARK    8  A    between atoms: O_27  and  C_28
REMARK    9  A    between atoms: C_28  and  C_30
REMARK   10  A    between atoms: C_30  and  C_31
REMARK   11  A    between atoms: C_31  and  C_32
REMARK   12  A    between atoms: C_31  and  C_33
REMARK   13  A    between atoms: C_31  and  O_37
REMARK   14  A    between atoms: C_33  and  C_34
REMARK                            x       y       z     vdW  Elec       q    Type
REMARK                         _______ _______ _______ _____ _____    ______ ____
ROOT
ATOM      1  C   UNL     1       2.333   2.585   2.673  0.00  0.00    +0.012 C 
ATOM      2  C   UNL     1       1.028   2.951   3.369  0.00  0.00    -0.025 C 
ATOM      3  C   UNL     1       1.238   4.269   4.137  0.00  0.00    +0.015 C 
ATOM      4  C   UNL     1       2.376   4.116   5.142  0.00  0.00    +0.075 C 
ATOM      5  C   UNL     1       2.090   2.957   6.059  0.00  0.00    +0.143 C 
ATOM      6  O   UNL     1       2.315   3.061   7.249  0.00  0.00    -0.297 OA
ATOM      7  C   UNL     1       1.533   1.657   5.530  0.00  0.00    +0.063 C 
ATOM      8  C   UNL     1       0.596   1.874   4.358  0.00  0.00    +0.012 C 
ATOM      9  C   UNL     1       0.310   0.570   3.614  0.00  0.00    +0.006 C 
ATOM     10  C   UNL     1      -0.921   0.799   2.729  0.00  0.00    +0.007 C 
ATOM     11  C   UNL     1      -0.677   1.919   1.745  0.00  0.00    -0.023 C 
ATOM     12  C   UNL     1      -0.094   3.185   2.362  0.00  0.00    +0.002 C 
ATOM     13  C   UNL     1       0.340   4.110   1.227  0.00  0.00    +0.005 C 
ATOM     14  C   UNL     1      -0.819   4.364   0.265  0.00  0.00    +0.007 C 
ATOM     15  C   UNL     1      -1.541   3.086  -0.157  0.00  0.00    +0.024 C 
ATOM     16  C   UNL     1      -2.039   2.372   1.134  0.00  0.00    +0.013 C 
ATOM     17  C   UNL     1      -0.548   2.042  -0.714  0.00  0.00    +0.092 C 
ATOM     18  C   UNL     1       0.149   1.461   0.535  0.00  0.00    +0.044 C 
ATOM     19  C   UNL     1       2.681   0.701   5.200  0.00  0.00    +0.023 C 
ENDROOT
BRANCH  17  20
ATOM     20  O   UNL     1      -1.273   0.996  -1.380  0.00  0.00    -0.386 OA
ATOM     21  H   UNL     1      -0.730   0.159  -1.842  0.00  0.00    +0.210 HD
ENDBRANCH  17  20
BRANCH  17  22
ATOM     22  C   UNL     1       0.456   2.658  -1.677  0.00  0.00    +0.190 C 
BRANCH  22  23
ATOM     23  O   UNL     1       1.364   1.650  -2.127  0.00  0.00    -0.392 OA
ATOM     24  H   UNL     1       2.166   1.909  -2.833  0.00  0.00    +0.210 HD
ENDBRANCH  22  23
ENDBRANCH  17  22
BRANCH   7  25
ATOM     25  C   UNL     1       0.726   1.011   6.684  0.00  0.00    +0.246 C 
BRANCH  25  26
ATOM     26  O   UNL     1       1.605   0.773   7.815  0.00  0.00    -0.464 OA
BRANCH  26  27
ATOM     27  C   UNL     1       1.057   0.214   8.905  0.00  0.00    +0.310 C 
ATOM     28  O   UNL     1      -0.118  -0.067   8.915  0.00  0.00    -0.251 OA
BRANCH  27  29
ATOM     29  C   UNL     1       1.907  -0.064  10.118  0.00  0.00    +0.155 C 
BRANCH  29  30
ATOM     30  C   UNL     1       1.081  -0.825  11.157  0.00  0.00    +0.084 C 
ATOM     31  C   UNL     1       1.948  -1.116  12.384  0.00  0.00    +0.042 C 
BRANCH  30  32
ATOM     32  O   UNL     1      -0.043  -0.032  11.545  0.00  0.00    -0.388 OA
ATOM     33  H   UNL     1      -0.756  -0.417  12.289  0.00  0.00    +0.210 HD
ENDBRANCH  30  32
BRANCH  30  34
ATOM     34  C   UNL     1       0.592  -2.143  10.554  0.00  0.00    +0.160 C 
BRANCH  34  35
ATOM     35  C   UNL     1      -0.221  -2.893  11.577  0.00  0.00    +0.359 C 
ATOM     36  O   UNL     1      -0.392  -2.421  12.677  0.00  0.00    -0.246 OA
ATOM     37  O   UNL     1      -0.756  -4.084  11.268  0.00  0.00    -0.246 OA
ENDBRANCH  34  35
ENDBRANCH  30  34
ENDBRANCH  29  30
ENDBRANCH  27  29
ENDBRANCH  26  27
ENDBRANCH  25  26
ENDBRANCH   7  25
TORSDOF 11
