REMARK  Name = ZINC43284211
REMARK  8 active torsions:
REMARK  status: ('A' for Active; 'I' for Inactive)
REMARK    1  A    between atoms: C_1  and  C_2
REMARK    2  A    between atoms: C_2  and  C_3
REMARK    3  A    between atoms: C_3  and  C_5
REMARK    4  A    between atoms: C_3  and  N_22
REMARK    5  A    between atoms: C_5  and  C_7
REMARK    6  A    between atoms: C_5  and  S_13
REMARK    7  A    between atoms: S_13  and  C_14
REMARK    8  A    between atoms: C_18  and  N_20
REMARK                            x       y       z     vdW  Elec       q    Type
REMARK                         _______ _______ _______ _____ _____    ______ ____
ROOT
ATOM      1  C   UNL     1       0.627  -2.069   1.301  0.00  0.00    +0.076 C 
ENDROOT
BRANCH   1   2
ATOM      2  C   UNL     1      -0.809  -2.501   1.447  0.00  0.00    +0.003 A 
ATOM      3  C   UNL     1      -1.562  -3.258   0.612  0.00  0.00    +0.013 A 
ATOM      4  C   UNL     1      -2.874  -3.531   0.953  0.00  0.00    +0.023 A 
ATOM      5  C   UNL     1      -3.368  -3.033   2.114  0.00  0.00    +0.055 A 
ATOM      6  S   UNL     1      -1.959  -2.155   2.768  0.00  0.00    -0.085 S 
ATOM      7 BR   UNL     1      -5.099  -3.226   2.851  0.00  0.00    -0.043 Br
ENDBRANCH   1   2
BRANCH   1   8
ATOM      8  C   UNL     1       0.701  -0.541   1.288  0.00  0.00    -0.057 C 
BRANCH   8   9
ATOM      9  N   UNL     1       2.108  -0.120   1.254  0.00  0.00    +0.381 N 
ATOM     10  H   UNL     1       2.160   0.885   1.323  0.00  0.00    -0.090 HD
ATOM     11  H   UNL     1       2.603  -0.536   2.029  0.00  0.00    -0.090 HD
ATOM     12  H   UNL     1       2.528  -0.419   0.387  0.00  0.00    -0.090 HD
ENDBRANCH   8   9
BRANCH   8  14
ATOM     13  C   UNL     1      -0.055   1.523   0.100  0.00  0.00    +0.002 C 
ATOM     14  C   UNL     1      -0.021  -0.006   0.050  0.00  0.00    -0.018 C 
ENDBRANCH   8  14
ENDBRANCH   1   8
BRANCH   1  15
ATOM     15  S   UNL     1       1.595  -2.710   2.695  0.00  0.00    -0.079 S 
BRANCH  15  16
ATOM     16  C   UNL     1       1.616  -4.452   2.434  0.00  0.00    +0.192 A 
ATOM     17  N   UNL     1       0.920  -4.963   1.429  0.00  0.00    -0.207 NA
ATOM     18  C   UNL     1       0.912  -6.274   1.202  0.00  0.00    +0.122 A 
ATOM     19  C   UNL     1       1.648  -7.111   2.037  0.00  0.00    +0.086 A 
ATOM     20  C   UNL     1       2.367  -6.538   3.082  0.00  0.00    +0.122 A 
ATOM     21  N   UNL     1       2.332  -5.218   3.246  0.00  0.00    -0.207 NA
ATOM     22  N   UNL     1       0.181  -6.801   0.149  0.00  0.00    -0.343 N 
ATOM     23  H   UNL     1      -0.330  -6.212  -0.429  0.00  0.00    +0.144 HD
ATOM     24  H   UNL     1       0.180  -7.757  -0.011  0.00  0.00    +0.144 HD
BRANCH  20  25
ATOM     25  N   UNL     1       3.114  -7.332   3.938  0.00  0.00    -0.343 N 
ATOM     26  H   UNL     1       3.138  -8.293   3.811  0.00  0.00    +0.144 HD
ATOM     27  H   UNL     1       3.612  -6.926   4.665  0.00  0.00    +0.144 HD
ENDBRANCH  20  25
ENDBRANCH  15  16
ENDBRANCH   1  15
TORSDOF 7
