REMARK  Name = ZINC66940422
REMARK  6 active torsions:
REMARK  status: ('A' for Active; 'I' for Inactive)
REMARK    1  A    between atoms: C_3  and  C_6
REMARK    2  A    between atoms: C_6  and  C_11
REMARK    3  A    between atoms: C_11  and  N_12
REMARK    4  A    between atoms: N_12  and  C_13
REMARK    5  A    between atoms: C_13  and  C_15
REMARK    6  A    between atoms: C_13  and  C_22
REMARK                            x       y       z     vdW  Elec       q    Type
REMARK                         _______ _______ _______ _____ _____    ______ ____
ROOT
ATOM      1  N   UNL     1       3.077   3.854   1.199  0.00  0.00    -0.301 NA
ATOM      2  H   UNL     1       3.152   4.380   0.341  0.00  0.00    +0.123 HD
ENDROOT
BRANCH   1   3
ATOM      3  C   UNL     1       4.012   2.721   1.205  0.00  0.00    +0.094 C 
BRANCH   3   4
ATOM      4  C   UNL     1       3.761   1.845  -0.024  0.00  0.00    +0.014 C 
ATOM      5  C   UNL     1       4.022   2.653  -1.312  0.00  0.00    +0.013 C 
ATOM      6  C   UNL     1       5.480   2.298  -1.694  0.00  0.00    +0.001 C 
ATOM      7  C   UNL     1       5.571   0.794  -1.337  0.00  0.00    +0.001 C 
ATOM      8  C   UNL     1       4.746   0.663  -0.040  0.00  0.00    +0.013 C 
BRANCH   4  11
ATOM      9  C   UNL     1      -0.016   1.351   0.009  0.00  0.00    +0.008 A 
ATOM     10  C   UNL     1       1.183   2.038   0.002  0.00  0.00    +0.012 A 
ATOM     11  C   UNL     1       2.343   1.336  -0.013  0.00  0.00    -0.003 A 
ATOM     12  S   UNL     1       1.754  -0.349  -0.017  0.00  0.00    -0.101 S 
ATOM     13  C   UNL     1       0.002  -0.004   0.002  0.00  0.00    +0.045 A 
ENDBRANCH   4  11
ENDBRANCH   3   4
ENDBRANCH   1   3
BRANCH   1  14
ATOM     14  C   UNL     1       3.290   4.718   2.367  0.00  0.00    +0.171 C 
BRANCH  14  15
ATOM     15  C   UNL     1       2.809   6.112   2.055  0.00  0.00    -0.021 A 
ATOM     16  C   UNL     1       1.641   6.296   1.339  0.00  0.00    +0.008 A 
ATOM     17  C   UNL     1       1.199   7.573   1.052  0.00  0.00    +0.038 A 
ATOM     18  C   UNL     1       1.927   8.670   1.483  0.00  0.00    +0.123 A 
ATOM     19  C   UNL     1       3.096   8.485   2.201  0.00  0.00    +0.038 A 
ATOM     20  C   UNL     1       3.534   7.206   2.491  0.00  0.00    +0.008 A 
ATOM     21  F   UNL     1       1.496   9.919   1.203  0.00  0.00    -0.205 F 
ENDBRANCH  14  15
BRANCH  14  22
ATOM     22  C   UNL     1       2.520   4.173   3.542  0.00  0.00    +0.232 C 
ATOM     23  O   UNL     1       1.860   3.163   3.419  0.00  0.00    -0.274 OA
ATOM     24  N   UNL     1       2.566   4.807   4.731  0.00  0.00    -0.328 N 
ATOM     25  H   UNL     1       3.095   5.614   4.830  0.00  0.00    +0.145 HD
ATOM     26  H   UNL     1       2.071   4.456   5.487  0.00  0.00    +0.145 HD
ENDBRANCH  14  22
ENDBRANCH   1  14
TORSDOF 6
