REMARK  Name = ZINC15857599
REMARK  14 active torsions:
REMARK  status: ('A' for Active; 'I' for Inactive)
REMARK    1  A    between atoms: C_1  and  C_2
REMARK    2  A    between atoms: C_6  and  C_35
REMARK    3  A    between atoms: C_7  and  N_8
REMARK    4  A    between atoms: C_9  and  C_23
REMARK    5  A    between atoms: C_12  and  S_13
REMARK    6  A    between atoms: S_13  and  C_14
REMARK    7  A    between atoms: C_14  and  C_16
REMARK    8  A    between atoms: C_14  and  C_17
REMARK    9  A    between atoms: N_19  and  C_20
REMARK   10  A    between atoms: C_20  and  C_21
REMARK   11  A    between atoms: C_27  and  S_29
REMARK   12  A    between atoms: S_29  and  N_32
REMARK   13  A    between atoms: N_32  and  C_33
REMARK   14  A    between atoms: N_32  and  C_34
REMARK                            x       y       z     vdW  Elec       q    Type
REMARK                         _______ _______ _______ _____ _____    ______ ____
ROOT
ATOM      1  N   UNL     1      -3.054  -1.769   1.475  0.00  0.00    -0.270 N 
ATOM      2  C   UNL     1      -2.344  -2.945   1.580  0.00  0.00    +0.169 A 
ATOM      3  N   UNL     1      -1.070  -2.626   1.582  0.00  0.00    -0.128 NA
ATOM      4  N   UNL     1      -0.935  -1.353   1.482  0.00  0.00    -0.122 NA
ATOM      5  C   UNL     1      -2.114  -0.776   1.419  0.00  0.00    +0.197 A 
ENDROOT
BRANCH   1  12
ATOM      6  C   UNL     1      -4.444  -1.447   3.938  0.00  0.00    +0.046 C 
ATOM      7  C   UNL     1      -5.163  -1.461   2.614  0.00  0.00    -0.026 A 
ATOM      8  C   UNL     1      -6.536  -1.310   2.572  0.00  0.00    +0.005 A 
ATOM      9  C   UNL     1      -7.197  -1.328   1.358  0.00  0.00    +0.001 A 
ATOM     10  C   UNL     1      -6.487  -1.492   0.183  0.00  0.00    +0.005 A 
ATOM     11  C   UNL     1      -5.114  -1.639   0.218  0.00  0.00    -0.026 A 
ATOM     12  C   UNL     1      -4.447  -1.621   1.436  0.00  0.00    +0.056 A 
ATOM     13  C   UNL     1      -4.341  -1.819  -1.063  0.00  0.00    +0.046 C 
ENDBRANCH   1  12
BRANCH   2  14
ATOM     14  C   UNL     1      -2.909  -4.307   1.672  0.00  0.00    +0.021 A 
ATOM     15  C   UNL     1      -4.260  -4.487   1.976  0.00  0.00    +0.012 A 
ATOM     16  C   UNL     1      -4.782  -5.761   2.057  0.00  0.00    +0.003 A 
ATOM     17  C   UNL     1      -3.968  -6.860   1.846  0.00  0.00    +0.028 A 
ATOM     18  C   UNL     1      -2.627  -6.689   1.549  0.00  0.00    +0.106 A 
ATOM     19  C   UNL     1      -2.093  -5.420   1.461  0.00  0.00    +0.040 A 
BRANCH  18  20
ATOM     20  S   UNL     1      -1.600  -8.096   1.283  0.00  0.00    +0.060 S 
ATOM     21  O   UNL     1      -2.458  -9.156   0.884  0.00  0.00    -0.153 OA
ATOM     22  O   UNL     1      -0.509  -7.657   0.484  0.00  0.00    -0.153 OA
BRANCH  20  23
ATOM     23  N   UNL     1      -0.968  -8.525   2.752  0.00  0.00    -0.183 NA
ATOM     24  C   UNL     1      -1.681  -9.479   3.605  0.00  0.00    +0.131 C 
ATOM     25  C   UNL     1       0.304  -7.952   3.198  0.00  0.00    +0.131 C 
ENDBRANCH  20  23
ENDBRANCH  18  20
ENDBRANCH   2  14
BRANCH   5  26
ATOM     26  S   UNL     1      -2.427   0.953   1.280  0.00  0.00    -0.073 S 
BRANCH  26  27
ATOM     27  C   UNL     1      -0.729   1.579   1.267  0.00  0.00    +0.137 C 
ATOM     28  C   UNL     1      -0.013   1.086   0.008  0.00  0.00    +0.029 C 
BRANCH  27  29
ATOM     29  C   UNL     1      -0.749   3.086   1.275  0.00  0.00    +0.226 C 
ATOM     30  O   UNL     1      -1.748   3.681   0.929  0.00  0.00    -0.275 OA
ATOM     31  N   UNL     1       0.342   3.773   1.668  0.00  0.00    -0.311 N 
ATOM     32  H   UNL     1       1.141   3.297   1.945  0.00  0.00    +0.149 HD
BRANCH  31  33
ATOM     33  C   UNL     1       0.322   5.237   1.676  0.00  0.00    +0.131 C 
BRANCH  33  34
ATOM     34  C   UNL     1       1.655   5.755   2.152  0.00  0.00    -0.016 C 
ATOM     35  C   UNL     1       2.331   6.601   1.413  0.00  0.00    +0.005 C 
ENDBRANCH  33  34
ENDBRANCH  31  33
ENDBRANCH  27  29
ENDBRANCH  26  27
ENDBRANCH   5  26
TORSDOF 9
