REMARK  Name = ZINC20596201
REMARK  3 active torsions:
REMARK  status: ('A' for Active; 'I' for Inactive)
REMARK    1  A    between atoms: C_1  and  C_2
REMARK    2  A    between atoms: C_6  and  C_7
REMARK    3  A    between atoms: C_9  and  C_12
REMARK                            x       y       z     vdW  Elec       q    Type
REMARK                         _______ _______ _______ _____ _____    ______ ____
ROOT
ATOM      1  C   UNL     1      -0.586  -2.049  -0.008  0.00  0.00    +0.245 A 
ATOM      2  N   UNL     1      -1.074  -0.816  -0.001  0.00  0.00    -0.190 NA
ATOM      3  C   UNL     1       0.002  -0.004  -0.006  0.00  0.00    +0.202 A 
ATOM      4  N   UNL     1       1.068  -0.764  -0.022  0.00  0.00    -0.056 NA
ATOM      5  O   UNL     1       0.754  -1.935  -0.018  0.00  0.00    -0.336 OA
ENDROOT
BRANCH   1  11
ATOM      6  C   UNL     1       0.575  -4.904  -0.044  0.00  0.00    +0.041 C 
ATOM      7  C   UNL     1      -0.901  -4.602  -0.019  0.00  0.00    -0.048 C 
ATOM      8  C   UNL     1      -1.823  -5.616  -0.009  0.00  0.00    +0.034 C 
ATOM      9  C   UNL     1      -3.158  -5.303   0.005  0.00  0.00    +0.089 C 
ATOM     10  S   UNL     1      -3.128  -3.519   0.005  0.00  0.00    -0.089 S 
ATOM     11  C   UNL     1      -1.357  -3.293  -0.006  0.00  0.00    +0.167 C 
ATOM     12  N   UNL     1      -4.252  -6.157   0.011  0.00  0.00    -0.293 NA
ATOM     13  H   UNL     1      -5.271  -5.744   0.023  0.00  0.00    +0.187 HD
ENDBRANCH   1  11
BRANCH   3  14
ATOM     14  C   UNL     1      -0.018   1.480  -0.002  0.00  0.00    +0.023 A 
ATOM     15  C   UNL     1       1.177   2.196  -0.008  0.00  0.00    +0.012 A 
ATOM     16  C   UNL     1       1.153   3.576  -0.004  0.00  0.00    +0.002 A 
ATOM     17  C   UNL     1      -0.055   4.249   0.006  0.00  0.00    +0.015 A 
ATOM     18  C   UNL     1      -1.245   3.544   0.013  0.00  0.00    +0.019 A 
ATOM     19  C   UNL     1      -1.232   2.163   0.003  0.00  0.00    +0.027 A 
ATOM     20 BR   UNL     1      -2.893   4.473   0.026  0.00  0.00    -0.050 Br
ENDBRANCH   3  14
TORSDOF 2
