REMARK  Name = ZINC54647940
REMARK  15 active torsions:
REMARK  status: ('A' for Active; 'I' for Inactive)
REMARK    1  A    between atoms: C_1  and  C_2
REMARK    2  A    between atoms: C_2  and  O_3
REMARK    3  A    between atoms: O_3  and  C_4
REMARK    4  A    between atoms: C_4  and  C_6
REMARK    5  A    between atoms: C_10  and  N_11
REMARK    6  A    between atoms: C_12  and  C_14
REMARK    7  A    between atoms: C_14  and  C_15
REMARK    8  A    between atoms: C_15  and  N_16
REMARK    9  A    between atoms: C_23  and  C_29
REMARK   10  A    between atoms: C_26  and  C_27
REMARK   11  A    between atoms: C_26  and  C_28
REMARK   12  A    between atoms: C_31  and  C_35
REMARK   13  A    between atoms: C_35  and  C_36
REMARK   14  A    between atoms: C_35  and  C_37
REMARK   15  A    between atoms: C_35  and  C_38
REMARK                            x       y       z     vdW  Elec       q    Type
REMARK                         _______ _______ _______ _____ _____    ______ ____
ROOT
ATOM      1  N   UNL     1      -0.604  -2.455  -3.925  0.00  0.00    -0.279 N 
ATOM      2  C   UNL     1      -1.119  -2.783  -5.126  0.00  0.00    +0.219 C 
ATOM      3  O   UNL     1      -0.397  -3.225  -5.995  0.00  0.00    -0.275 OA
ATOM      4  H   UNL     1      -1.181  -2.102  -3.230  0.00  0.00    +0.155 HD
ENDROOT
BRANCH   1   9
ATOM      5  C   UNL     1       1.449  -2.344  -2.516  0.00  0.00    +0.091 A 
ATOM      6  C   UNL     1       2.876  -2.619  -2.515  0.00  0.00    -0.021 A 
ATOM      7  C   UNL     1       3.343  -3.117  -3.680  0.00  0.00    -0.004 A 
ATOM      8  S   UNL     1       1.922  -3.212  -4.730  0.00  0.00    -0.077 S 
ATOM      9  C   UNL     1       0.750  -2.624  -3.681  0.00  0.00    +0.086 A 
ATOM     10  C   UNL     1       4.757  -3.498  -3.993  0.00  0.00    +0.046 C 
ATOM     11  C   UNL     1       5.669  -2.887  -2.920  0.00  0.00    -0.000 C 
ATOM     12  C   UNL     1       5.082  -3.191  -1.538  0.00  0.00    +0.009 C 
ATOM     13  C   UNL     1       3.799  -2.383  -1.329  0.00  0.00    +0.037 C 
BRANCH  11  14
ATOM     14  C   UNL     1       7.069  -3.497  -3.029  0.00  0.00    -0.035 C 
ATOM     15  C   UNL     1       7.646  -3.202  -4.415  0.00  0.00    +0.011 C 
ATOM     16  C   UNL     1       7.976  -2.886  -1.959  0.00  0.00    +0.011 C 
ATOM     17  C   UNL     1       6.983  -5.010  -2.823  0.00  0.00    +0.011 C 
ENDBRANCH  11  14
BRANCH   5  18
ATOM     18  C   UNL     1       0.776  -1.800  -1.335  0.00  0.00    +0.342 C 
ATOM     19  O   UNL     1       0.312  -2.552  -0.499  0.00  0.00    -0.245 OA
BRANCH  18  20
ATOM     20  O   UNL     1       0.671  -0.465  -1.174  0.00  0.00    -0.461 OA
BRANCH  20  22
ATOM     21  C   UNL     1      -0.019   1.526   0.010  0.00  0.00    +0.048 C 
ATOM     22  C   UNL     1       0.002  -0.004   0.002  0.00  0.00    +0.229 C 
ENDBRANCH  20  22
ENDBRANCH  18  20
ENDBRANCH   5  18
ENDBRANCH   1   9
BRANCH   2  23
ATOM     23  C   UNL     1      -2.591  -2.599  -5.391  0.00  0.00    +0.115 C 
BRANCH  23  24
ATOM     24  C   UNL     1      -2.912  -3.043  -6.819  0.00  0.00    +0.125 C 
BRANCH  24  25
ATOM     25  N   UNL     1      -4.343  -2.865  -7.077  0.00  0.00    -0.241 N 
ATOM     26  C   UNL     1      -5.184  -3.878  -6.800  0.00  0.00    +0.225 C 
ATOM     27  O   UNL     1      -4.765  -4.902  -6.305  0.00  0.00    -0.275 OA
ATOM     28  C   UNL     1      -6.663  -3.730  -7.110  0.00  0.00    +0.082 C 
ATOM     29  C   UNL     1      -7.258  -2.795  -6.030  0.00  0.00    +0.014 C 
ATOM     30  C   UNL     1      -6.993  -1.358  -6.519  0.00  0.00    +0.017 C 
ATOM     31  C   UNL     1      -6.250  -1.498  -7.870  0.00  0.00    +0.051 C 
ATOM     32  C   UNL     1      -4.773  -1.692  -7.577  0.00  0.00    +0.228 C 
ATOM     33  O   UNL     1      -3.989  -0.786  -7.768  0.00  0.00    -0.275 OA
ATOM     34  C   UNL     1      -6.743  -2.892  -8.417  0.00  0.00    -0.010 C 
ATOM     35  C   UNL     1      -5.809  -3.453  -9.492  0.00  0.00    +0.012 C 
ATOM     36  C   UNL     1      -8.181  -2.804  -8.930  0.00  0.00    +0.012 C 
ATOM     37  C   UNL     1      -6.513  -0.332  -8.824  0.00  0.00    +0.021 C 
ENDBRANCH  24  25
ENDBRANCH  23  24
ENDBRANCH   2  23
TORSDOF 8
