REMARK  Name = ZINC33552076
REMARK  11 active torsions:
REMARK  status: ('A' for Active; 'I' for Inactive)
REMARK    1  A    between atoms: C_1  and  C_2
REMARK    2  A    between atoms: C_2  and  C_3
REMARK    3  A    between atoms: C_3  and  C_4
REMARK    4  A    between atoms: C_4  and  N_5
REMARK    5  A    between atoms: C_6  and  C_8
REMARK    6  A    between atoms: C_8  and  S_9
REMARK    7  A    between atoms: S_9  and  C_10
REMARK    8  A    between atoms: C_14  and  C_18
REMARK    9  A    between atoms: N_21  and  C_22
REMARK   10  A    between atoms: C_25  and  C_28
REMARK   11  A    between atoms: C_28  and  C_29
REMARK                            x       y       z     vdW  Elec       q    Type
REMARK                         _______ _______ _______ _____ _____    ______ ____
ROOT
ATOM      1  C   UNL     1      -6.108  -6.684   0.025  0.00  0.00    +0.177 A 
ATOM      2  N   UNL     1      -6.999  -5.718   0.033  0.00  0.00    -0.201 NA
ATOM      3  C   UNL     1      -8.319  -5.990   0.044  0.00  0.00    +0.187 A 
ATOM      4  C   UNL     1      -8.730  -7.406   0.046  0.00  0.00    +0.079 A 
ATOM      5  C   UNL     1     -10.107  -7.415   0.058  0.00  0.00    +0.046 A 
ATOM      6  N   UNL     1     -10.525  -6.142   0.063  0.00  0.00    -0.279 N 
ATOM      7  N   UNL     1      -9.424  -5.278   0.054  0.00  0.00    -0.153 NA
ATOM      8  H   UNL     1     -11.454  -5.861   0.071  0.00  0.00    +0.189 HD
ATOM      9  C   UNL     1     -10.987  -8.639   0.063  0.00  0.00    +0.066 C 
ATOM     10  C   UNL     1      -7.674  -8.414   0.035  0.00  0.00    +0.115 A 
ATOM     11  N   UNL     1      -7.971  -9.757   0.036  0.00  0.00    -0.344 N 
ATOM     12  N   UNL     1      -6.412  -7.987   0.020  0.00  0.00    -0.277 N 
ATOM     13  H   UNL     1      -8.896 -10.049   0.044  0.00  0.00    +0.144 HD
ATOM     14  H   UNL     1      -7.256 -10.413   0.029  0.00  0.00    +0.144 HD
ENDROOT
BRANCH  12  15
ATOM     15  C   UNL     1      -5.391  -8.913   0.006  0.00  0.00    +0.050 A 
ATOM     16  C   UNL     1      -5.222  -9.750  -1.095  0.00  0.00    +0.026 A 
ATOM     17  C   UNL     1      -4.198 -10.675  -1.105  0.00  0.00    +0.005 A 
ATOM     18  C   UNL     1      -3.340 -10.773  -0.024  0.00  0.00    -0.047 A 
ATOM     19  C   UNL     1      -3.503  -9.944   1.072  0.00  0.00    +0.005 A 
ATOM     20  C   UNL     1      -4.520  -9.011   1.089  0.00  0.00    +0.026 A 
BRANCH  18  21
ATOM     21  C   UNL     1      -2.225 -11.786  -0.039  0.00  0.00    +0.032 C 
ATOM     22  C   UNL     1      -0.972 -11.155  -0.651  0.00  0.00    +0.009 C 
ENDBRANCH  18  21
ENDBRANCH  12  15
BRANCH   1  23
ATOM     23  S   UNL     1      -4.404  -6.234   0.011  0.00  0.00    -0.078 S 
BRANCH  23  24
ATOM     24  C   UNL     1      -4.429  -4.420   0.021  0.00  0.00    +0.173 C 
BRANCH  24  26
ATOM     25  N   UNL     1      -2.787  -2.571   0.015  0.00  0.00    -0.315 N 
ATOM     26  C   UNL     1      -3.015  -3.899   0.010  0.00  0.00    +0.223 C 
ATOM     27  O   UNL     1      -2.083  -4.674  -0.003  0.00  0.00    -0.275 OA
ATOM     28  H   UNL     1      -3.533  -1.950   0.025  0.00  0.00    +0.149 HD
BRANCH  25  29
ATOM     29  C   UNL     1      -1.413  -2.063   0.004  0.00  0.00    +0.104 C 
BRANCH  29  30
ATOM     30  C   UNL     1      -1.433  -0.534   0.013  0.00  0.00    +0.018 C 
BRANCH  30  32
ATOM     31  C   UNL     1      -0.019   1.526   0.010  0.00  0.00    +0.004 C 
ATOM     32  C   UNL     1       0.002  -0.004   0.002  0.00  0.00    -0.002 C 
ENDBRANCH  30  32
ENDBRANCH  29  30
ENDBRANCH  25  29
ENDBRANCH  24  26
ENDBRANCH  23  24
ENDBRANCH   1  23
TORSDOF 8
