REMARK  Name = ZINC02398957
REMARK  7 active torsions:
REMARK  status: ('A' for Active; 'I' for Inactive)
REMARK    1  A    between atoms: C_1  and  C_2
REMARK    2  A    between atoms: C_10  and  C_18
REMARK    3  A    between atoms: C_25  and  C_28
REMARK    4  A    between atoms: C_31  and  O_36
REMARK    5  A    between atoms: C_33  and  O_34
REMARK    6  A    between atoms: O_34  and  C_35
REMARK    7  A    between atoms: O_36  and  C_37
REMARK                            x       y       z     vdW  Elec       q    Type
REMARK                         _______ _______ _______ _____ _____    ______ ____
ROOT
ATOM      1  C   UNL     1      -0.104   1.873   0.749  0.00  0.00    +0.044 C 
ATOM      2  C   UNL     1      -0.106   0.376   0.577  0.00  0.00    -0.050 A 
ATOM      3  C   UNL     1      -0.175  -0.172  -0.692  0.00  0.00    +0.007 A 
ATOM      4  C   UNL     1      -0.177  -1.544  -0.866  0.00  0.00    +0.046 A 
ATOM      5  C   UNL     1      -0.110  -2.378   0.236  0.00  0.00    +0.131 A 
ATOM      6  C   UNL     1      -0.040  -1.823   1.520  0.00  0.00    +0.043 A 
ATOM      7  C   UNL     1      -0.032  -0.445   1.686  0.00  0.00    +0.017 A 
ATOM      8  C   UNL     1       0.026  -2.745   2.683  0.00  0.00    +0.083 C 
ATOM      9  C   UNL     1      -0.307  -4.035   2.473  0.00  0.00    +0.027 C 
ATOM     10  C   UNL     1      -0.236  -4.988   3.645  0.00  0.00    +0.162 C 
ATOM     11  N   UNL     1       0.196  -4.406   4.921  0.00  0.00    -0.208 N 
ATOM     12  C   UNL     1       0.499  -3.060   4.973  0.00  0.00    +0.237 C 
ATOM     13  N   UNL     1       0.409  -2.302   3.905  0.00  0.00    -0.213 NA
ATOM     14  N   UNL     1       0.862  -2.787   6.246  0.00  0.00    -0.205 NA
ATOM     15  C   UNL     1       0.804  -3.867   6.976  0.00  0.00    +0.203 C 
ATOM     16  N   UNL     1       0.396  -4.914   6.207  0.00  0.00    -0.251 N 
ATOM     17  C   UNL     1      -0.743  -4.501   1.115  0.00  0.00    +0.238 C 
ATOM     18  O   UNL     1      -0.107  -3.728   0.095  0.00  0.00    -0.479 OA
ATOM     19  H   UNL     1       0.268  -5.831   6.496  0.00  0.00    +0.171 HD
ENDROOT
BRANCH  10  20
ATOM     20  C   UNL     1      -1.603  -5.590   3.846  0.00  0.00    +0.014 A 
ATOM     21  C   UNL     1      -2.497  -4.999   4.719  0.00  0.00    +0.008 A 
ATOM     22  C   UNL     1      -3.751  -5.551   4.903  0.00  0.00    +0.001 A 
ATOM     23  C   UNL     1      -4.112  -6.694   4.215  0.00  0.00    +0.003 A 
ATOM     24  C   UNL     1      -3.220  -7.286   3.341  0.00  0.00    +0.039 A 
ATOM     25  C   UNL     1      -1.966  -6.731   3.152  0.00  0.00    +0.129 A 
ATOM     26  F   UNL     1      -1.095  -7.307   2.294  0.00  0.00    -0.205 F 
ENDBRANCH  10  20
BRANCH  17  27
ATOM     27  C   UNL     1      -2.237  -4.348   0.991  0.00  0.00    +0.039 A 
ATOM     28  C   UNL     1      -2.890  -3.353   1.695  0.00  0.00    +0.015 A 
ATOM     29  C   UNL     1      -4.260  -3.210   1.584  0.00  0.00    +0.046 A 
ATOM     30  C   UNL     1      -4.984  -4.065   0.765  0.00  0.00    +0.124 A 
ATOM     31  C   UNL     1      -4.332  -5.064   0.059  0.00  0.00    +0.091 A 
ATOM     32  C   UNL     1      -2.956  -5.202   0.167  0.00  0.00    +0.131 A 
BRANCH  32  33
ATOM     33  O   UNL     1      -2.313  -6.175  -0.529  0.00  0.00    -0.495 OA
ATOM     34  C   UNL     1      -3.098  -6.947  -1.441  0.00  0.00    +0.277 C 
ENDBRANCH  32  33
BRANCH  30  35
ATOM     35  O   UNL     1      -6.331  -3.925   0.657  0.00  0.00    -0.495 OA
ATOM     36  C   UNL     1      -6.936  -2.875   1.414  0.00  0.00    +0.277 C 
ENDBRANCH  30  35
ENDBRANCH  17  27
TORSDOF 4
