REMARK  Name = ZINC22148559
REMARK  8 active torsions:
REMARK  status: ('A' for Active; 'I' for Inactive)
REMARK    1  A    between atoms: C_1  and  C_2
REMARK    2  A    between atoms: C_5  and  N_9
REMARK    3  A    between atoms: C_6  and  C_8
REMARK    4  A    between atoms: C_10  and  S_14
REMARK    5  A    between atoms: S_14  and  C_15
REMARK    6  A    between atoms: C_15  and  C_17
REMARK    7  A    between atoms: C_15  and  C_18
REMARK    8  A    between atoms: C_24  and  C_29
REMARK                            x       y       z     vdW  Elec       q    Type
REMARK                         _______ _______ _______ _____ _____    ______ ____
ROOT
ATOM      1  C   UNL     1       0.796  -6.286  -3.314  0.00  0.00    +0.117 C 
ATOM      2  C   UNL     1      -0.382  -7.205  -2.986  0.00  0.00    +0.027 C 
ENDROOT
BRANCH   1   3
ATOM      3  C   UNL     1       0.894  -6.107  -4.807  0.00  0.00    +0.124 A 
ATOM      4  N   UNL     1       1.727  -6.907  -5.522  0.00  0.00    -0.309 N 
ATOM      5  H   UNL     1       2.248  -7.582  -5.061  0.00  0.00    +0.170 HD
ATOM      6  C   UNL     1       1.843  -6.780  -6.857  0.00  0.00    +0.260 A 
ATOM      7  O   UNL     1       2.595  -7.506  -7.484  0.00  0.00    -0.267 OA
ATOM      8  C   UNL     1       1.070  -5.781  -7.529  0.00  0.00    +0.080 A 
ATOM      9  C   UNL     1       1.020  -5.452  -8.949  0.00  0.00    +0.010 A 
ATOM     10  C   UNL     1       0.201  -4.452  -9.358  0.00  0.00    +0.057 A 
ATOM     11  S   UNL     1      -0.555  -3.893  -7.844  0.00  0.00    -0.076 S 
ATOM     12  C   UNL     1       0.237  -5.002  -6.708  0.00  0.00    +0.116 A 
ATOM     13  N   UNL     1       0.172  -5.190  -5.393  0.00  0.00    -0.225 NA
BRANCH   9  14
ATOM     14  C   UNL     1       1.848  -6.195  -9.923  0.00  0.00    +0.021 A 
ATOM     15  C   UNL     1       1.475  -6.778 -11.105  0.00  0.00    +0.016 A 
ATOM     16  C   UNL     1       2.434  -7.424 -11.856  0.00  0.00    +0.008 A 
ATOM     17  C   UNL     1       3.712  -7.463 -11.404  0.00  0.00    +0.046 A 
ATOM     18  S   UNL     1       3.595  -6.557  -9.870  0.00  0.00    -0.097 S 
ENDBRANCH   9  14
ENDBRANCH   1   3
BRANCH   1  19
ATOM     19  S   UNL     1       0.540  -4.671  -2.527  0.00  0.00    -0.073 S 
BRANCH  19  21
ATOM     20  N   UNL     1       0.453  -4.131   0.209  0.00  0.00    -0.187 N 
ATOM     21  C   UNL     1       0.595  -5.024  -0.802  0.00  0.00    +0.215 A 
ATOM     22  N   UNL     1       0.781  -6.204  -0.251  0.00  0.00    -0.101 NA
ATOM     23  N   UNL     1       0.765  -6.110   1.030  0.00  0.00    -0.022 NA
ATOM     24  N   UNL     1       0.577  -4.886   1.388  0.00  0.00    -0.038 NA
BRANCH  20  29
ATOM     25  C   UNL     1      -0.428   1.459  -0.230  0.00  0.00    +0.044 C 
ATOM     26  C   UNL     1      -0.194  -0.025  -0.113  0.00  0.00    -0.050 A 
ATOM     27  C   UNL     1       0.799  -0.628  -0.863  0.00  0.00    +0.005 A 
ATOM     28  C   UNL     1       1.016  -1.988  -0.759  0.00  0.00    +0.028 A 
ATOM     29  C   UNL     1       0.236  -2.750   0.101  0.00  0.00    +0.073 A 
ATOM     30  C   UNL     1      -0.759  -2.141   0.853  0.00  0.00    -0.025 A 
ATOM     31  C   UNL     1      -0.968  -0.780   0.748  0.00  0.00    +0.008 A 
ATOM     32  C   UNL     1      -1.608  -2.965   1.788  0.00  0.00    +0.046 C 
ENDBRANCH  20  29
ENDBRANCH  19  21
ENDBRANCH   1  19
TORSDOF 5
