REMARK  Name = ZINC40322669
REMARK  14 active torsions:
REMARK  status: ('A' for Active; 'I' for Inactive)
REMARK    1  A    between atoms: C_1  and  C_2
REMARK    2  A    between atoms: C_2  and  N_3
REMARK    3  A    between atoms: N_3  and  C_4
REMARK    4  A    between atoms: N_3  and  C_6
REMARK    5  A    between atoms: C_4  and  C_5
REMARK    6  A    between atoms: C_6  and  C_8
REMARK    7  A    between atoms: C_6  and  C_27
REMARK    8  A    between atoms: C_8  and  N_9
REMARK    9  A    between atoms: C_10  and  C_12
REMARK   10  A    between atoms: C_15  and  S_17
REMARK   11  A    between atoms: S_17  and  C_20
REMARK   12  A    between atoms: C_23  and  C_26
REMARK   13  A    between atoms: C_30  and  O_33
REMARK   14  A    between atoms: O_33  and  C_34
REMARK                            x       y       z     vdW  Elec       q    Type
REMARK                         _______ _______ _______ _____ _____    ______ ____
ROOT
ATOM      1  N   UNL     1       1.457  -2.343   1.089  0.00  0.00    -0.310 N 
ATOM      2  C   UNL     1       0.571  -3.356   1.161  0.00  0.00    +0.279 C 
ATOM      3  O   UNL     1      -0.557  -3.150   1.569  0.00  0.00    -0.267 OA
ATOM      4  H   UNL     1       2.332  -2.491   0.697  0.00  0.00    +0.149 HD
ENDROOT
BRANCH   2   5
ATOM      5  C   UNL     1       0.966  -4.707   0.748  0.00  0.00    +0.192 A 
ATOM      6  C   UNL     1       0.146  -5.796   0.677  0.00  0.00    +0.056 A 
ATOM      7  C   UNL     1       0.937  -6.869   0.238  0.00  0.00    +0.070 A 
ATOM      8  C   UNL     1       2.190  -6.394   0.063  0.00  0.00    +0.246 A 
ATOM      9  O   UNL     1       2.202  -5.090   0.367  0.00  0.00    -0.433 OA
BRANCH   8  10
ATOM     10  S   UNL     1       3.578  -7.334  -0.480  0.00  0.00    +0.058 S 
ATOM     11  O   UNL     1       4.736  -6.661  -0.005  0.00  0.00    -0.161 OA
ATOM     12  O   UNL     1       3.300  -8.690  -0.159  0.00  0.00    -0.161 OA
BRANCH  10  13
ATOM     13  C   UNL     1       3.621  -7.231  -2.238  0.00  0.00    +0.097 A 
ATOM     14  C   UNL     1       2.943  -8.163  -3.002  0.00  0.00    +0.028 A 
ATOM     15  C   UNL     1       2.977  -8.082  -4.382  0.00  0.00    +0.005 A 
ATOM     16  C   UNL     1       3.688  -7.069  -4.997  0.00  0.00    -0.050 A 
ATOM     17  C   UNL     1       4.365  -6.137  -4.234  0.00  0.00    +0.005 A 
ATOM     18  C   UNL     1       4.328  -6.215  -2.854  0.00  0.00    +0.028 A 
ATOM     19  C   UNL     1       3.726  -6.981  -6.502  0.00  0.00    +0.044 C 
ENDBRANCH  10  13
ENDBRANCH   8  10
ENDBRANCH   2   5
BRANCH   1  20
ATOM     20  C   UNL     1       1.099  -1.019   1.604  0.00  0.00    +0.094 C 
BRANCH  20  21
ATOM     21  C   UNL     1       2.215  -0.025   1.274  0.00  0.00    -0.020 C 
BRANCH  21  22
ATOM     22  C   UNL     1       1.795   1.359   1.694  0.00  0.00    -0.059 A 
ATOM     23  C   UNL     1       0.818   1.521   2.659  0.00  0.00    +0.005 A 
ATOM     24  C   UNL     1       0.430   2.789   3.046  0.00  0.00    +0.046 A 
ATOM     25  C   UNL     1       1.023   3.901   2.465  0.00  0.00    +0.120 A 
ATOM     26  C   UNL     1       2.003   3.737   1.498  0.00  0.00    +0.046 A 
ATOM     27  C   UNL     1       2.391   2.466   1.118  0.00  0.00    +0.005 A 
BRANCH  25  28
ATOM     28  O   UNL     1       0.643   5.150   2.844  0.00  0.00    -0.495 OA
ATOM     29  C   UNL     1       1.296   6.249   2.204  0.00  0.00    +0.277 C 
ENDBRANCH  25  28
ENDBRANCH  21  22
BRANCH  21  30
ATOM     30  N   UNL     1       2.473  -0.041  -0.172  0.00  0.00    +0.385 N 
ATOM     31  H   UNL     1       2.310  -0.969  -0.533  0.00  0.00    -0.081 HD
BRANCH  30  33
ATOM     32  C   UNL     1       0.122   0.556  -0.510  0.00  0.00    -0.017 C 
ATOM     33  C   UNL     1       1.574   0.909  -0.840  0.00  0.00    -0.081 C 
ENDBRANCH  30  33
BRANCH  30  34
ATOM     34  C   UNL     1       3.868   0.344  -0.425  0.00  0.00    -0.081 C 
ATOM     35  C   UNL     1       4.801  -0.756   0.085  0.00  0.00    -0.017 C 
ENDBRANCH  30  34
ENDBRANCH  21  30
ENDBRANCH  20  21
ENDBRANCH   1  20
TORSDOF 10
