REMARK  Name = ZINC40783718
REMARK  10 active torsions:
REMARK  status: ('A' for Active; 'I' for Inactive)
REMARK    1  A    between atoms: C_1  and  C_2
REMARK    2  A    between atoms: C_2  and  C_4
REMARK    3  A    between atoms: C_2  and  N_7
REMARK    4  A    between atoms: C_4  and  O_5
REMARK    5  A    between atoms: O_5  and  C_6
REMARK    6  A    between atoms: C_9  and  N_28
REMARK    7  A    between atoms: C_10  and  N_14
REMARK    8  A    between atoms: N_14  and  C_15
REMARK    9  A    between atoms: C_15  and  C_16
REMARK   10  A    between atoms: C_15  and  C_22
REMARK                            x       y       z     vdW  Elec       q    Type
REMARK                         _______ _______ _______ _____ _____    ______ ____
ROOT
ATOM      1  N   UNL     1      -1.372  -0.511   0.012  0.00  0.00    -0.323 N 
ATOM      2  C   UNL     1      -2.049  -0.660   1.217  0.00  0.00    +0.145 A 
ATOM      3  C   UNL     1      -3.357  -1.147   1.240  0.00  0.00    +0.105 A 
ATOM      4  C   UNL     1      -3.990  -1.278   2.477  0.00  0.00    +0.145 A 
ATOM      5  N   UNL     1      -3.329  -0.934   3.579  0.00  0.00    -0.219 NA
ATOM      6  C   UNL     1      -2.094  -0.478   3.514  0.00  0.00    +0.225 A 
ATOM      7  N   UNL     1      -1.458  -0.344   2.367  0.00  0.00    -0.219 NA
ATOM      8  H   UNL     1      -1.810  -0.743  -0.822  0.00  0.00    +0.148 HD
ENDROOT
BRANCH   3   9
ATOM      9  N   UNL     1      -4.018  -1.497   0.051  0.00  0.00    -0.353 N 
ATOM     10  H   UNL     1      -3.565  -1.401  -0.802  0.00  0.00    +0.143 HD
ATOM     11  H   UNL     1      -4.926  -1.835   0.082  0.00  0.00    +0.143 HD
ENDBRANCH   3   9
BRANCH   1  13
ATOM     12  C   UNL     1      -0.019   1.526   0.010  0.00  0.00    +0.030 C 
ATOM     13  C   UNL     1       0.002  -0.004   0.002  0.00  0.00    +0.094 C 
BRANCH  13  14
ATOM     14  C   UNL     1       0.718  -0.497  -1.257  0.00  0.00    +0.181 C 
BRANCH  14  15
ATOM     15  O   UNL     1       0.097   0.070  -2.412  0.00  0.00    -0.381 OA
ATOM     16  C   UNL     1       0.693  -0.329  -3.648  0.00  0.00    +0.194 C 
ENDBRANCH  14  15
ENDBRANCH  13  14
ENDBRANCH   1  13
BRANCH   4  17
ATOM     17  N   UNL     1      -5.292  -1.758   2.556  0.00  0.00    -0.317 N 
ATOM     18  H   UNL     1      -5.768  -2.005   1.748  0.00  0.00    +0.148 HD
BRANCH  17  19
ATOM     19  C   UNL     1      -5.946  -1.889   3.860  0.00  0.00    +0.132 C 
BRANCH  19  20
ATOM     20  C   UNL     1      -7.441  -1.821   3.682  0.00  0.00    -0.023 A 
ATOM     21  C   UNL     1      -8.039  -2.456   2.609  0.00  0.00    +0.006 A 
ATOM     22  C   UNL     1      -9.410  -2.393   2.446  0.00  0.00    +0.000 A 
ATOM     23  C   UNL     1     -10.184  -1.695   3.355  0.00  0.00    +0.000 A 
ATOM     24  C   UNL     1      -9.586  -1.061   4.428  0.00  0.00    +0.000 A 
ATOM     25  C   UNL     1      -8.215  -1.128   4.594  0.00  0.00    +0.006 A 
ENDBRANCH  19  20
BRANCH  19  26
ATOM     26  C   UNL     1      -5.574  -3.213   4.477  0.00  0.00    -0.023 A 
ATOM     27  C   UNL     1      -5.492  -4.345   3.688  0.00  0.00    +0.006 A 
ATOM     28  C   UNL     1      -5.151  -5.559   4.254  0.00  0.00    +0.000 A 
ATOM     29  C   UNL     1      -4.891  -5.641   5.609  0.00  0.00    +0.000 A 
ATOM     30  C   UNL     1      -4.973  -4.510   6.398  0.00  0.00    +0.000 A 
ATOM     31  C   UNL     1      -5.310  -3.295   5.832  0.00  0.00    +0.006 A 
ENDBRANCH  19  26
ENDBRANCH  17  19
ENDBRANCH   4  17
TORSDOF 8
