REMARK  Name = ZINC39773101
REMARK  9 active torsions:
REMARK  status: ('A' for Active; 'I' for Inactive)
REMARK    1  A    between atoms: C_1  and  C_2
REMARK    2  A    between atoms: C_2  and  C_4
REMARK    3  A    between atoms: C_2  and  S_13
REMARK    4  A    between atoms: N_6  and  C_7
REMARK    5  A    between atoms: S_13  and  C_14
REMARK    6  A    between atoms: C_17  and  C_22
REMARK    7  A    between atoms: N_18  and  C_19
REMARK    8  A    between atoms: C_19  and  C_20
REMARK    9  A    between atoms: C_19  and  C_21
REMARK                            x       y       z     vdW  Elec       q    Type
REMARK                         _______ _______ _______ _____ _____    ______ ____
ROOT
ATOM      1  C   UNL     1      -2.365  -0.093  -1.525  0.00  0.00    +0.193 A 
ATOM      2  N   UNL     1      -1.732   0.599  -2.448  0.00  0.00    -0.122 NA
ATOM      3  N   UNL     1      -2.512   0.822  -3.445  0.00  0.00    -0.125 NA
ATOM      4  C   UNL     1      -3.692   0.285  -3.221  0.00  0.00    +0.201 A 
ATOM      5  N   UNL     1      -3.630  -0.322  -1.986  0.00  0.00    -0.297 N 
ENDROOT
BRANCH   4   6
ATOM      6  C   UNL     1      -4.855   0.322  -4.121  0.00  0.00    +0.173 A 
ATOM      7  C   UNL     1      -4.814   0.656  -5.436  0.00  0.00    +0.061 A 
ATOM      8  C   UNL     1      -6.192   0.556  -5.922  0.00  0.00    +0.021 A 
ATOM      9  C   UNL     1      -6.805   0.765  -7.159  0.00  0.00    +0.011 A 
ATOM     10  C   UNL     1      -8.153   0.581  -7.287  0.00  0.00    +0.001 A 
ATOM     11  C   UNL     1      -8.915   0.187  -6.195  0.00  0.00    +0.004 A 
ATOM     12  C   UNL     1      -8.327  -0.025  -4.966  0.00  0.00    +0.047 A 
ATOM     13  C   UNL     1      -6.959   0.156  -4.813  0.00  0.00    +0.136 A 
ATOM     14  O   UNL     1      -6.121   0.024  -3.764  0.00  0.00    -0.452 OA
ENDBRANCH   4   6
BRANCH   5  15
ATOM     15  C   UNL     1      -4.700  -1.057  -1.306  0.00  0.00    +0.085 C 
ATOM     16  C   UNL     1      -4.246  -2.495  -1.048  0.00  0.00    +0.030 C 
ATOM     17  C   UNL     1      -5.020  -0.376   0.026  0.00  0.00    +0.030 C 
ENDBRANCH   5  15
BRANCH   1  18
ATOM     18  S   UNL     1      -1.700  -0.632   0.015  0.00  0.00    -0.074 S 
BRANCH  18  20
ATOM     19  C   UNL     1      -0.019   1.526   0.010  0.00  0.00    +0.029 C 
ATOM     20  C   UNL     1       0.002  -0.004   0.002  0.00  0.00    +0.137 C 
BRANCH  20  21
ATOM     21  C   UNL     1       0.731  -0.503   1.223  0.00  0.00    +0.226 C 
ATOM     22  O   UNL     1       0.105  -0.891   2.187  0.00  0.00    -0.275 OA
ATOM     23  N   UNL     1       2.079  -0.519   1.244  0.00  0.00    -0.312 N 
ATOM     24  H   UNL     1       2.579  -0.208   0.473  0.00  0.00    +0.149 HD
BRANCH  23  25
ATOM     25  C   UNL     1       2.787  -1.004   2.431  0.00  0.00    +0.073 C 
ATOM     26  C   UNL     1       2.930   0.136   3.441  0.00  0.00    +0.022 C 
ATOM     27  C   UNL     1       3.670  -0.371   4.681  0.00  0.00    +0.002 C 
ATOM     28  C   UNL     1       5.058  -0.872   4.277  0.00  0.00    +0.000 C 
ATOM     29  C   UNL     1       4.915  -2.012   3.266  0.00  0.00    +0.002 C 
ATOM     30  C   UNL     1       4.175  -1.505   2.027  0.00  0.00    +0.022 C 
ENDBRANCH  23  25
ENDBRANCH  20  21
ENDBRANCH  18  20
ENDBRANCH   1  18
TORSDOF 6
