REMARK  Name = ZINC00940632
REMARK  12 active torsions:
REMARK  status: ('A' for Active; 'I' for Inactive)
REMARK    1  A    between atoms: C_1  and  C_2
REMARK    2  A    between atoms: C_2  and  C_3
REMARK    3  A    between atoms: C_6  and  S_9
REMARK    4  A    between atoms: S_9  and  N_12
REMARK    5  A    between atoms: N_12  and  C_13
REMARK    6  A    between atoms: C_16  and  C_30
REMARK    7  A    between atoms: C_17  and  C_26
REMARK    8  A    between atoms: C_26  and  C_27
REMARK    9  A    between atoms: C_26  and  C_28
REMARK   10  A    between atoms: C_26  and  C_29
REMARK   11  A    between atoms: C_30  and  O_32
REMARK   12  A    between atoms: O_32  and  C_33
REMARK                            x       y       z     vdW  Elec       q    Type
REMARK                         _______ _______ _______ _____ _____    ______ ____
ROOT
ATOM      1  C   UNL     1      -0.654   2.802   6.450  0.00  0.00    +0.057 A 
ATOM      2  C   UNL     1      -0.241   4.074   6.185  0.00  0.00    +0.037 A 
ATOM      3  C   UNL     1       1.102   4.440   6.356  0.00  0.00    +0.037 A 
ATOM      4  C   UNL     1       1.847   5.700   6.161  0.00  0.00    +0.108 A 
ATOM      5  C   UNL     1       3.138   5.421   6.499  0.00  0.00    +0.126 A 
ATOM      6  O   UNL     1       3.237   4.140   6.870  0.00  0.00    -0.458 OA
ATOM      7  C   UNL     1       2.045   3.515   6.801  0.00  0.00    +0.144 A 
ATOM      8  C   UNL     1       1.633   2.195   7.080  0.00  0.00    +0.027 A 
ATOM      9  C   UNL     1       0.274   1.838   6.908  0.00  0.00    +0.008 A 
ATOM     10  C   UNL     1      -0.131   0.522   7.182  0.00  0.00    +0.010 A 
ATOM     11  C   UNL     1       0.784  -0.389   7.616  0.00  0.00    +0.001 A 
ATOM     12  C   UNL     1       2.120  -0.037   7.789  0.00  0.00    +0.001 A 
ATOM     13  C   UNL     1       2.548   1.230   7.529  0.00  0.00    +0.012 A 
ENDROOT
BRANCH   5  14
ATOM     14  C   UNL     1       4.279   6.405   6.459  0.00  0.00    +0.021 C 
ATOM     15  C   UNL     1       3.975   7.576   7.396  0.00  0.00    +0.019 C 
ATOM     16  C   UNL     1       5.566   5.712   6.909  0.00  0.00    +0.019 C 
ATOM     17  C   UNL     1       4.452   6.926   5.031  0.00  0.00    +0.019 C 
ENDBRANCH   5  14
BRANCH   1  18
ATOM     18  N   UNL     1      -1.995   2.453   6.274  0.00  0.00    -0.216 N 
ATOM     19  H   UNL     1      -2.414   1.821   6.879  0.00  0.00    +0.174 HD
BRANCH  18  20
ATOM     20  S   UNL     1      -2.868   3.118   5.034  0.00  0.00    +0.072 S 
ATOM     21  O   UNL     1      -2.732   4.527   5.151  0.00  0.00    -0.150 OA
ATOM     22  O   UNL     1      -4.134   2.472   5.037  0.00  0.00    -0.150 OA
BRANCH  20  26
ATOM     23  C   UNL     1      -0.824   1.938   1.172  0.00  0.00    -0.048 A 
ATOM     24  C   UNL     1      -0.458   3.103   1.819  0.00  0.00    +0.005 A 
ATOM     25  C   UNL     1      -1.085   3.466   2.996  0.00  0.00    +0.029 A 
ATOM     26  C   UNL     1      -2.072   2.658   3.531  0.00  0.00    +0.109 A 
ATOM     27  C   UNL     1      -2.433   1.490   2.887  0.00  0.00    +0.029 A 
ATOM     28  C   UNL     1      -1.809   1.129   1.707  0.00  0.00    +0.005 A 
BRANCH  23  30
ATOM     29  C   UNL     1      -0.912   2.134  -1.298  0.00  0.00    +0.009 C 
ATOM     30  C   UNL     1      -0.143   1.545  -0.114  0.00  0.00    +0.032 C 
ENDBRANCH  23  30
ENDBRANCH  20  26
ENDBRANCH  18  20
ENDBRANCH   1  18
BRANCH   4  31
ATOM     31  C   UNL     1       1.310   6.987   5.699  0.00  0.00    +0.343 C 
ATOM     32  O   UNL     1       0.886   7.793   6.505  0.00  0.00    -0.245 OA
BRANCH  31  33
ATOM     33  O   UNL     1       1.286   7.274   4.383  0.00  0.00    -0.464 OA
ATOM     34  C   UNL     1       0.741   8.564   3.999  0.00  0.00    +0.280 C 
ENDBRANCH  31  33
ENDBRANCH   4  31
TORSDOF 7
