REMARK  Name = ZINC39676216
REMARK  4 active torsions:
REMARK  status: ('A' for Active; 'I' for Inactive)
REMARK    1  A    between atoms: C_11  and  C_13
REMARK    2  A    between atoms: C_13  and  N_14
REMARK    3  A    between atoms: C_15  and  C_17
REMARK    4  A    between atoms: C_28  and  C_30
REMARK                            x       y       z     vdW  Elec       q    Type
REMARK                         _______ _______ _______ _____ _____    ______ ____
ROOT
ATOM      1  C   UNL     1       8.271  -1.229  -0.682  0.00  0.00    +0.100 C 
ATOM      2  C   UNL     1       8.344  -0.171  -1.807  0.00  0.00    +0.121 C 
ATOM      3  N   UNL     1       9.793   0.062  -2.008  0.00  0.00    -0.296 N 
ATOM      4  C   UNL     1      10.404  -1.283  -1.884  0.00  0.00    +0.115 C 
ATOM      5  C   UNL     1       9.625  -1.957  -0.737  0.00  0.00    -0.004 C 
ATOM      6  C   UNL     1       9.417  -3.438  -1.040  0.00  0.00    -0.010 C 
ATOM      7  C   UNL     1      10.771  -4.151  -1.031  0.00  0.00    -0.082 C 
ATOM      8  N   UNL     1      11.406  -3.984   0.282  0.00  0.00    +0.379 N 
ATOM      9  C   UNL     1      11.688  -2.564   0.525  0.00  0.00    -0.082 C 
ATOM     10  C   UNL     1      10.372  -1.783   0.582  0.00  0.00    -0.010 C 
ATOM     11  C   UNL     1      10.416   1.233  -2.249  0.00  0.00    +0.247 C 
ATOM     12  O   UNL     1       9.793   2.275  -2.196  0.00  0.00    -0.270 OA
ATOM     13  H   UNL     1      10.787  -4.331   1.000  0.00  0.00    -0.086 HD
ATOM     14  H   UNL     1      12.270  -4.506   0.306  0.00  0.00    -0.086 HD
ENDROOT
BRANCH  11  15
ATOM     15  C   UNL     1      11.856   1.250  -2.579  0.00  0.00    +0.037 A 
ATOM     16  C   UNL     1      12.478   0.097  -3.063  0.00  0.00    +0.014 A 
ATOM     17  C   UNL     1      13.822   0.119  -3.370  0.00  0.00    +0.021 A 
ATOM     18  C   UNL     1      14.556   1.281  -3.198  0.00  0.00    +0.041 A 
ATOM     19  C   UNL     1      13.945   2.428  -2.719  0.00  0.00    +0.021 A 
ATOM     20  C   UNL     1      12.600   2.420  -2.414  0.00  0.00    +0.014 A 
ATOM     21 CL   UNL     1      16.248   1.300  -3.585  0.00  0.00    -0.084 Cl
ENDBRANCH  11  15
BRANCH   1  23
ATOM     22  N   UNL     1       6.507  -2.781   0.090  0.00  0.00    -0.308 N 
ATOM     23  C   UNL     1       7.145  -2.195  -0.943  0.00  0.00    +0.219 C 
ATOM     24  O   UNL     1       6.812  -2.446  -2.082  0.00  0.00    -0.275 OA
ATOM     25  H   UNL     1       6.773  -2.580   1.001  0.00  0.00    +0.149 HD
BRANCH  22  26
ATOM     26  C   UNL     1       5.412  -3.720  -0.164  0.00  0.00    +0.178 C 
BRANCH  26  37
ATOM     27  C   UNL     1       4.043  -5.097   5.925  0.00  0.00    +0.001 A 
ATOM     28  C   UNL     1       5.092  -4.189   5.859  0.00  0.00    +0.002 A 
ATOM     29  C   UNL     1       5.563  -3.743   4.645  0.00  0.00    +0.028 A 
ATOM     30  C   UNL     1       4.982  -4.209   3.464  0.00  0.00    +0.078 A 
ATOM     31  C   UNL     1       3.916  -5.133   3.535  0.00  0.00    +0.065 A 
ATOM     32  C   UNL     1       3.453  -5.571   4.774  0.00  0.00    +0.015 A 
ATOM     33  C   UNL     1       3.325  -5.604   2.273  0.00  0.00    +0.259 A 
ATOM     34  O   UNL     1       2.404  -6.399   2.264  0.00  0.00    -0.267 OA
ATOM     35  N   UNL     1       3.845  -5.117   1.122  0.00  0.00    -0.309 N 
ATOM     36  H   UNL     1       3.480  -5.405   0.271  0.00  0.00    +0.170 HD
ATOM     37  C   UNL     1       4.872  -4.229   1.149  0.00  0.00    +0.128 A 
ATOM     38  N   UNL     1       5.414  -3.796   2.246  0.00  0.00    -0.232 NA
ENDBRANCH  26  37
ENDBRANCH  22  26
ENDBRANCH   1  23
TORSDOF 4
