REMARK  Name = ZINC57316590
REMARK  7 active torsions:
REMARK  status: ('A' for Active; 'I' for Inactive)
REMARK    1  A    between atoms: C_6  and  C_7
REMARK    2  A    between atoms: C_10  and  C_12
REMARK    3  A    between atoms: C_13  and  C_14
REMARK    4  A    between atoms: N_16  and  C_17
REMARK    5  A    between atoms: C_17  and  N_19
REMARK    6  A    between atoms: N_19  and  C_20
REMARK    7  A    between atoms: C_21  and  C_28
REMARK                            x       y       z     vdW  Elec       q    Type
REMARK                         _______ _______ _______ _____ _____    ______ ____
ROOT
ATOM      1  C   UNL     1      -6.754   0.369   0.052  0.00  0.00    +0.242 C 
ATOM      2  O   UNL     1      -7.485  -0.605   0.057  0.00  0.00    -0.270 OA
ATOM      3  N   UNL     1      -7.283   1.608   0.058  0.00  0.00    -0.264 N 
ATOM      4  H   UNL     1      -6.700   2.384   0.054  0.00  0.00    +0.157 HD
ENDROOT
BRANCH   1   6
ATOM      5  C   UNL     1      -4.818  -1.051   0.036  0.00  0.00    +0.051 C 
ATOM      6  C   UNL     1      -5.351   0.199   0.042  0.00  0.00    +0.071 C 
BRANCH   5  10
ATOM      7  C   UNL     1      -1.264  -0.762   0.011  0.00  0.00    +0.136 A 
ATOM      8  C   UNL     1      -1.379  -2.134   0.010  0.00  0.00    +0.050 A 
ATOM      9  C   UNL     1      -2.745  -2.429   0.020  0.00  0.00    +0.050 A 
ATOM     10  C   UNL     1      -3.415  -1.220   0.026  0.00  0.00    +0.129 A 
ATOM     11  O   UNL     1      -2.498  -0.229   0.026  0.00  0.00    -0.455 OA
BRANCH   7  17
ATOM     12  C   UNL     1      -0.017   1.393   0.010  0.00  0.00    +0.013 A 
ATOM     13  C   UNL     1       1.170   2.095   0.002  0.00  0.00    +0.021 A 
ATOM     14  C   UNL     1       2.378   1.419  -0.013  0.00  0.00    +0.041 A 
ATOM     15  C   UNL     1       2.404   0.035  -0.022  0.00  0.00    +0.021 A 
ATOM     16  C   UNL     1       1.225  -0.680  -0.014  0.00  0.00    +0.013 A 
ATOM     17  C   UNL     1       0.002  -0.004   0.002  0.00  0.00    +0.017 A 
ATOM     18 CL   UNL     1       3.868   2.311  -0.024  0.00  0.00    -0.084 Cl
ENDBRANCH   7  17
ENDBRANCH   5  10
ENDBRANCH   1   6
BRANCH   3  19
ATOM     19  C   UNL     1      -8.621   1.770   0.068  0.00  0.00    +0.141 C 
ATOM     20  S   UNL     1      -9.648   0.400   0.074  0.00  0.00    -0.018 S 
BRANCH  19  21
ATOM     21  N   UNL     1      -9.150   3.009   0.073  0.00  0.00    -0.291 N 
ATOM     22  H   UNL     1      -8.568   3.785   0.070  0.00  0.00    +0.154 HD
BRANCH  21  23
ATOM     23  C   UNL     1     -10.525   3.175   0.083  0.00  0.00    +0.084 A 
ATOM     24  C   UNL     1     -11.239   4.360   0.084  0.00  0.00    +0.068 A 
ATOM     25  C   UNL     1     -12.698   4.263   0.097  0.00  0.00    -0.023 A 
ATOM     26  C   UNL     1     -13.164   3.001   0.107  0.00  0.00    -0.004 A 
ATOM     27  S   UNL     1     -11.708   1.986   0.090  0.00  0.00    -0.077 S 
ATOM     28  C   UNL     1     -14.668   2.959   0.123  0.00  0.00    +0.043 C 
ATOM     29  C   UNL     1     -15.094   4.379   0.555  0.00  0.00    +0.010 C 
ATOM     30  C   UNL     1     -13.886   5.223   0.099  0.00  0.00    +0.037 C 
BRANCH  24  31
ATOM     31  C   UNL     1     -10.561   5.659   0.074  0.00  0.00    +0.244 C 
ATOM     32  O   UNL     1     -10.288   6.195  -0.984  0.00  0.00    -0.270 OA
ATOM     33  N   UNL     1     -10.239   6.261   1.237  0.00  0.00    -0.325 N 
ATOM     34  H   UNL     1     -10.457   5.834   2.080  0.00  0.00    +0.145 HD
ATOM     35  H   UNL     1      -9.791   7.121   1.230  0.00  0.00    +0.145 HD
ENDBRANCH  24  31
ENDBRANCH  21  23
ENDBRANCH  19  21
ENDBRANCH   3  19
TORSDOF 7
