REMARK  Name = ZINC43225836
REMARK  9 active torsions:
REMARK  status: ('A' for Active; 'I' for Inactive)
REMARK    1  A    between atoms: C_1  and  C_2
REMARK    2  A    between atoms: C_3  and  C_32
REMARK    3  A    between atoms: C_5  and  C_25
REMARK    4  A    between atoms: N_6  and  C_7
REMARK    5  A    between atoms: C_7  and  C_9
REMARK    6  A    between atoms: C_7  and  C_16
REMARK    7  A    between atoms: C_9  and  C_10
REMARK    8  A    between atoms: N_18  and  C_19
REMARK    9  A    between atoms: C_19  and  C_20
REMARK                            x       y       z     vdW  Elec       q    Type
REMARK                         _______ _______ _______ _____ _____    ______ ____
ROOT
ATOM      1  C   UNL     1      -0.023   1.639   0.194  0.00  0.00    +0.064 C 
ATOM      2  C   UNL     1      -0.101   0.141   0.046  0.00  0.00    +0.029 A 
ATOM      3  C   UNL     1      -0.247  -0.546  -1.139  0.00  0.00    +0.058 A 
ATOM      4  C   UNL     1      -0.273  -1.928  -0.816  0.00  0.00    +0.041 A 
ATOM      5  C   UNL     1      -0.144  -2.023   0.532  0.00  0.00    +0.051 A 
ATOM      6  N   UNL     1      -0.034  -0.756   1.050  0.00  0.00    -0.331 N 
ENDROOT
BRANCH   5   7
ATOM      7  C   UNL     1      -0.121  -3.280   1.311  0.00  0.00    -0.000 A 
ATOM      8  C   UNL     1      -0.593  -3.300   2.624  0.00  0.00    +0.010 A 
ATOM      9  C   UNL     1      -0.570  -4.475   3.346  0.00  0.00    +0.002 A 
ATOM     10  C   UNL     1      -0.078  -5.634   2.771  0.00  0.00    +0.020 A 
ATOM     11  C   UNL     1       0.393  -5.622   1.469  0.00  0.00    +0.042 A 
ATOM     12  C   UNL     1       0.368  -4.453   0.735  0.00  0.00    +0.030 A 
ATOM     13 CL   UNL     1       1.009  -7.080   0.757  0.00  0.00    -0.084 Cl
ENDBRANCH   5   7
BRANCH   3  14
ATOM     14  C   UNL     1      -0.356   0.041  -2.486  0.00  0.00    +0.243 C 
ATOM     15  O   UNL     1      -0.319   1.248  -2.628  0.00  0.00    -0.270 OA
ATOM     16  N   UNL     1      -0.495  -0.759  -3.561  0.00  0.00    -0.325 N 
ATOM     17  H   UNL     1      -0.524  -1.722  -3.448  0.00  0.00    +0.145 HD
ATOM     18  H   UNL     1      -0.567  -0.373  -4.448  0.00  0.00    +0.145 HD
ENDBRANCH   3  14
BRANCH   6  19
ATOM     19  C   UNL     1       0.128  -0.431   2.469  0.00  0.00    +0.177 C 
BRANCH  19  20
ATOM     20  C   UNL     1      -1.102   0.286   2.963  0.00  0.00    +0.237 C 
ATOM     21  O   UNL     1      -1.982   0.586   2.185  0.00  0.00    -0.274 OA
ATOM     22  N   UNL     1      -1.222   0.595   4.269  0.00  0.00    -0.309 N 
ATOM     23  H   UNL     1      -0.488   0.421   4.879  0.00  0.00    +0.149 HD
BRANCH  22  24
ATOM     24  C   UNL     1      -2.463   1.193   4.769  0.00  0.00    +0.146 C 
BRANCH  24  25
ATOM     25  C   UNL     1      -2.341   1.438   6.251  0.00  0.00    +0.007 A 
ATOM     26  C   UNL     1      -1.891   2.540   6.899  0.00  0.00    +0.013 A 
ATOM     27  C   UNL     1      -1.868   2.542   8.281  0.00  0.00    +0.008 A 
ATOM     28  C   UNL     1      -2.297   1.443   8.947  0.00  0.00    +0.045 A 
ATOM     29  S   UNL     1      -2.759   0.356   7.608  0.00  0.00    -0.100 S 
ENDBRANCH  24  25
ENDBRANCH  22  24
ENDBRANCH  19  20
BRANCH  19  30
ATOM     30  C   UNL     1       1.351   0.470   2.649  0.00  0.00    +0.069 C 
BRANCH  30  31
ATOM     31  C   UNL     1       2.597  -0.294   2.279  0.00  0.00    -0.045 A 
ATOM     32  C   UNL     1       3.207  -1.114   3.209  0.00  0.00    +0.004 A 
ATOM     33  C   UNL     1       4.349  -1.814   2.869  0.00  0.00    +0.000 A 
ATOM     34  C   UNL     1       4.881  -1.695   1.599  0.00  0.00    +0.000 A 
ATOM     35  C   UNL     1       4.270  -0.875   0.668  0.00  0.00    +0.000 A 
ATOM     36  C   UNL     1       3.126  -0.178   1.007  0.00  0.00    +0.004 A 
ENDBRANCH  30  31
ENDBRANCH  19  30
ENDBRANCH   6  19
TORSDOF 8
