REMARK  Name = ZINC36375220
REMARK  7 active torsions:
REMARK  status: ('A' for Active; 'I' for Inactive)
REMARK    1  A    between atoms: C_3  and  O_25
REMARK    2  A    between atoms: C_4  and  O_24
REMARK    3  A    between atoms: C_6  and  C_7
REMARK    4  A    between atoms: C_9  and  O_23
REMARK    5  A    between atoms: C_11  and  O_22
REMARK    6  A    between atoms: C_16  and  O_21
REMARK    7  A    between atoms: C_17  and  O_20
REMARK                            x       y       z     vdW  Elec       q    Type
REMARK                         _______ _______ _______ _____ _____    ______ ____
ROOT
ATOM      1  C   UNL     1      -1.294  -0.774   0.010  0.00  0.00    +0.235 C 
ATOM      2  C   UNL     1      -1.859  -0.818   1.436  0.00  0.00    +0.192 C 
ATOM      3  C   UNL     1      -3.112  -1.698   1.428  0.00  0.00    +0.180 C 
ATOM      4  C   UNL     1      -4.013  -1.289   0.290  0.00  0.00    +0.029 A 
ATOM      5  C   UNL     1      -5.342  -1.681   0.320  0.00  0.00    +0.013 A 
ATOM      6  C   UNL     1      -6.198  -1.331  -0.704  0.00  0.00    +0.050 A 
ATOM      7  C   UNL     1      -5.730  -0.581  -1.773  0.00  0.00    +0.162 A 
ATOM      8  C   UNL     1      -4.400  -0.184  -1.807  0.00  0.00    +0.201 A 
ATOM      9  C   UNL     1      -3.538  -0.537  -0.770  0.00  0.00    +0.172 A 
ATOM     10  O   UNL     1      -2.245  -0.122  -0.832  0.00  0.00    -0.477 OA
ENDROOT
BRANCH   1  16
ATOM     11  C   UNL     1      -0.017   1.378   0.010  0.00  0.00    +0.011 A 
ATOM     12  C   UNL     1       1.170   2.089   0.002  0.00  0.00    +0.049 A 
ATOM     13  C   UNL     1       2.380   1.415  -0.013  0.00  0.00    +0.158 A 
ATOM     14  C   UNL     1       2.399   0.024  -0.021  0.00  0.00    +0.159 A 
ATOM     15  C   UNL     1       1.207  -0.682  -0.013  0.00  0.00    +0.056 A 
ATOM     16  C   UNL     1       0.002  -0.004   0.002  0.00  0.00    -0.001 A 
BRANCH  14  17
ATOM     17  O   UNL     1       3.585  -0.642  -0.036  0.00  0.00    -0.503 OA
ATOM     18  H   UNL     1       3.937  -0.839   0.843  0.00  0.00    +0.292 HD
ENDBRANCH  14  17
BRANCH  13  19
ATOM     19  O   UNL     1       3.548   2.113  -0.021  0.00  0.00    -0.503 OA
ATOM     20  H   UNL     1       3.894   2.310   0.860  0.00  0.00    +0.292 HD
ENDBRANCH  13  19
ENDBRANCH   1  16
BRANCH   8  21
ATOM     21  O   UNL     1      -3.937   0.552  -2.854  0.00  0.00    -0.501 OA
ATOM     22  H   UNL     1      -4.014   1.507  -2.728  0.00  0.00    +0.292 HD
ENDBRANCH   8  21
BRANCH   7  23
ATOM     23  O   UNL     1      -6.570  -0.236  -2.785  0.00  0.00    -0.503 OA
ATOM     24  H   UNL     1      -7.025   0.606  -2.649  0.00  0.00    +0.292 HD
ENDBRANCH   7  23
BRANCH   3  25
ATOM     25  O   UNL     1      -2.732  -3.065   1.265  0.00  0.00    -0.384 OA
ATOM     26  H   UNL     1      -3.477  -3.682   1.251  0.00  0.00    +0.210 HD
ENDBRANCH   3  25
BRANCH   2  27
ATOM     27  O   UNL     1      -0.885  -1.373   2.323  0.00  0.00    -0.385 OA
ATOM     28  H   UNL     1      -1.179  -1.430   3.242  0.00  0.00    +0.210 HD
ENDBRANCH   2  27
TORSDOF 7
