REMARK  Name = ZINC58939415
REMARK  12 active torsions:
REMARK  status: ('A' for Active; 'I' for Inactive)
REMARK    1  A    between atoms: C_1  and  C_2
REMARK    2  A    between atoms: C_2  and  C_3
REMARK    3  A    between atoms: C_3  and  C_4
REMARK    4  A    between atoms: C_3  and  C_5
REMARK    5  A    between atoms: N_7  and  C_8
REMARK    6  A    between atoms: C_12  and  C_14
REMARK    7  A    between atoms: C_14  and  N_15
REMARK    8  A    between atoms: C_16  and  C_18
REMARK    9  A    between atoms: C_18  and  C_19
REMARK   10  A    between atoms: C_18  and  N_22
REMARK   11  A    between atoms: C_19  and  C_20
REMARK   12  A    between atoms: C_19  and  C_21
REMARK                            x       y       z     vdW  Elec       q    Type
REMARK                         _______ _______ _______ _____ _____    ______ ____
ROOT
ATOM      1  C   UNL     1       2.009  -6.897  -4.644  0.00  0.00    +0.139 C 
ENDROOT
BRANCH   1   6
ATOM      2  C   UNL     1       1.006  -3.969  -2.474  0.00  0.00    +0.034 A 
ATOM      3  C   UNL     1       0.241  -4.599  -1.500  0.00  0.00    +0.023 A 
ATOM      4  C   UNL     1       0.053  -5.966  -1.550  0.00  0.00    +0.002 A 
ATOM      5  C   UNL     1       0.625  -6.708  -2.567  0.00  0.00    +0.005 A 
ATOM      6  C   UNL     1       1.387  -6.085  -3.538  0.00  0.00    -0.029 A 
ATOM      7  C   UNL     1       1.574  -4.716  -3.497  0.00  0.00    +0.028 A 
BRANCH   2  10
ATOM      8  C   UNL     1       1.267  -1.874  -3.570  0.00  0.00    +0.220 C 
ATOM      9  O   UNL     1       1.239  -2.443  -4.640  0.00  0.00    -0.275 OA
ATOM     10  N   UNL     1       1.200  -2.584  -2.426  0.00  0.00    -0.285 N 
ATOM     11  H   UNL     1       1.285  -2.136  -1.571  0.00  0.00    +0.155 HD
BRANCH   8  12
ATOM     12  C   UNL     1       1.379  -0.372  -3.518  0.00  0.00    +0.072 C 
ATOM     13  C   UNL     1       0.160   0.205  -2.796  0.00  0.00    +0.017 C 
BRANCH  12  15
ATOM     14  C   UNL     1       1.676   1.695  -4.890  0.00  0.00    +0.004 C 
ATOM     15  C   UNL     1       1.438   0.185  -4.942  0.00  0.00    +0.009 C 
ENDBRANCH  12  15
ENDBRANCH   8  12
ENDBRANCH   2  10
ENDBRANCH   1   6
BRANCH   1  16
ATOM     16  N   UNL     1       1.079  -6.976  -5.773  0.00  0.00    -0.310 N 
ATOM     17  C   UNL     1       1.424  -7.658  -6.884  0.00  0.00    +0.234 C 
ATOM     18  O   UNL     1       2.465  -8.280  -6.915  0.00  0.00    -0.274 OA
ATOM     19  H   UNL     1       0.215  -6.538  -5.722  0.00  0.00    +0.149 HD
BRANCH  17  20
ATOM     20  C   UNL     1       0.517  -7.648  -8.087  0.00  0.00    +0.163 C 
BRANCH  20  21
ATOM     21  N   UNL     1       1.306  -7.893  -9.296  0.00  0.00    -0.288 N 
ATOM     22  C   UNL     1       0.865  -7.450 -10.490  0.00  0.00    +0.298 C 
ATOM     23  O   UNL     1      -0.188  -6.847 -10.564  0.00  0.00    -0.253 OA
ATOM     24  N   UNL     1       1.592  -7.676 -11.603  0.00  0.00    -0.313 N 
ATOM     25  H   UNL     1       2.146  -8.374  -9.237  0.00  0.00    +0.151 HD
ATOM     26  H   UNL     1       2.432  -8.158 -11.544  0.00  0.00    +0.146 HD
ATOM     27  H   UNL     1       1.274  -7.358 -12.462  0.00  0.00    +0.146 HD
ENDBRANCH  20  21
BRANCH  20  28
ATOM     28  C   UNL     1      -0.541  -8.743  -7.937  0.00  0.00    +0.012 C 
ATOM     29  C   UNL     1      -1.440  -8.424  -6.741  0.00  0.00    +0.009 C 
ATOM     30  C   UNL     1      -1.390  -8.809  -9.209  0.00  0.00    +0.009 C 
ENDBRANCH  20  28
ENDBRANCH  17  20
ENDBRANCH   1  16
TORSDOF 8
