REMARK  Name = ZINC09805976
REMARK  14 active torsions:
REMARK  status: ('A' for Active; 'I' for Inactive)
REMARK    1  A    between atoms: C_1  and  C_2
REMARK    2  A    between atoms: C_2  and  O_3
REMARK    3  A    between atoms: O_3  and  C_4
REMARK    4  A    between atoms: C_4  and  C_6
REMARK    5  A    between atoms: C_7  and  C_33
REMARK    6  A    between atoms: N_8  and  C_26
REMARK    7  A    between atoms: C_12  and  O_15
REMARK    8  A    between atoms: O_15  and  C_16
REMARK    9  A    between atoms: C_16  and  C_17
REMARK   10  A    between atoms: C_17  and  C_19
REMARK   11  A    between atoms: C_17  and  O_25
REMARK   12  A    between atoms: C_19  and  N_66
REMARK   13  A    between atoms: C_20  and  N_66
REMARK   14  A    between atoms: C_29  and  C_32
REMARK                            x       y       z     vdW  Elec       q    Type
REMARK                         _______ _______ _______ _____ _____    ______ ____
ROOT
ATOM      1  C   UNL     1      -4.765  -8.213   2.690  0.00  0.00    +0.088 A 
ATOM      2  C   UNL     1      -6.013  -8.255   3.241  0.00  0.00    +0.036 A 
ATOM      3  N   UNL     1      -6.510  -6.997   3.347  0.00  0.00    -0.312 N 
ATOM      4  C   UNL     1      -5.597  -6.077   2.864  0.00  0.00    +0.055 A 
ATOM      5  C   UNL     1      -4.467  -6.791   2.433  0.00  0.00    +0.018 A 
ATOM      6  C   UNL     1      -3.376  -6.115   1.893  0.00  0.00    +0.056 A 
ATOM      7  C   UNL     1      -3.411  -4.737   1.785  0.00  0.00    +0.121 A 
ATOM      8  C   UNL     1      -4.529  -4.030   2.218  0.00  0.00    +0.048 A 
ATOM      9  C   UNL     1      -5.615  -4.692   2.747  0.00  0.00    +0.030 A 
ATOM     10  C   UNL     1      -6.731  -9.509   3.669  0.00  0.00    +0.065 C 
ENDROOT
BRANCH   3  11
ATOM     11  C   UNL     1      -7.768  -6.676   3.869  0.00  0.00    +0.047 A 
ATOM     12  C   UNL     1      -8.737  -6.108   3.052  0.00  0.00    +0.026 A 
ATOM     13  C   UNL     1      -9.979  -5.797   3.569  0.00  0.00    +0.005 A 
ATOM     14  C   UNL     1     -10.256  -6.041   4.902  0.00  0.00    -0.050 A 
ATOM     15  C   UNL     1      -9.292  -6.602   5.720  0.00  0.00    +0.005 A 
ATOM     16  C   UNL     1      -8.049  -6.920   5.207  0.00  0.00    +0.026 A 
ATOM     17  C   UNL     1     -11.610  -5.695   5.464  0.00  0.00    +0.044 C 
ENDBRANCH   3  11
BRANCH   1  18
ATOM     18  C   UNL     1      -3.891  -9.357   2.409  0.00  0.00    +0.342 C 
ATOM     19  O   UNL     1      -3.107  -9.746   3.254  0.00  0.00    -0.245 OA
BRANCH  18  20
ATOM     20  O   UNL     1      -3.957  -9.979   1.214  0.00  0.00    -0.461 OA
BRANCH  20  22
ATOM     21  C   UNL     1      -3.280 -11.675  -0.397  0.00  0.00    +0.048 C 
ATOM     22  C   UNL     1      -3.063 -11.103   1.006  0.00  0.00    +0.229 C 
ENDBRANCH  20  22
ENDBRANCH  18  20
ENDBRANCH   1  18
BRANCH   7  23
ATOM     23  O   UNL     1      -2.349  -4.071   1.260  0.00  0.00    -0.489 OA
BRANCH  23  24
ATOM     24  C   UNL     1      -2.452  -2.648   1.177  0.00  0.00    +0.258 C 
BRANCH  24  25
ATOM     25  C   UNL     1      -1.171  -2.079   0.564  0.00  0.00    +0.135 C 
BRANCH  25  26
ATOM     26  O   UNL     1      -1.048  -2.528  -0.787  0.00  0.00    -0.390 OA
ATOM     27  H   UNL     1      -1.781  -2.261  -1.358  0.00  0.00    +0.210 HD
ENDBRANCH  25  26
BRANCH  25  28
ATOM     28  C   UNL     1      -1.228  -0.550   0.591  0.00  0.00    -0.047 C 
BRANCH  28  29
ATOM     29  N   UNL     1       0.010  -0.010  -0.002  0.00  0.00    +0.383 N 
ATOM     30  H   UNL     1       0.094  -0.339  -0.971  0.00  0.00    -0.085 HD
ATOM     31  H   UNL     1       0.817  -0.338   0.542  0.00  0.00    -0.085 HD
BRANCH  29  32
ATOM     32  C   UNL     1      -0.018   1.465   0.010  0.00  0.00    -0.072 C 
ATOM     33  C   UNL     1      -0.699   1.991  -1.270  0.00  0.00    -0.016 C 
ATOM     34  C   UNL     1       0.111   3.259  -1.637  0.00  0.00    -0.002 C 
ATOM     35  C   UNL     1       1.563   2.851  -1.287  0.00  0.00    -0.002 C 
ATOM     36  C   UNL     1       1.421   2.011  -0.001  0.00  0.00    -0.016 C 
ENDBRANCH  29  32
ENDBRANCH  28  29
ENDBRANCH  25  28
ENDBRANCH  24  25
ENDBRANCH  23  24
ENDBRANCH   7  23
TORSDOF 11
