REMARK  Name = ZINC61125708
REMARK  4 active torsions:
REMARK  status: ('A' for Active; 'I' for Inactive)
REMARK    1  A    between atoms: C_1  and  N_2
REMARK    2  A    between atoms: C_3  and  N_21
REMARK    3  A    between atoms: C_4  and  C_13
REMARK    4  A    between atoms: C_5  and  C_7
REMARK                            x       y       z     vdW  Elec       q    Type
REMARK                         _______ _______ _______ _____ _____    ______ ____
ROOT
ATOM      1  C   UNL     1      -0.018   1.461   0.010  0.00  0.00    +0.174 C 
ATOM      2  N   UNL     1       0.002  -0.004   0.002  0.00  0.00    -0.253 N 
ATOM      3  C   UNL     1       0.008  -0.792  -1.104  0.00  0.00    +0.123 A 
ATOM      4  C   UNL     1       0.028  -2.106  -0.674  0.00  0.00    +0.053 A 
ATOM      5  C   UNL     1       0.035  -2.084   0.743  0.00  0.00    +0.120 A 
ATOM      6  N   UNL     1       0.025  -0.829   1.133  0.00  0.00    -0.168 NA
ENDROOT
BRANCH   4   7
ATOM      7  C   UNL     1       0.041  -3.312  -1.535  0.00  0.00    +0.024 A 
ATOM      8  C   UNL     1      -1.160  -3.895  -1.941  0.00  0.00    +0.050 A 
ATOM      9  C   UNL     1      -1.142  -5.019  -2.743  0.00  0.00    +0.021 A 
ATOM     10  C   UNL     1       0.063  -5.567  -3.144  0.00  0.00    +0.003 A 
ATOM     11  C   UNL     1       1.257  -4.994  -2.745  0.00  0.00    +0.021 A 
ATOM     12  C   UNL     1       1.253  -3.866  -1.948  0.00  0.00    +0.050 A 
ATOM     13 CL   UNL     1       2.752  -3.143  -1.456  0.00  0.00    -0.083 Cl
ATOM     14 CL   UNL     1      -2.674  -3.210  -1.437  0.00  0.00    -0.083 Cl
ENDBRANCH   4   7
BRANCH   5  15
ATOM     15  C   UNL     1       0.056  -3.271   1.631  0.00  0.00    +0.092 A 
ATOM     16  C   UNL     1       0.567  -3.158   2.923  0.00  0.00    +0.030 A 
ATOM     17  C   UNL     1       0.579  -4.274   3.741  0.00  0.00    +0.004 A 
ATOM     18  C   UNL     1       0.080  -5.469   3.240  0.00  0.00    +0.020 A 
ATOM     19  C   UNL     1      -0.412  -5.509   1.948  0.00  0.00    +0.111 A 
ATOM     20  N   UNL     1      -0.418  -4.430   1.192  0.00  0.00    -0.253 NA
ENDBRANCH   5  15
BRANCH   3  21
ATOM     21  N   UNL     1      -0.005  -0.358  -2.423  0.00  0.00    -0.343 N 
ATOM     22  H   UNL     1      -0.019   0.591  -2.621  0.00  0.00    +0.144 HD
ATOM     23  H   UNL     1       0.001  -1.005  -3.146  0.00  0.00    +0.144 HD
ENDBRANCH   3  21
TORSDOF 3
