REMARK  Name = ZINC35464951
REMARK  10 active torsions:
REMARK  status: ('A' for Active; 'I' for Inactive)
REMARK    1  A    between atoms: C_1  and  C_2
REMARK    2  A    between atoms: C_7  and  C_33
REMARK    3  A    between atoms: C_8  and  C_10
REMARK    4  A    between atoms: C_10  and  C_11
REMARK    5  A    between atoms: C_12  and  O_24
REMARK    6  A    between atoms: C_15  and  C_22
REMARK    7  A    between atoms: C_16  and  O_21
REMARK    8  A    between atoms: C_22  and  O_23
REMARK    9  A    between atoms: C_28  and  C_29
REMARK   10  A    between atoms: C_28  and  C_30
REMARK                            x       y       z     vdW  Elec       q    Type
REMARK                         _______ _______ _______ _____ _____    ______ ____
ROOT
ATOM      1  C   UNL     1      -0.279   1.982   0.205  0.00  0.00    +0.039 C 
ATOM      2  C   UNL     1      -0.360   0.496  -0.033  0.00  0.00    -0.073 C 
ATOM      3  C   UNL     1      -0.740   0.090  -1.200  0.00  0.00    -0.027 C 
ATOM      4  C   UNL     1      -0.864  -1.358  -1.587  0.00  0.00    +0.032 C 
ATOM      5  C   UNL     1      -0.882  -2.238  -0.335  0.00  0.00    +0.016 C 
ATOM      6  C   UNL     1       0.261  -1.838   0.590  0.00  0.00    -0.021 C 
ATOM      7  C   UNL     1       0.000  -0.414   1.106  0.00  0.00    +0.023 C 
ATOM      8  C   UNL     1       0.373  -2.794   1.776  0.00  0.00    +0.007 C 
ATOM      9  C   UNL     1       0.534  -4.231   1.272  0.00  0.00    +0.002 C 
ATOM     10  C   UNL     1      -0.732  -4.618   0.512  0.00  0.00    +0.018 C 
ATOM     11  C   UNL     1      -0.936  -3.710  -0.700  0.00  0.00    +0.073 C 
ATOM     12  C   UNL     1       0.062  -4.092  -1.792  0.00  0.00    +0.023 C 
ATOM     13  C   UNL     1       1.606  -1.810  -0.156  0.00  0.00    +0.012 C 
ENDROOT
BRANCH  11  14
ATOM     14  C   UNL     1      -2.330  -4.009  -1.239  0.00  0.00    +0.362 C 
ATOM     15  O   UNL     1      -2.487  -4.888  -2.070  0.00  0.00    -0.246 OA
ATOM     16  O   UNL     1      -3.288  -3.370  -0.840  0.00  0.00    -0.246 OA
ENDBRANCH  11  14
BRANCH   7  17
ATOM     17  C   UNL     1      -1.122  -0.381   2.138  0.00  0.00    +0.049 C 
BRANCH  17  18
ATOM     18  C   UNL     1      -0.609  -0.936   3.468  0.00  0.00    +0.129 C 
ATOM     19  C   UNL     1       0.861  -0.641   3.808  0.00  0.00    +0.172 C 
ATOM     20  C   UNL     1       0.903   0.454   4.845  0.00  0.00    +0.011 C 
ATOM     21  C   UNL     1       0.091   0.426   5.873  0.00  0.00    -0.015 C 
ATOM     22  C   UNL     1      -0.898  -0.702   6.036  0.00  0.00    +0.174 C 
ATOM     23  C   UNL     1      -1.562  -0.969   4.676  0.00  0.00    +0.186 C 
ATOM     24  O   UNL     1      -1.174  -2.148   3.969  0.00  0.00    -0.359 OA
BRANCH  22  25
ATOM     25  O   UNL     1      -0.216  -1.877   6.480  0.00  0.00    -0.385 OA
ATOM     26  H   UNL     1       0.237  -1.772   7.328  0.00  0.00    +0.210 HD
ENDBRANCH  22  25
BRANCH  19  27
ATOM     27  O   UNL     1       1.480  -1.821   4.325  0.00  0.00    -0.385 OA
ATOM     28  H   UNL     1       2.410  -1.706   4.561  0.00  0.00    +0.210 HD
ENDBRANCH  19  27
BRANCH  21  29
ATOM     29  C   UNL     1       0.146   1.528   6.900  0.00  0.00    +0.189 C 
BRANCH  29  30
ATOM     30  O   UNL     1       1.153   2.473   6.532  0.00  0.00    -0.391 OA
ATOM     31  H   UNL     1       1.245   3.211   7.149  0.00  0.00    +0.210 HD
ENDBRANCH  29  30
ENDBRANCH  21  29
ENDBRANCH  17  18
ENDBRANCH   7  17
TORSDOF 7
