REMARK  Name = ZINC06572807
REMARK  9 active torsions:
REMARK  status: ('A' for Active; 'I' for Inactive)
REMARK    1  A    between atoms: C_1  and  C_2
REMARK    2  A    between atoms: C_5  and  N_9
REMARK    3  A    between atoms: C_6  and  C_8
REMARK    4  A    between atoms: N_9  and  C_10
REMARK    5  A    between atoms: C_10  and  N_12
REMARK    6  A    between atoms: N_12  and  N_13
REMARK    7  A    between atoms: N_13  and  C_14
REMARK    8  A    between atoms: C_14  and  N_16
REMARK    9  A    between atoms: N_16  and  C_17
REMARK                            x       y       z     vdW  Elec       q    Type
REMARK                         _______ _______ _______ _____ _____    ______ ____
ROOT
ATOM      1  N   UNL     1      -0.128  -6.184  -1.238  0.00  0.00    -0.246 N 
ATOM      2  H   UNL     1      -0.005  -6.693  -2.055  0.00  0.00    +0.172 HD
ENDROOT
BRANCH   1   3
ATOM      3  C   UNL     1      -0.053  -4.839  -1.263  0.00  0.00    +0.151 C 
ATOM      4  S   UNL     1       0.259  -4.027  -2.738  0.00  0.00    -0.017 S 
BRANCH   3   5
ATOM      5  N   UNL     1      -0.223  -4.133  -0.128  0.00  0.00    -0.296 N 
ATOM      6  H   UNL     1      -0.336  -4.595   0.718  0.00  0.00    +0.154 HD
BRANCH   5  11
ATOM      7  C   UNL     1      -0.283   1.537  -0.296  0.00  0.00    +0.044 C 
ATOM      8  C   UNL     1      -0.268   0.031  -0.252  0.00  0.00    -0.050 A 
ATOM      9  C   UNL     1       0.729  -0.669  -0.909  0.00  0.00    +0.005 A 
ATOM     10  C   UNL     1       0.746  -2.049  -0.870  0.00  0.00    +0.024 A 
ATOM     11  C   UNL     1      -0.238  -2.735  -0.170  0.00  0.00    +0.036 A 
ATOM     12  C   UNL     1      -1.237  -2.030   0.489  0.00  0.00    -0.029 A 
ATOM     13  C   UNL     1      -1.246  -0.649   0.450  0.00  0.00    +0.008 A 
ATOM     14  C   UNL     1      -2.307  -2.770   1.250  0.00  0.00    +0.045 C 
ENDBRANCH   5  11
ENDBRANCH   3   5
ENDBRANCH   1   3
BRANCH   1  15
ATOM     15  N   UNL     1      -0.383  -6.849  -0.032  0.00  0.00    -0.246 N 
ATOM     16  H   UNL     1      -0.506  -6.341   0.786  0.00  0.00    +0.172 HD
BRANCH  15  17
ATOM     17  C   UNL     1      -0.459  -8.195  -0.006  0.00  0.00    +0.151 C 
ATOM     18  S   UNL     1      -0.771  -9.007   1.468  0.00  0.00    -0.017 S 
BRANCH  17  19
ATOM     19  N   UNL     1      -0.288  -8.901  -1.141  0.00  0.00    -0.296 N 
ATOM     20  H   UNL     1      -0.033  -8.448  -1.960  0.00  0.00    +0.154 HD
BRANCH  19  21
ATOM     21  C   UNL     1      -0.480 -10.286  -1.139  0.00  0.00    +0.033 A 
ATOM     22  C   UNL     1      -1.550 -10.840  -0.448  0.00  0.00    +0.023 A 
ATOM     23  C   UNL     1      -1.736 -12.208  -0.448  0.00  0.00    +0.002 A 
ATOM     24  C   UNL     1      -0.859 -13.027  -1.135  0.00  0.00    +0.000 A 
ATOM     25  C   UNL     1       0.207 -12.479  -1.823  0.00  0.00    +0.002 A 
ATOM     26  C   UNL     1       0.397 -11.111  -1.832  0.00  0.00    +0.023 A 
ENDBRANCH  19  21
ENDBRANCH  17  19
ENDBRANCH  15  17
ENDBRANCH   1  15
TORSDOF 7
