REMARK  Name = ZINC09591959
REMARK  14 active torsions:
REMARK  status: ('A' for Active; 'I' for Inactive)
REMARK    1  A    between atoms: C_1  and  C_2
REMARK    2  A    between atoms: C_5  and  S_8
REMARK    3  A    between atoms: S_8  and  N_11
REMARK    4  A    between atoms: N_11  and  C_12
REMARK    5  A    between atoms: N_11  and  C_13
REMARK    6  A    between atoms: C_16  and  O_19
REMARK    7  A    between atoms: O_19  and  C_20
REMARK    8  A    between atoms: C_20  and  C_21
REMARK    9  A    between atoms: N_23  and  C_24
REMARK   10  A    between atoms: C_24  and  C_25
REMARK   11  A    between atoms: C_25  and  C_27
REMARK   12  A    between atoms: C_25  and  N_62
REMARK   13  A    between atoms: C_32  and  N_62
REMARK   14  A    between atoms: C_33  and  N_62
REMARK                            x       y       z     vdW  Elec       q    Type
REMARK                         _______ _______ _______ _____ _____    ______ ____
ROOT
ATOM      1  C   UNL     1      -1.528  -0.799 -10.003  0.00  0.00    +0.051 A 
ATOM      2  C   UNL     1      -2.851  -0.432 -10.210  0.00  0.00    +0.028 A 
ATOM      3  C   UNL     1      -3.627  -0.017  -9.146  0.00  0.00    +0.047 A 
ATOM      4  C   UNL     1      -3.086   0.034  -7.870  0.00  0.00    +0.121 A 
ATOM      5  C   UNL     1      -1.762  -0.328  -7.663  0.00  0.00    +0.047 A 
ATOM      6  C   UNL     1      -0.986  -0.748  -8.725  0.00  0.00    +0.028 A 
ENDROOT
BRANCH   1   7
ATOM      7  N   UNL     1      -0.740  -1.220 -11.080  0.00  0.00    -0.206 N 
ATOM      8  C   UNL     1      -1.373  -1.805 -12.265  0.00  0.00    +0.157 C 
BRANCH   7   9
ATOM      9  S   UNL     1       0.906  -1.056 -11.016  0.00  0.00    +0.074 S 
ATOM     10  O   UNL     1       1.362  -0.999 -12.361  0.00  0.00    -0.150 OA
ATOM     11  O   UNL     1       1.176  -0.024 -10.077  0.00  0.00    -0.150 OA
BRANCH   9  16
ATOM     12  C   UNL     1       3.117  -6.152  -8.661  0.00  0.00    +0.044 C 
ATOM     13  C   UNL     1       2.565  -4.879  -9.249  0.00  0.00    -0.050 A 
ATOM     14  C   UNL     1       2.263  -4.814 -10.596  0.00  0.00    +0.005 A 
ATOM     15  C   UNL     1       1.757  -3.647 -11.136  0.00  0.00    +0.029 A 
ATOM     16  C   UNL     1       1.552  -2.544 -10.328  0.00  0.00    +0.109 A 
ATOM     17  C   UNL     1       1.859  -2.607  -8.982  0.00  0.00    +0.029 A 
ATOM     18  C   UNL     1       2.361  -3.776  -8.441  0.00  0.00    +0.005 A 
ENDBRANCH   9  16
ENDBRANCH   7   9
ENDBRANCH   1   7
BRANCH   4  19
ATOM     19  O   UNL     1      -3.851   0.443  -6.823  0.00  0.00    -0.483 OA
BRANCH  19  20
ATOM     20  C   UNL     1      -3.228   0.470  -5.537  0.00  0.00    +0.324 C 
BRANCH  20  21
ATOM     21  C   UNL     1      -4.222   0.946  -4.508  0.00  0.00    +0.251 C 
ATOM     22  O   UNL     1      -5.352   1.232  -4.844  0.00  0.00    -0.272 OA
ATOM     23  N   UNL     1      -3.855   1.052  -3.216  0.00  0.00    -0.314 N 
ATOM     24  H   UNL     1      -2.952   0.823  -2.948  0.00  0.00    +0.149 HD
BRANCH  23  25
ATOM     25  C   UNL     1      -4.821   1.514  -2.216  0.00  0.00    +0.094 C 
BRANCH  25  26
ATOM     26  C   UNL     1      -4.196   1.424  -0.823  0.00  0.00    -0.014 C 
BRANCH  26  27
ATOM     27  C   UNL     1      -5.235   1.757   0.217  0.00  0.00    -0.022 A 
ATOM     28  C   UNL     1      -5.356   2.873   0.976  0.00  0.00    +0.009 A 
ATOM     29  C   UNL     1      -6.403   2.964   1.873  0.00  0.00    +0.008 A 
ATOM     30  C   UNL     1      -7.272   1.929   1.976  0.00  0.00    +0.045 A 
ATOM     31  S   UNL     1      -6.621   0.780   0.774  0.00  0.00    -0.103 S 
ENDBRANCH  26  27
BRANCH  26  34
ATOM     32  C   UNL     1      -3.271  -0.120   0.797  0.00  0.00    -0.096 C 
ATOM     33  C   UNL     1      -4.707  -0.938  -0.973  0.00  0.00    -0.096 C 
ATOM     34  N   UNL     1      -3.674   0.057  -0.614  0.00  0.00    +0.382 N 
ATOM     35  H   UNL     1      -2.854  -0.083  -1.216  0.00  0.00    -0.082 HD
ENDBRANCH  26  34
ENDBRANCH  25  26
ENDBRANCH  23  25
ENDBRANCH  20  21
ENDBRANCH  19  20
ENDBRANCH   4  19
TORSDOF 10
