REMARK  Name = ZINC16226142
REMARK  7 active torsions:
REMARK  status: ('A' for Active; 'I' for Inactive)
REMARK    1  A    between atoms: C_1  and  C_2
REMARK    2  A    between atoms: C_2  and  C_3
REMARK    3  A    between atoms: C_4  and  C_27
REMARK    4  A    between atoms: C_6  and  N_11
REMARK    5  A    between atoms: C_7  and  C_8
REMARK    6  A    between atoms: C_12  and  C_14
REMARK    7  A    between atoms: C_21  and  C_23
REMARK                            x       y       z     vdW  Elec       q    Type
REMARK                         _______ _______ _______ _____ _____    ______ ____
ROOT
ATOM      1  N   UNL     1       2.280   1.354   0.770  0.00  0.00    -0.279 N 
ATOM      2  C   UNL     1       1.398   1.591  -0.221  0.00  0.00    +0.222 C 
ATOM      3  O   UNL     1       1.738   2.232  -1.193  0.00  0.00    -0.275 OA
ATOM      4  H   UNL     1       2.008   0.841   1.548  0.00  0.00    +0.155 HD
ENDROOT
BRANCH   2   5
ATOM      5  C   UNL     1      -0.009   1.061  -0.122  0.00  0.00    +0.096 C 
ATOM      6  C   UNL     1      -0.648   0.930  -1.541  0.00  0.00    +0.025 C 
ATOM      7  C   UNL     1      -1.126   2.413  -1.773  0.00  0.00    +0.016 C 
ATOM      8  C   UNL     1      -2.003   2.433  -0.468  0.00  0.00    +0.027 C 
ATOM      9  C   UNL     1      -0.924   2.078   0.604  0.00  0.00    +0.121 C 
ATOM     10  C   UNL     1      -2.785   1.128  -0.658  0.00  0.00    -0.027 C 
ATOM     11  C   UNL     1      -2.006   0.262  -1.275  0.00  0.00    -0.027 C 
BRANCH   9  12
ATOM     12  C   UNL     1      -0.144   3.305   0.998  0.00  0.00    +0.360 C 
ATOM     13  O   UNL     1      -0.096   4.256   0.253  0.00  0.00    -0.246 OA
ATOM     14  O   UNL     1       0.498   3.343   2.176  0.00  0.00    -0.246 OA
ENDBRANCH   9  12
ENDBRANCH   2   5
BRANCH   1  18
ATOM     15  C   UNL     1       5.872   2.319   1.237  0.00  0.00    -0.024 A 
ATOM     16  C   UNL     1       5.928   2.973   0.063  0.00  0.00    -0.008 A 
ATOM     17  S   UNL     1       4.285   2.773  -0.596  0.00  0.00    -0.078 S 
ATOM     18  C   UNL     1       3.574   1.842   0.679  0.00  0.00    +0.084 A 
ATOM     19  C   UNL     1       4.614   1.707   1.591  0.00  0.00    +0.068 A 
ATOM     20  C   UNL     1       7.098   3.701  -0.548  0.00  0.00    +0.052 C 
BRANCH  19  21
ATOM     21  C   UNL     1       4.442   0.976   2.851  0.00  0.00    +0.244 C 
ATOM     22  O   UNL     1       4.674  -0.218   2.898  0.00  0.00    -0.270 OA
ATOM     23  N   UNL     1       4.028   1.626   3.957  0.00  0.00    -0.325 N 
ATOM     24  H   UNL     1       3.844   2.578   3.919  0.00  0.00    +0.145 HD
ATOM     25  H   UNL     1       3.915   1.143   4.790  0.00  0.00    +0.145 HD
ENDBRANCH  19  21
BRANCH  15  27
ATOM     26  C   UNL     1       7.064   3.420   3.112  0.00  0.00    +0.009 C 
ATOM     27  C   UNL     1       7.071   2.234   2.146  0.00  0.00    +0.033 C 
ENDBRANCH  15  27
ENDBRANCH   1  18
TORSDOF 5
