REMARK  Name = ZINC02528542
REMARK  3 active torsions:
REMARK  status: ('A' for Active; 'I' for Inactive)
REMARK    1  A    between atoms: C_6  and  C_7
REMARK    2  A    between atoms: C_9  and  C_16
REMARK    3  A    between atoms: CA_12  and  C_14
REMARK                            x       y       z     vdW  Elec       q    Type
REMARK                         _______ _______ _______ _____ _____    ______ ____
ROOT
ATOM      1  C   UNL     1      -1.332   2.114   0.020  0.00  0.00    -0.026 C 
ATOM      2  C   UNL     1      -1.662   2.618  -1.397  0.00  0.00    +0.091 C 
ATOM      3  C   UNL     1      -1.778   4.153  -1.263  0.00  0.00    +0.009 C 
ATOM      4  CA  UNL     1      -2.072   4.348   0.246  0.00  0.00    +0.045 C 
ATOM      5  N   UNL     1      -1.250   3.302   0.871  0.00  0.00    +0.393 N 
ATOM      6  H1  UNL     1      -0.276   3.617   0.941  0.00  0.00    -0.084 HD
ATOM      7  H2  UNL     1      -1.609   3.087   1.809  0.00  0.00    -0.084 HD
ENDROOT
BRANCH   1  13
ATOM      8  C   UNL     1       1.171   2.086   0.002  0.00  0.00    +0.003 A 
ATOM      9  C   UNL     1       2.377   1.412  -0.013  0.00  0.00    +0.020 A 
ATOM     10  C   UNL     1       2.397   0.029  -0.020  0.00  0.00    +0.041 A 
ATOM     11  C   UNL     1       1.208  -0.679  -0.013  0.00  0.00    +0.020 A 
ATOM     12  C   UNL     1       0.002  -0.004   0.002  0.00  0.00    +0.003 A 
ATOM     13  C   UNL     1      -0.017   1.378   0.010  0.00  0.00    -0.060 A 
ATOM     14 CL   UNL     1       3.912  -0.818  -0.039  0.00  0.00    -0.084 Cl
ENDBRANCH   1  13
BRANCH   4  15
ATOM     15  C   UNL     1      -1.653   5.722   0.700  0.00  0.00    +0.343 C 
ATOM     16  O   UNL     1      -0.567   5.886   1.205  0.00  0.00    -0.248 OA
ATOM     17  OXT UNL     1      -2.485   6.764   0.544  0.00  0.00    -0.248 OA
ENDBRANCH   4  15
BRANCH   2  18
ATOM     18  C   UNL     1      -2.969   2.034  -1.869  0.00  0.00    +0.358 C 
ATOM     19  O   UNL     1      -3.590   1.285  -1.152  0.00  0.00    -0.246 OA
ATOM     20  O   UNL     1      -3.444   2.346  -3.085  0.00  0.00    -0.246 OA
ENDBRANCH   2  18
TORSDOF 3
