REMARK  Name = ZINC06557156
REMARK  3 active torsions:
REMARK  status: ('A' for Active; 'I' for Inactive)
REMARK    1  A    between atoms: C_1  and  N_2
REMARK    2  A    between atoms: C_3  and  C_11
REMARK    3  A    between atoms: N_15  and  N_16
REMARK                            x       y       z     vdW  Elec       q    Type
REMARK                         _______ _______ _______ _____ _____    ______ ____
ROOT
ATOM      1  C   UNL     1       2.382   1.814  -0.533  0.00  0.00    +0.173 C 
ATOM      2  N   UNL     1       1.020   2.229  -0.191  0.00  0.00    -0.263 N 
ATOM      3  C   UNL     1      -0.082   1.420  -0.146  0.00  0.00    +0.111 A 
ATOM      4  C   UNL     1      -1.145   2.212   0.209  0.00  0.00    +0.004 A 
ATOM      5  C   UNL     1      -0.668   3.516   0.387  0.00  0.00    +0.067 A 
ATOM      6  N   UNL     1       0.612   3.528   0.148  0.00  0.00    -0.176 NA
ATOM      7  C   UNL     1      -1.550   4.676   0.784  0.00  0.00    +0.057 C 
ATOM      8  C   UNL     1      -3.010   4.273   0.543  0.00  0.00    +0.007 C 
ATOM      9  C   UNL     1      -3.288   2.919   1.201  0.00  0.00    +0.005 C 
ATOM     10  C   UNL     1      -2.584   1.808   0.412  0.00  0.00    +0.039 C 
ENDROOT
BRANCH   3  11
ATOM     11  C   UNL     1      -0.121  -0.025  -0.432  0.00  0.00    +0.200 A 
ATOM     12  N   UNL     1       0.914  -0.813  -0.616  0.00  0.00    -0.125 NA
ATOM     13  N   UNL     1       0.516  -2.014  -0.840  0.00  0.00    -0.120 NA
ATOM     14  C   UNL     1      -0.798  -2.066  -0.822  0.00  0.00    +0.220 A 
ATOM     15  N   UNL     1      -1.250  -0.803  -0.562  0.00  0.00    -0.222 N 
ATOM     16  S   UNL     1      -1.791  -3.498  -1.085  0.00  0.00    -0.008 SA
BRANCH  15  17
ATOM     17  N   UNL     1      -2.550  -0.398  -0.454  0.00  0.00    -0.294 N 
ATOM     18  H   UNL     1      -3.365  -1.125  -0.581  0.00  0.00    +0.163 HD
ATOM     19  H   UNL     1      -2.781   0.656  -0.241  0.00  0.00    +0.163 HD
ENDBRANCH  15  17
ENDBRANCH   3  11
TORSDOF 2
