REMARK  Name = ZINC61819155
REMARK  1 active torsions:
REMARK  status: ('A' for Active; 'I' for Inactive)
REMARK    1  A    between atoms: C_6  and  N_7
REMARK                            x       y       z     vdW  Elec       q    Type
REMARK                         _______ _______ _______ _____ _____    ______ ____
ROOT
ATOM      1  C   UNL     1       1.085   1.422  -1.192  0.00  0.00    +0.043 A 
ATOM      2  C   UNL     1       1.143   2.060   0.041  0.00  0.00    +0.038 A 
ATOM      3  C   UNL     1       1.254   1.304   1.190  0.00  0.00    +0.128 A 
ATOM      4  N   UNL     1       1.306  -0.015   1.134  0.00  0.00    -0.237 NA
ATOM      5  C   UNL     1       1.255  -0.664  -0.017  0.00  0.00    +0.142 A 
ATOM      6  C   UNL     1       1.142   0.035  -1.222  0.00  0.00    +0.066 A 
ATOM      7  N   UNL     1       1.314  -2.056  -0.029  0.00  0.00    -0.314 N 
ATOM      8  C   UNL     1       0.089  -2.858   0.092  0.00  0.00    +0.107 C 
ATOM      9  C   UNL     1       0.262  -3.852   1.244  0.00  0.00    +0.026 C 
ATOM     10  C   UNL     1       1.532  -4.675   1.016  0.00  0.00    -0.026 C 
ATOM     11  C   UNL     1       1.691  -5.691   2.150  0.00  0.00    +0.007 C 
ATOM     12  C   UNL     1       0.477  -6.622   2.174  0.00  0.00    +0.001 C 
ATOM     13  C   UNL     1       0.374  -7.361   0.838  0.00  0.00    +0.000 C 
ATOM     14  C   UNL     1       0.215  -6.345  -0.295  0.00  0.00    +0.001 C 
ATOM     15  C   UNL     1       1.429  -5.413  -0.320  0.00  0.00    +0.007 C 
ATOM     16  C   UNL     1       2.747  -3.745   0.993  0.00  0.00    +0.026 C 
ATOM     17  C   UNL     1       2.601  -2.750  -0.169  0.00  0.00    +0.107 C 
ATOM     18 BR   UNL     1       1.070   3.947   0.144  0.00  0.00    -0.049 Br
ENDROOT
BRANCH   6  19
ATOM     19  N   UNL     1       1.088  -0.652  -2.440  0.00  0.00    -0.355 N 
ATOM     20  H   UNL     1       1.098  -0.160  -3.276  0.00  0.00    +0.142 HD
ATOM     21  H   UNL     1       1.040  -1.621  -2.449  0.00  0.00    +0.142 HD
ENDBRANCH   6  19
TORSDOF 1
