REMARK  Name = ZINC12437626
REMARK  8 active torsions:
REMARK  status: ('A' for Active; 'I' for Inactive)
REMARK    1  A    between atoms: C_1  and  C_2
REMARK    2  A    between atoms: C_5  and  S_8
REMARK    3  A    between atoms: S_8  and  N_11
REMARK    4  A    between atoms: N_11  and  N_12
REMARK    5  A    between atoms: C_14  and  C_23
REMARK    6  A    between atoms: N_25  and  C_26
REMARK    7  A    between atoms: C_29  and  O_32
REMARK    8  A    between atoms: O_32  and  C_33
REMARK                            x       y       z     vdW  Elec       q    Type
REMARK                         _______ _______ _______ _____ _____    ______ ____
ROOT
ATOM      1  N   UNL     1       3.301  -3.610  -0.173  0.00  0.00    -0.260 N 
ATOM      2  C   UNL     1       4.393  -4.285   0.053  0.00  0.00    +0.225 A 
ATOM      3  C   UNL     1       5.050  -4.252   1.380  0.00  0.00    +0.099 A 
ATOM      4  C   UNL     1       5.808  -5.343   1.733  0.00  0.00    +0.030 A 
ATOM      5  C   UNL     1       5.902  -6.447   0.770  0.00  0.00    +0.018 A 
ATOM      6  C   UNL     1       6.421  -7.687   1.154  0.00  0.00    +0.011 A 
ATOM      7  C   UNL     1       6.496  -8.709   0.232  0.00  0.00    +0.001 A 
ATOM      8  C   UNL     1       6.060  -8.513  -1.069  0.00  0.00    +0.004 A 
ATOM      9  C   UNL     1       5.545  -7.292  -1.462  0.00  0.00    +0.047 A 
ATOM     10  C   UNL     1       5.463  -6.251  -0.551  0.00  0.00    +0.137 A 
ATOM     11  O   UNL     1       4.963  -5.049  -0.924  0.00  0.00    -0.437 OA
ATOM     12  H   UNL     1       2.863  -3.139   0.553  0.00  0.00    +0.189 HD
ENDROOT
BRANCH   3  13
ATOM     13  C   UNL     1       4.899  -3.099   2.283  0.00  0.00    +0.253 C 
ATOM     14  O   UNL     1       4.160  -2.182   1.979  0.00  0.00    -0.270 OA
ATOM     15  N   UNL     1       5.580  -3.059   3.445  0.00  0.00    -0.281 N 
ATOM     16  H   UNL     1       6.239  -3.743   3.645  0.00  0.00    +0.155 HD
BRANCH  15  17
ATOM     17  C   UNL     1       5.338  -2.030   4.364  0.00  0.00    +0.034 A 
ATOM     18  C   UNL     1       4.064  -1.488   4.478  0.00  0.00    +0.027 A 
ATOM     19  C   UNL     1       3.826  -0.473   5.385  0.00  0.00    +0.047 A 
ATOM     20  C   UNL     1       4.857   0.004   6.180  0.00  0.00    +0.120 A 
ATOM     21  C   UNL     1       6.129  -0.538   6.066  0.00  0.00    +0.047 A 
ATOM     22  C   UNL     1       6.368  -1.557   5.165  0.00  0.00    +0.027 A 
BRANCH  20  23
ATOM     23  O   UNL     1       4.622   1.003   7.072  0.00  0.00    -0.495 OA
ATOM     24  C   UNL     1       5.730   1.445   7.858  0.00  0.00    +0.277 C 
ENDBRANCH  20  23
ENDBRANCH  15  17
ENDBRANCH   3  13
BRANCH   1  25
ATOM     25  N   UNL     1       2.761  -3.564  -1.464  0.00  0.00    -0.157 N 
ATOM     26  H   UNL     1       3.156  -4.093  -2.175  0.00  0.00    +0.194 HD
BRANCH  25  27
ATOM     27  S   UNL     1       1.447  -2.607  -1.779  0.00  0.00    +0.085 S 
ATOM     28  O   UNL     1       0.404  -3.054  -0.923  0.00  0.00    -0.149 OA
ATOM     29  O   UNL     1       1.306  -2.561  -3.192  0.00  0.00    -0.149 OA
BRANCH  27  34
ATOM     30  C   UNL     1       2.848   2.989  -0.007  0.00  0.00    +0.044 C 
ATOM     31  C   UNL     1       2.498   1.591  -0.450  0.00  0.00    -0.050 A 
ATOM     32  C   UNL     1       2.867   1.151  -1.707  0.00  0.00    +0.005 A 
ATOM     33  C   UNL     1       2.546  -0.131  -2.113  0.00  0.00    +0.029 A 
ATOM     34  C   UNL     1       1.857  -0.973  -1.261  0.00  0.00    +0.110 A 
ATOM     35  C   UNL     1       1.488  -0.533  -0.003  0.00  0.00    +0.029 A 
ATOM     36  C   UNL     1       1.812   0.747   0.404  0.00  0.00    +0.005 A 
ENDBRANCH  27  34
ENDBRANCH  25  27
ENDBRANCH   1  25
TORSDOF 6
