REMARK  Name = ZINC39410180
REMARK  9 active torsions:
REMARK  status: ('A' for Active; 'I' for Inactive)
REMARK    1  A    between atoms: C_1  and  C_2
REMARK    2  A    between atoms: C_4  and  C_30
REMARK    3  A    between atoms: C_6  and  N_14
REMARK    4  A    between atoms: C_9  and  C_11
REMARK    5  A    between atoms: C_15  and  C_17
REMARK    6  A    between atoms: C_17  and  C_28
REMARK    7  A    between atoms: C_18  and  C_19
REMARK    8  A    between atoms: C_30  and  O_32
REMARK    9  A    between atoms: O_32  and  C_33
REMARK                            x       y       z     vdW  Elec       q    Type
REMARK                         _______ _______ _______ _____ _____    ______ ____
ROOT
ATOM      1  N   UNL     1       0.743  -2.878  -1.922  0.00  0.00    -0.298 N 
ATOM      2  C   UNL     1       1.486  -3.728  -2.657  0.00  0.00    +0.255 C 
ATOM      3  O   UNL     1       2.700  -3.647  -2.639  0.00  0.00    -0.269 OA
ATOM      4  H   UNL     1      -0.225  -2.943  -1.936  0.00  0.00    +0.150 HD
ENDROOT
BRANCH   1   8
ATOM      5  C   UNL     1      -0.019   1.526   0.010  0.00  0.00    +0.010 C 
ATOM      6  C   UNL     1       0.002  -0.004   0.002  0.00  0.00    +0.024 C 
ATOM      7  C   UNL     1       0.694  -0.493  -1.269  0.00  0.00    +0.132 C 
ATOM      8  C   UNL     1       1.396  -1.855  -1.101  0.00  0.00    +0.146 C 
ATOM      9  S   UNL     1       1.184  -2.220   0.691  0.00  0.00    -0.125 S 
ATOM     10  C   UNL     1       0.762  -0.515   1.258  0.00  0.00    +0.137 C 
BRANCH  10  11
ATOM     11  C   UNL     1      -0.136  -0.547   2.468  0.00  0.00    +0.224 C 
ATOM     12  O   UNL     1      -1.310  -0.828   2.345  0.00  0.00    -0.275 OA
ATOM     13  N   UNL     1       0.365  -0.262   3.687  0.00  0.00    -0.328 N 
ATOM     14  H   UNL     1       1.303  -0.037   3.785  0.00  0.00    +0.145 HD
ATOM     15  H   UNL     1      -0.213  -0.282   4.465  0.00  0.00    +0.145 HD
ENDBRANCH  10  11
BRANCH   7  16
ATOM     16  C   UNL     1      -0.335  -0.616  -2.363  0.00  0.00    +0.313 C 
ATOM     17  O   UNL     1      -1.490  -0.340  -2.139  0.00  0.00    -0.250 OA
BRANCH  16  18
ATOM     18  O   UNL     1       0.031  -1.032  -3.586  0.00  0.00    -0.468 OA
ATOM     19  C   UNL     1      -0.997  -1.125  -4.574  0.00  0.00    +0.280 C 
ENDBRANCH  16  18
ENDBRANCH   7  16
ENDBRANCH   1   8
BRANCH   2  20
ATOM     20  C   UNL     1       0.830  -4.758  -3.482  0.00  0.00    +0.114 C 
ATOM     21  C   UNL     1       1.594  -5.632  -4.238  0.00  0.00    +0.030 C 
BRANCH  21  22
ATOM     22  C   UNL     1       0.970  -6.609  -5.022  0.00  0.00    -0.018 C 
ATOM     23  C   UNL     1       1.585  -7.561  -5.828  0.00  0.00    +0.003 A 
ATOM     24  C   UNL     1       2.938  -7.847  -6.112  0.00  0.00    +0.010 A 
ATOM     25  C   UNL     1       3.260  -8.856  -6.955  0.00  0.00    +0.001 A 
ATOM     26  C   UNL     1       2.289  -9.652  -7.578  0.00  0.00    +0.002 A 
ATOM     27  C   UNL     1       0.967  -9.459  -7.371  0.00  0.00    +0.026 A 
ATOM     28  C   UNL     1       0.534  -8.383  -6.468  0.00  0.00    +0.043 A 
ATOM     29  N   UNL     1      -0.652  -7.981  -6.096  0.00  0.00    -0.380 N 
ATOM     30  C   UNL     1      -0.516  -6.857  -5.165  0.00  0.00    +0.149 C 
ATOM     31  H   UNL     1      -1.492  -8.370  -6.386  0.00  0.00    +0.160 HD
ENDBRANCH  21  22
BRANCH  20  32
ATOM     32  C   UNL     1      -0.599  -4.854  -3.503  0.00  0.00    +0.104 C 
ATOM     33  N   UNL     1      -1.732  -4.930  -3.520  0.00  0.00    -0.191 NA
ENDBRANCH  20  32
ENDBRANCH   2  20
TORSDOF 7
