REMARK  Name = ZINC05176146
REMARK  5 active torsions:
REMARK  status: ('A' for Active; 'I' for Inactive)
REMARK    1  A    between atoms: C_6  and  C_7
REMARK    2  A    between atoms: N_8  and  N_9
REMARK    3  A    between atoms: C_10  and  C_12
REMARK    4  A    between atoms: C_15  and  N_18
REMARK    5  A    between atoms: C_19  and  C_21
REMARK                            x       y       z     vdW  Elec       q    Type
REMARK                         _______ _______ _______ _____ _____    ______ ____
ROOT
ATOM      1  C   UNL     1      -3.693  -4.878   0.029  0.00  0.00    +0.038 A 
ATOM      2  C   UNL     1      -4.908  -4.215   0.220  0.00  0.00    +0.015 A 
ATOM      3  C   UNL     1      -6.086  -4.927   0.222  0.00  0.00    +0.024 A 
ATOM      4  C   UNL     1      -6.068  -6.306   0.035  0.00  0.00    +0.034 A 
ATOM      5  C   UNL     1      -4.859  -6.969  -0.155  0.00  0.00    +0.024 A 
ATOM      6  C   UNL     1      -3.678  -6.262  -0.165  0.00  0.00    +0.015 A 
ENDROOT
BRANCH   1   8
ATOM      7  N   UNL     1      -2.444  -2.783   0.213  0.00  0.00    -0.203 N 
ATOM      8  C   UNL     1      -2.428  -4.118   0.026  0.00  0.00    +0.263 C 
ATOM      9  O   UNL     1      -1.372  -4.696  -0.144  0.00  0.00    -0.268 OA
ATOM     10  H   UNL     1      -3.286  -2.322   0.350  0.00  0.00    +0.178 HD
BRANCH   7  12
ATOM     11  C   UNL     1      -1.258  -0.776   0.391  0.00  0.00    +0.138 C 
ATOM     12  N   UNL     1      -1.243  -2.062   0.211  0.00  0.00    -0.187 NA
BRANCH  11  18
ATOM     13  C   UNL     1      -0.007   1.367   0.582  0.00  0.00    +0.012 A 
ATOM     14  C   UNL     1       1.178   2.072   0.579  0.00  0.00    +0.039 A 
ATOM     15  C   UNL     1       2.380   1.411   0.384  0.00  0.00    +0.123 A 
ATOM     16  C   UNL     1       2.400   0.038   0.192  0.00  0.00    +0.039 A 
ATOM     17  C   UNL     1       1.221  -0.678   0.193  0.00  0.00    +0.012 A 
ATOM     18  C   UNL     1       0.006  -0.017   0.388  0.00  0.00    -0.005 A 
ATOM     19  F   UNL     1       3.538   2.107   0.382  0.00  0.00    -0.205 F 
ENDBRANCH  11  18
ENDBRANCH   7  12
ENDBRANCH   1   8
BRANCH   4  20
ATOM     20  N   UNL     1      -7.262  -7.024   0.038  0.00  0.00    -0.282 N 
ATOM     21  C   UNL     1      -8.388  -6.462  -0.446  0.00  0.00    +0.248 C 
ATOM     22  O   UNL     1      -8.343  -5.367  -0.972  0.00  0.00    -0.270 OA
ATOM     23  H   UNL     1      -7.283  -7.928   0.389  0.00  0.00    +0.155 HD
BRANCH  21  24
ATOM     24  C   UNL     1      -9.676  -7.176  -0.336  0.00  0.00    +0.037 A 
ATOM     25  C   UNL     1      -9.732  -8.431   0.274  0.00  0.00    +0.014 A 
ATOM     26  C   UNL     1     -10.938  -9.093   0.374  0.00  0.00    +0.021 A 
ATOM     27  C   UNL     1     -12.092  -8.515  -0.129  0.00  0.00    +0.041 A 
ATOM     28  C   UNL     1     -12.043  -7.271  -0.735  0.00  0.00    +0.021 A 
ATOM     29  C   UNL     1     -10.844  -6.597  -0.836  0.00  0.00    +0.014 A 
ATOM     30 CL   UNL     1     -13.606  -9.355   0.000  0.00  0.00    -0.084 Cl
ENDBRANCH  21  24
ENDBRANCH   4  20
TORSDOF 5
