REMARK  Name = ZINC39211115
REMARK  5 active torsions:
REMARK  status: ('A' for Active; 'I' for Inactive)
REMARK    1  A    between atoms: C_4  and  N_7
REMARK    2  A    between atoms: N_8  and  C_9
REMARK    3  A    between atoms: C_12  and  N_15
REMARK    4  A    between atoms: C_19  and  C_20
REMARK    5  A    between atoms: C_25  and  C_26
REMARK                            x       y       z     vdW  Elec       q    Type
REMARK                         _______ _______ _______ _____ _____    ______ ____
ROOT
ATOM      1  N   UNL     1       8.458  -4.607  -0.105  0.00  0.00    -0.215 N 
ATOM      2  C   UNL     1       8.476  -5.927  -0.022  0.00  0.00    +0.263 C 
ATOM      3  O   UNL     1       7.450  -6.573   0.068  0.00  0.00    -0.269 OA
ATOM      4  C   UNL     1       9.806  -6.581  -0.045  0.00  0.00    +0.075 C 
ATOM      5  C   UNL     1      10.114  -7.881   0.021  0.00  0.00    +0.009 C 
ATOM      6  S   UNL     1      10.889  -5.166  -0.187  0.00  0.00    -0.049 S 
ATOM      7  C   UNL     1       9.638  -3.893  -0.212  0.00  0.00    +0.165 C 
ATOM      8  N   UNL     1       9.797  -2.603  -0.307  0.00  0.00    -0.279 NA
ATOM      9  H   UNL     1      10.690  -2.228  -0.377  0.00  0.00    +0.189 HD
ENDROOT
BRANCH   1  13
ATOM     10  C   UNL     1       4.813  -2.583  -0.058  0.00  0.00    +0.086 A 
ATOM     11  C   UNL     1       5.367  -3.001  -1.272  0.00  0.00    +0.031 A 
ATOM     12  C   UNL     1       6.571  -3.669  -1.283  0.00  0.00    +0.026 A 
ATOM     13  C   UNL     1       7.236  -3.928  -0.089  0.00  0.00    +0.044 A 
ATOM     14  C   UNL     1       6.689  -3.514   1.121  0.00  0.00    +0.026 A 
ATOM     15  C   UNL     1       5.488  -2.840   1.140  0.00  0.00    +0.031 A 
BRANCH  10  17
ATOM     16  N   UNL     1       2.999  -1.683  -1.148  0.00  0.00    -0.149 NA
ATOM     17  N   UNL     1       3.620  -1.920  -0.043  0.00  0.00    -0.149 NA
BRANCH  16  21
ATOM     18  C   UNL     1      -0.617   0.325  -1.102  0.00  0.00    +0.000 A 
ATOM     19  C   UNL     1      -0.076  -0.092  -2.306  0.00  0.00    +0.002 A 
ATOM     20  C   UNL     1       1.129  -0.762  -2.329  0.00  0.00    +0.029 A 
ATOM     21  C   UNL     1       1.804  -1.019  -1.133  0.00  0.00    +0.086 A 
ATOM     22  C   UNL     1       1.252  -0.596   0.079  0.00  0.00    +0.029 A 
ATOM     23  C   UNL     1       0.046   0.073   0.086  0.00  0.00    +0.002 A 
ENDBRANCH  16  21
ENDBRANCH  10  17
ENDBRANCH   1  13
BRANCH   5  24
ATOM     24  C   UNL     1      11.555  -8.318  -0.021  0.00  0.00    +0.107 C 
ATOM     25  C   UNL     1      11.784  -9.297  -1.155  0.00  0.00    +0.121 C 
ATOM     26  N   UNL     1      12.178 -10.399  -0.604  0.00  0.00    -0.161 NA
ATOM     27  N   UNL     1      12.252 -10.305   0.782  0.00  0.00    -0.153 NA
ATOM     28  C   UNL     1      11.907  -9.120   1.217  0.00  0.00    +0.083 C 
BRANCH  28  29
ATOM     29  C   UNL     1      11.867  -8.660   2.613  0.00  0.00    -0.001 A 
ATOM     30  C   UNL     1      11.466  -7.354   2.912  0.00  0.00    +0.012 A 
ATOM     31  C   UNL     1      11.430  -6.930   4.222  0.00  0.00    +0.039 A 
ATOM     32  C   UNL     1      11.791  -7.795   5.244  0.00  0.00    +0.123 A 
ATOM     33  C   UNL     1      12.190  -9.091   4.955  0.00  0.00    +0.039 A 
ATOM     34  C   UNL     1      12.224  -9.530   3.650  0.00  0.00    +0.012 A 
ATOM     35  F   UNL     1      11.755  -7.372   6.527  0.00  0.00    -0.205 F 
ENDBRANCH  28  29
ENDBRANCH   5  24
TORSDOF 5
