REMARK  Name = ZINC39104871
REMARK  4 active torsions:
REMARK  status: ('A' for Active; 'I' for Inactive)
REMARK    1  A    between atoms: C_1  and  C_2
REMARK    2  A    between atoms: C_2  and  C_3
REMARK    3  A    between atoms: C_2  and  C_4
REMARK    4  A    between atoms: N_10  and  C_11
REMARK                            x       y       z     vdW  Elec       q    Type
REMARK                         _______ _______ _______ _____ _____    ______ ____
ROOT
ATOM      1  C   UNL     1      -1.433  -0.534   0.013  0.00  0.00    +0.087 C 
ATOM      2  C   UNL     1      -2.153  -0.025   1.290  0.00  0.00    +0.098 C 
ATOM      3  S   UNL     1      -1.879  -1.491   2.373  0.00  0.00    -0.101 S 
ATOM      4  C   UNL     1      -1.577  -2.699   1.094  0.00  0.00    +0.109 C 
ATOM      5  S   UNL     1      -1.518  -4.401   1.265  0.00  0.00    -0.028 S 
ATOM      6  N   UNL     1      -1.405  -1.984  -0.033  0.00  0.00    -0.318 N 
ATOM      7  C   UNL     1      -1.189  -2.673  -1.308  0.00  0.00    +0.130 C 
ENDROOT
BRANCH   1   9
ATOM      8  C   UNL     1      -0.019   1.526   0.010  0.00  0.00    +0.009 C 
ATOM      9  C   UNL     1       0.002  -0.004   0.002  0.00  0.00    +0.004 C 
ATOM     10  C   UNL     1       0.742  -0.511   1.242  0.00  0.00    +0.009 C 
ENDBRANCH   1   9
TORSDOF 1
