REMARK  Name = ZINC59502767
REMARK  3 active torsions:
REMARK  status: ('A' for Active; 'I' for Inactive)
REMARK    1  A    between atoms: C_1  and  C_2
REMARK    2  A    between atoms: C_5  and  C_7
REMARK    3  A    between atoms: N_8  and  N_9
REMARK                            x       y       z     vdW  Elec       q    Type
REMARK                         _______ _______ _______ _____ _____    ______ ____
ROOT
ATOM      1  N   UNL     1       3.818  -4.118  -0.040  0.00  0.00    -0.127 N 
ATOM      2  C   UNL     1       3.396  -5.421  -0.051  0.00  0.00    +0.246 C 
ATOM      3  O   UNL     1       2.273  -5.824  -0.267  0.00  0.00    -0.273 OA
ATOM      4  C   UNL     1       4.608  -6.245   0.256  0.00  0.00    +0.097 C 
ATOM      5  C   UNL     1       4.805  -7.627  -0.331  0.00  0.00    +0.024 C 
ATOM      6  C   UNL     1       6.026  -8.183   0.491  0.00  0.00    +0.009 C 
ATOM      7  C   UNL     1       7.085  -7.075   0.555  0.00  0.00    +0.009 C 
ATOM      8  C   UNL     1       6.907  -6.075  -0.597  0.00  0.00    +0.024 C 
ATOM      9  C   UNL     1       5.655  -5.314  -0.415  0.00  0.00    +0.097 C 
ATOM     10  C   UNL     1       5.191  -3.996  -0.046  0.00  0.00    +0.246 C 
ATOM     11  O   UNL     1       5.856  -3.013   0.203  0.00  0.00    -0.273 OA
ATOM     12  C   UNL     1       6.565  -6.887  -1.861  0.00  0.00    -0.027 C 
ATOM     13  C   UNL     1       5.420  -7.590  -1.733  0.00  0.00    -0.027 C 
ENDROOT
BRANCH   1  15
ATOM     14  C   UNL     1       1.658  -3.216  -0.025  0.00  0.00    +0.177 C 
ATOM     15  N   UNL     1       2.945  -3.022  -0.030  0.00  0.00    -0.175 NA
BRANCH  14  20
ATOM     16  C   UNL     1      -0.018   1.503   0.010  0.00  0.00    +0.086 C 
ATOM     17  C   UNL     1       0.002  -0.004   0.002  0.00  0.00    +0.103 A 
ATOM     18  C   UNL     1      -1.084  -0.805   0.003  0.00  0.00    +0.045 A 
ATOM     19  C   UNL     1      -0.619  -2.132  -0.007  0.00  0.00    +0.051 A 
ATOM     20  C   UNL     1       0.745  -2.071  -0.013  0.00  0.00    +0.148 A 
ATOM     21  O   UNL     1       1.104  -0.771  -0.013  0.00  0.00    -0.459 OA
ENDBRANCH  14  20
ENDBRANCH   1  15
TORSDOF 2
