REMARK  Name = ZINC00534518
REMARK  8 active torsions:
REMARK  status: ('A' for Active; 'I' for Inactive)
REMARK    1  A    between atoms: C_1  and  C_2
REMARK    2  A    between atoms: C_4  and  C_18
REMARK    3  A    between atoms: C_6  and  N_17
REMARK    4  A    between atoms: C_7  and  C_11
REMARK    5  A    between atoms: C_11  and  C_13
REMARK    6  A    between atoms: C_13  and  C_14
REMARK    7  A    between atoms: C_13  and  C_15
REMARK    8  A    between atoms: C_13  and  C_16
REMARK                            x       y       z     vdW  Elec       q    Type
REMARK                         _______ _______ _______ _____ _____    ______ ____
ROOT
ATOM      1  C   UNL     1       0.002  -0.004   0.002  0.00  0.00    +0.065 C 
ATOM      2  C   UNL     1      -0.018   1.503   0.010  0.00  0.00    +0.040 A 
ATOM      3  C   UNL     1       1.176   2.208   0.003  0.00  0.00    +0.036 A 
ATOM      4  C   UNL     1       1.172   3.583   0.010  0.00  0.00    +0.068 A 
ATOM      5  C   UNL     1      -0.070   4.266   0.026  0.00  0.00    +0.041 A 
ATOM      6  C   UNL     1      -0.316   5.699   0.035  0.00  0.00    +0.052 A 
ATOM      7  C   UNL     1      -1.629   6.137   0.050  0.00  0.00    +0.078 A 
ATOM      8  S   UNL     1      -2.567   4.622   0.051  0.00  0.00    -0.064 S 
ATOM      9  C   UNL     1      -1.228   3.457   0.032  0.00  0.00    +0.111 A 
ATOM     10  N   UNL     1      -1.172   2.142   0.019  0.00  0.00    -0.245 NA
ENDROOT
BRANCH   4  11
ATOM     11  C   UNL     1       2.468   4.351   0.002  0.00  0.00    +0.418 C 
ATOM     12  F   UNL     1       3.542   3.455  -0.012  0.00  0.00    -0.166 F 
ATOM     13  F   UNL     1       2.523   5.163  -1.136  0.00  0.00    -0.166 F 
ATOM     14  F   UNL     1       2.544   5.150   1.148  0.00  0.00    -0.166 F 
ENDBRANCH   4  11
BRANCH   6  15
ATOM     15  N   UNL     1       0.734   6.601   0.030  0.00  0.00    -0.356 N 
ATOM     16  H   UNL     1       1.649   6.280   0.020  0.00  0.00    +0.142 HD
ATOM     17  H   UNL     1       0.555   7.554   0.036  0.00  0.00    +0.142 HD
ENDBRANCH   6  15
BRANCH   7  18
ATOM     18  C   UNL     1      -2.106   7.458   0.061  0.00  0.00    +0.177 C 
ATOM     19  O   UNL     1      -1.323   8.387   0.059  0.00  0.00    -0.291 OA
BRANCH  18  20
ATOM     20  C   UNL     1      -3.590   7.723   0.076  0.00  0.00    +0.026 C 
ATOM     21  C   UNL     1      -3.839   9.232   0.086  0.00  0.00    +0.019 C 
ATOM     22  C   UNL     1      -4.230   7.109  -1.171  0.00  0.00    +0.019 C 
ATOM     23  C   UNL     1      -4.207   7.096   1.327  0.00  0.00    +0.019 C 
ENDBRANCH  18  20
ENDBRANCH   7  18
TORSDOF 4
