REMARK  Name = ZINC09199436
REMARK  13 active torsions:
REMARK  status: ('A' for Active; 'I' for Inactive)
REMARK    1  A    between atoms: C_1  and  C_2
REMARK    2  A    between atoms: C_2  and  C_3
REMARK    3  A    between atoms: C_3  and  C_4
REMARK    4  A    between atoms: C_4  and  N_5
REMARK    5  A    between atoms: C_9  and  S_30
REMARK    6  A    between atoms: C_13  and  C_14
REMARK    7  A    between atoms: C_14  and  N_65
REMARK    8  A    between atoms: C_18  and  C_20
REMARK    9  A    between atoms: C_22  and  O_28
REMARK   10  A    between atoms: C_25  and  O_26
REMARK   11  A    between atoms: O_26  and  C_27
REMARK   12  A    between atoms: O_28  and  C_29
REMARK   13  A    between atoms: S_30  and  N_33
REMARK                            x       y       z     vdW  Elec       q    Type
REMARK                         _______ _______ _______ _____ _____    ______ ____
ROOT
ATOM      1  N   UNL     1      -5.448   1.124   5.259  0.00  0.00    -0.329 N 
ATOM      2  C   UNL     1      -6.628   1.631   5.764  0.00  0.00    +0.069 A 
ATOM      3  C   UNL     1      -7.893   1.847   5.233  0.00  0.00    +0.030 A 
ATOM      4  C   UNL     1      -8.881   2.393   6.025  0.00  0.00    +0.030 A 
ATOM      5  C   UNL     1      -8.620   2.725   7.346  0.00  0.00    +0.107 A 
ATOM      6  C   UNL     1      -7.382   2.520   7.885  0.00  0.00    +0.058 A 
ATOM      7  C   UNL     1      -6.364   1.969   7.102  0.00  0.00    +0.091 A 
ATOM      8  N   UNL     1      -5.066   1.651   7.341  0.00  0.00    -0.234 NA
ATOM      9  C   UNL     1      -4.532   1.154   6.264  0.00  0.00    +0.094 A 
ENDROOT
BRANCH   5  10
ATOM     10  S   UNL     1      -9.899   3.420   8.340  0.00  0.00    +0.056 S 
ATOM     11  O   UNL     1      -9.257   4.150   9.377  0.00  0.00    -0.153 OA
ATOM     12  O   UNL     1     -10.825   4.022   7.446  0.00  0.00    -0.153 OA
BRANCH  10  13
ATOM     13  N   UNL     1     -10.692   2.162   9.068  0.00  0.00    -0.204 NA
ATOM     14  H   UNL     1     -11.105   2.286   9.937  0.00  0.00    +0.144 HD
ATOM     15  H   UNL     1     -10.744   1.300   8.625  0.00  0.00    +0.144 HD
ENDBRANCH  10  13
ENDBRANCH   5  10
BRANCH   1  16
ATOM     16  C   UNL     1      -5.224   0.639   3.894  0.00  0.00    +0.123 C 
BRANCH  16  17
ATOM     17  C   UNL     1      -5.613  -0.838   3.808  0.00  0.00    +0.021 C 
BRANCH  17  19
ATOM     18  C   UNL     1      -5.863  -2.796   2.276  0.00  0.00    +0.004 C 
ATOM     19  C   UNL     1      -5.474  -1.318   2.362  0.00  0.00    -0.002 C 
ENDBRANCH  17  19
ENDBRANCH  16  17
ENDBRANCH   1  16
BRANCH   9  20
ATOM     20  C   UNL     1      -3.104   0.686   6.145  0.00  0.00    -0.002 C 
BRANCH  20  25
ATOM     21  C   UNL     1      -2.359   2.985   6.482  0.00  0.00    -0.077 C 
ATOM     22  C   UNL     1      -1.083   3.781   6.112  0.00  0.00    -0.020 C 
ATOM     23  C   UNL     1      -0.030   2.669   5.901  0.00  0.00    -0.012 C 
ATOM     24  C   UNL     1      -0.844   1.396   5.604  0.00  0.00    -0.033 C 
ATOM     25  N   UNL     1      -2.251   1.796   5.618  0.00  0.00    +0.389 N 
ATOM     26  H   UNL     1      -2.555   2.031   4.666  0.00  0.00    -0.080 HD
BRANCH  24  27
ATOM     27  C   UNL     1      -0.471   0.853   4.248  0.00  0.00    -0.016 A 
ATOM     28  C   UNL     1      -1.199   1.219   3.133  0.00  0.00    +0.051 A 
ATOM     29  C   UNL     1      -0.856   0.718   1.886  0.00  0.00    +0.121 A 
ATOM     30  C   UNL     1       0.215  -0.154   1.759  0.00  0.00    +0.049 A 
ATOM     31  C   UNL     1       0.947  -0.515   2.874  0.00  0.00    +0.049 A 
ATOM     32  C   UNL     1       0.603  -0.015   4.121  0.00  0.00    +0.122 A 
BRANCH  32  33
ATOM     33  O   UNL     1       1.320  -0.376   5.219  0.00  0.00    -0.495 OA
ATOM     34  C   UNL     1       2.413  -1.273   5.014  0.00  0.00    +0.277 C 
ENDBRANCH  32  33
BRANCH  29  35
ATOM     35  O   UNL     1      -1.573   1.079   0.788  0.00  0.00    -0.495 OA
ATOM     36  C   UNL     1      -1.163   0.525  -0.465  0.00  0.00    +0.277 C 
ENDBRANCH  29  35
ENDBRANCH  24  27
ENDBRANCH  20  25
ENDBRANCH   9  20
TORSDOF 10
