REMARK  Name = ZINC36535454
REMARK  11 active torsions:
REMARK  status: ('A' for Active; 'I' for Inactive)
REMARK    1  A    between atoms: C_1  and  C_2
REMARK    2  A    between atoms: C_2  and  C_3
REMARK    3  A    between atoms: C_3  and  C_4
REMARK    4  A    between atoms: N_6  and  C_7
REMARK    5  A    between atoms: N_6  and  C_8
REMARK    6  A    between atoms: C_8  and  C_10
REMARK    7  A    between atoms: C_8  and  C_19
REMARK    8  A    between atoms: C_11  and  O_18
REMARK    9  A    between atoms: C_13  and  O_17
REMARK   10  A    between atoms: C_15  and  O_16
REMARK   11  A    between atoms: N_21  and  C_22
REMARK                            x       y       z     vdW  Elec       q    Type
REMARK                         _______ _______ _______ _____ _____    ______ ____
ROOT
ATOM      1  C   UNL     1       1.302  -4.194   2.130  0.00  0.00    +0.199 C 
ENDROOT
BRANCH   1   2
ATOM      2  C   UNL     1       0.517  -4.104   3.413  0.00  0.00    +0.065 A 
ATOM      3  C   UNL     1       1.067  -4.571   4.597  0.00  0.00    +0.129 A 
ATOM      4  C   UNL     1       0.345  -4.487   5.778  0.00  0.00    +0.091 A 
ATOM      5  C   UNL     1      -0.927  -3.937   5.775  0.00  0.00    +0.124 A 
ATOM      6  C   UNL     1      -1.478  -3.469   4.592  0.00  0.00    +0.091 A 
ATOM      7  C   UNL     1      -0.754  -3.548   3.412  0.00  0.00    +0.129 A 
BRANCH   7   8
ATOM      8  O   UNL     1      -1.291  -3.086   2.252  0.00  0.00    -0.506 OA
ATOM      9  H   UNL     1      -1.795  -3.748   1.760  0.00  0.00    +0.292 HD
ENDBRANCH   7   8
BRANCH   5  10
ATOM     10  O   UNL     1      -1.635  -3.856   6.933  0.00  0.00    -0.507 OA
ATOM     11  H   UNL     1      -1.495  -3.034   7.423  0.00  0.00    +0.292 HD
ENDBRANCH   5  10
BRANCH   3  12
ATOM     12  O   UNL     1       2.315  -5.110   4.600  0.00  0.00    -0.506 OA
ATOM     13  H   UNL     1       3.012  -4.487   4.846  0.00  0.00    +0.292 HD
ENDBRANCH   3  12
ENDBRANCH   1   2
BRANCH   1  16
ATOM     14  C   UNL     1       0.824  -2.950   0.091  0.00  0.00    +0.216 C 
ATOM     15  O   UNL     1       0.610  -4.005  -0.468  0.00  0.00    -0.276 OA
ATOM     16  N   UNL     1       1.177  -2.935   1.391  0.00  0.00    -0.289 N 
ATOM     17  C   UNL     1       1.435  -1.661   2.067  0.00  0.00    +0.133 C 
BRANCH  14  18
ATOM     18  C   UNL     1       0.695  -1.655  -0.669  0.00  0.00    +0.096 C 
BRANCH  18  20
ATOM     19  C   UNL     1       0.156  -0.635  -2.886  0.00  0.00    +0.004 C 
ATOM     20  C   UNL     1       0.287  -1.950  -2.114  0.00  0.00    +0.006 C 
ENDBRANCH  18  20
ENDBRANCH  14  18
ENDBRANCH   1  16
BRANCH   1  21
ATOM     21  C   UNL     1       2.753  -4.449   2.446  0.00  0.00    +0.239 C 
ATOM     22  O   UNL     1       3.512  -3.517   2.605  0.00  0.00    -0.273 OA
ATOM     23  N   UNL     1       3.208  -5.714   2.551  0.00  0.00    -0.311 N 
ATOM     24  H   UNL     1       2.610  -6.460   2.384  0.00  0.00    +0.149 HD
BRANCH  23  25
ATOM     25  C   UNL     1       4.604  -5.962   2.916  0.00  0.00    +0.073 C 
ATOM     26  C   UNL     1       5.477  -5.908   1.661  0.00  0.00    +0.022 C 
ATOM     27  C   UNL     1       6.936  -6.167   2.042  0.00  0.00    +0.002 C 
ATOM     28  C   UNL     1       7.056  -7.549   2.688  0.00  0.00    +0.000 C 
ATOM     29  C   UNL     1       6.184  -7.603   3.943  0.00  0.00    +0.002 C 
ATOM     30  C   UNL     1       4.725  -7.344   3.562  0.00  0.00    +0.022 C 
ENDBRANCH  23  25
ENDBRANCH   1  21
TORSDOF 9
