REMARK  Name = ZINC49191740
REMARK  8 active torsions:
REMARK  status: ('A' for Active; 'I' for Inactive)
REMARK    1  A    between atoms: C_1  and  C_2
REMARK    2  A    between atoms: C_2  and  C_3
REMARK    3  A    between atoms: C_3  and  N_4
REMARK    4  A    between atoms: C_5  and  C_7
REMARK    5  A    between atoms: C_7  and  C_9
REMARK    6  A    between atoms: C_7  and  N_10
REMARK    7  A    between atoms: C_11  and  C_13
REMARK    8  A    between atoms: C_15  and  N_21
REMARK                            x       y       z     vdW  Elec       q    Type
REMARK                         _______ _______ _______ _____ _____    ______ ____
ROOT
ATOM      1  N   UNL     1       2.027  -4.602  -3.498  0.00  0.00    -0.300 N 
ATOM      2  C   UNL     1       1.753  -5.825  -3.994  0.00  0.00    +0.245 C 
ATOM      3  O   UNL     1       0.937  -6.536  -3.441  0.00  0.00    -0.270 OA
ATOM      4  H   UNL     1       2.678  -4.035  -3.940  0.00  0.00    +0.150 HD
ENDROOT
BRANCH   2   5
ATOM      5  C   UNL     1       2.445  -6.302  -5.210  0.00  0.00    +0.040 A 
ATOM      6  C   UNL     1       2.159  -7.566  -5.728  0.00  0.00    +0.037 A 
ATOM      7  C   UNL     1       2.811  -8.007  -6.868  0.00  0.00    +0.045 A 
ATOM      8  C   UNL     1       3.748  -7.190  -7.493  0.00  0.00    +0.080 A 
ATOM      9  C   UNL     1       4.033  -5.937  -6.979  0.00  0.00    +0.062 A 
ATOM     10  C   UNL     1       3.382  -5.487  -5.847  0.00  0.00    +0.034 A 
ATOM     11 CL   UNL     1       5.204  -4.925  -7.764  0.00  0.00    -0.082 Cl
ATOM     12 CL   UNL     1       4.564  -7.746  -8.921  0.00  0.00    -0.080 Cl
BRANCH   7  13
ATOM     13  N   UNL     1       2.527  -9.272  -7.390  0.00  0.00    -0.357 N 
ATOM     14  H   UNL     1       1.874  -9.841  -6.955  0.00  0.00    +0.142 HD
ATOM     15  H   UNL     1       2.984  -9.581  -8.189  0.00  0.00    +0.142 HD
ENDBRANCH   7  13
ENDBRANCH   2   5
BRANCH   1  16
ATOM     16  C   UNL     1       1.341  -4.130  -2.293  0.00  0.00    +0.156 C 
ATOM     17  C   UNL     1       2.082  -4.636  -1.054  0.00  0.00    +0.038 C 
BRANCH  16  19
ATOM     18  N   UNL     1       0.738  -1.962  -1.265  0.00  0.00    -0.314 N 
ATOM     19  C   UNL     1       1.321  -2.623  -2.285  0.00  0.00    +0.233 C 
ATOM     20  O   UNL     1       1.829  -2.004  -3.196  0.00  0.00    -0.274 OA
ATOM     21  H   UNL     1       0.332  -2.457  -0.536  0.00  0.00    +0.149 HD
BRANCH  18  22
ATOM     22  C   UNL     1       0.718  -0.497  -1.257  0.00  0.00    +0.104 C 
BRANCH  22  24
ATOM     23  C   UNL     1      -0.019   1.526   0.010  0.00  0.00    +0.005 C 
ATOM     24  C   UNL     1       0.002  -0.004   0.002  0.00  0.00    +0.015 C 
ENDBRANCH  22  24
ENDBRANCH  18  22
ENDBRANCH  16  19
ENDBRANCH   1  16
TORSDOF 6
