REMARK  Name = ZINC34756047
REMARK  7 active torsions:
REMARK  status: ('A' for Active; 'I' for Inactive)
REMARK    1  A    between atoms: C_1  and  C_2
REMARK    2  A    between atoms: C_5  and  N_8
REMARK    3  A    between atoms: C_9  and  C_11
REMARK    4  A    between atoms: C_11  and  N_12
REMARK    5  A    between atoms: C_25  and  S_27
REMARK    6  A    between atoms: S_27  and  C_28
REMARK    7  A    between atoms: C_28  and  C_29
REMARK                            x       y       z     vdW  Elec       q    Type
REMARK                         _______ _______ _______ _____ _____    ______ ____
ROOT
ATOM      1  N   UNL     1       0.528  -6.958   2.460  0.00  0.00    +0.387 N 
ATOM      2  C   UNL     1      -0.815  -6.751   3.018  0.00  0.00    -0.059 C 
ATOM      3  C   UNL     1      -0.791  -7.036   4.523  0.00  0.00    +0.088 C 
ATOM      4  N   UNL     1      -0.248  -8.386   4.734  0.00  0.00    -0.318 N 
ATOM      5  C   UNL     1       1.019  -8.735   4.073  0.00  0.00    +0.088 C 
ATOM      6  C   UNL     1       0.910  -8.370   2.589  0.00  0.00    -0.059 C 
ATOM      7  C   UNL     1      -0.911  -9.303   5.530  0.00  0.00    +0.134 A 
ATOM      8  C   UNL     1      -0.565  -9.445   6.903  0.00  0.00    +0.051 A 
ATOM      9  C   UNL     1       0.457  -8.728   7.669  0.00  0.00    -0.025 A 
ATOM     10  C   UNL     1       0.587  -9.053   8.970  0.00  0.00    -0.004 A 
ATOM     11  S   UNL     1      -0.624 -10.316   9.255  0.00  0.00    -0.073 S 
ATOM     12  C   UNL     1      -1.305 -10.407   7.619  0.00  0.00    +0.115 A 
ATOM     13  N   UNL     1      -2.252 -11.121   7.042  0.00  0.00    -0.215 NA
ATOM     14  C   UNL     1      -2.532 -10.946   5.758  0.00  0.00    +0.191 A 
ATOM     15  N   UNL     1      -1.876 -10.052   5.026  0.00  0.00    -0.206 NA
ATOM     16  C   UNL     1       1.550  -8.471   9.960  0.00  0.00    +0.043 C 
ATOM     17  C   UNL     1       2.633  -7.702   9.188  0.00  0.00    +0.005 C 
ATOM     18  C   UNL     1       1.951  -6.802   8.153  0.00  0.00    +0.005 C 
ATOM     19  C   UNL     1       1.345  -7.657   7.040  0.00  0.00    +0.037 C 
ATOM     20  H   UNL     1       1.190  -6.385   2.961  0.00  0.00    -0.081 HD
ENDROOT
BRANCH   1  21
ATOM     21  C   UNL     1       0.530  -6.580   1.041  0.00  0.00    +0.019 C 
BRANCH  21  23
ATOM     22  N   UNL     1       0.214  -4.528  -0.304  0.00  0.00    -0.287 N 
ATOM     23  C   UNL     1       0.259  -5.103   0.914  0.00  0.00    +0.201 C 
ATOM     24  O   UNL     1       0.080  -4.432   1.908  0.00  0.00    -0.278 OA
ATOM     25  H   UNL     1       0.291  -5.075  -1.102  0.00  0.00    +0.155 HD
BRANCH  22  30
ATOM     26  C   UNL     1      -0.425   1.090  -0.769  0.00  0.00    +0.044 C 
ATOM     27  C   UNL     1      -0.256  -0.403  -0.645  0.00  0.00    -0.050 A 
ATOM     28  C   UNL     1       0.444  -0.931   0.424  0.00  0.00    +0.005 A 
ATOM     29  C   UNL     1       0.602  -2.299   0.539  0.00  0.00    +0.023 A 
ATOM     30  C   UNL     1       0.056  -3.143  -0.419  0.00  0.00    +0.033 A 
ATOM     31  C   UNL     1      -0.647  -2.608  -1.491  0.00  0.00    +0.023 A 
ATOM     32  C   UNL     1      -0.805  -1.241  -1.598  0.00  0.00    +0.005 A 
ENDBRANCH  22  30
ENDBRANCH  21  23
ENDBRANCH   1  21
BRANCH  14  33
ATOM     33  S   UNL     1      -3.801 -11.912   5.010  0.00  0.00    -0.082 S 
BRANCH  33  34
ATOM     34  C   UNL     1      -4.405 -12.963   6.359  0.00  0.00    +0.104 C 
BRANCH  34  35
ATOM     35  C   UNL     1      -5.510 -13.852   5.848  0.00  0.00    -0.023 C 
ATOM     36  C   UNL     1      -5.342 -15.151   5.813  0.00  0.00    +0.005 C 
ENDBRANCH  34  35
ENDBRANCH  33  34
ENDBRANCH  14  33
TORSDOF 6
