REMARK  Name = ZINC39657404
REMARK  5 active torsions:
REMARK  status: ('A' for Active; 'I' for Inactive)
REMARK    1  A    between atoms: C_3  and  C_6
REMARK    2  A    between atoms: C_6  and  C_7
REMARK    3  A    between atoms: C_7  and  N_8
REMARK    4  A    between atoms: C_9  and  C_11
REMARK    5  A    between atoms: C_22  and  C_24
REMARK                            x       y       z     vdW  Elec       q    Type
REMARK                         _______ _______ _______ _____ _____    ______ ____
ROOT
ATOM      1  C   UNL     1       8.304   3.440   2.288  0.00  0.00    +0.100 C 
ATOM      2  C   UNL     1       8.032   4.791   1.590  0.00  0.00    +0.121 C 
ATOM      3  N   UNL     1       7.887   5.763   2.699  0.00  0.00    -0.296 N 
ATOM      4  C   UNL     1       8.919   5.356   3.683  0.00  0.00    +0.115 C 
ATOM      5  C   UNL     1       8.890   3.815   3.660  0.00  0.00    -0.004 C 
ATOM      6  C   UNL     1       7.995   3.289   4.778  0.00  0.00    -0.010 C 
ATOM      7  C   UNL     1       8.627   3.625   6.132  0.00  0.00    -0.082 C 
ATOM      8  N   UNL     1       9.960   3.016   6.216  0.00  0.00    +0.379 N 
ATOM      9  C   UNL     1      10.842   3.595   5.195  0.00  0.00    -0.082 C 
ATOM     10  C   UNL     1      10.303   3.258   3.802  0.00  0.00    -0.010 C 
ATOM     11  C   UNL     1       7.015   6.786   2.793  0.00  0.00    +0.247 C 
ATOM     12  O   UNL     1       6.141   6.918   1.958  0.00  0.00    -0.270 OA
ATOM     13  H   UNL     1      10.350   3.187   7.131  0.00  0.00    -0.086 HD
ATOM     14  H   UNL     1       9.884   2.021   6.067  0.00  0.00    -0.086 HD
ENDROOT
BRANCH  11  15
ATOM     15  C   UNL     1       7.121   7.748   3.910  0.00  0.00    +0.037 A 
ATOM     16  C   UNL     1       8.323   7.884   4.606  0.00  0.00    +0.014 A 
ATOM     17  C   UNL     1       8.416   8.784   5.647  0.00  0.00    +0.016 A 
ATOM     18  C   UNL     1       7.319   9.550   6.003  0.00  0.00    +0.018 A 
ATOM     19  C   UNL     1       6.124   9.420   5.317  0.00  0.00    +0.016 A 
ATOM     20  C   UNL     1       6.020   8.528   4.270  0.00  0.00    +0.014 A 
ATOM     21 BR   UNL     1       7.455  10.780   7.433  0.00  0.00    -0.050 Br
ENDBRANCH  11  15
BRANCH   1  23
ATOM     22  N   UNL     1       7.052   1.328   2.589  0.00  0.00    -0.315 N 
ATOM     23  C   UNL     1       7.021   2.669   2.459  0.00  0.00    +0.218 C 
ATOM     24  O   UNL     1       5.959   3.256   2.479  0.00  0.00    -0.275 OA
ATOM     25  H   UNL     1       7.901   0.859   2.573  0.00  0.00    +0.149 HD
BRANCH  22  26
ATOM     26  C   UNL     1       5.804   0.579   2.755  0.00  0.00    +0.109 C 
BRANCH  26  27
ATOM     27  C   UNL     1       6.118  -0.914   2.879  0.00  0.00    +0.061 C 
BRANCH  27  30
ATOM     28  C   UNL     1       2.889  -2.897   2.494  0.00  0.00    +0.008 A 
ATOM     29  C   UNL     1       4.031  -2.224   2.101  0.00  0.00    +0.011 A 
ATOM     30  C   UNL     1       4.835  -1.685   3.049  0.00  0.00    -0.009 A 
ATOM     31  S   UNL     1       3.979  -2.124   4.553  0.00  0.00    -0.102 S 
ATOM     32  C   UNL     1       2.607  -2.998   3.816  0.00  0.00    +0.045 A 
ENDBRANCH  27  30
ENDBRANCH  26  27
ENDBRANCH  22  26
ENDBRANCH   1  23
TORSDOF 5
