REMARK  Name = ZINC40343440
REMARK  11 active torsions:
REMARK  status: ('A' for Active; 'I' for Inactive)
REMARK    1  A    between atoms: C_1  and  C_2
REMARK    2  A    between atoms: C_2  and  C_3
REMARK    3  A    between atoms: C_3  and  C_4
REMARK    4  A    between atoms: C_4  and  O_5
REMARK    5  A    between atoms: O_5  and  C_6
REMARK    6  A    between atoms: C_10  and  C_12
REMARK    7  A    between atoms: C_15  and  C_31
REMARK    8  A    between atoms: N_22  and  C_23
REMARK    9  A    between atoms: C_23  and  C_24
REMARK   10  A    between atoms: C_24  and  C_25
REMARK   11  A    between atoms: C_25  and  N_26
REMARK                            x       y       z     vdW  Elec       q    Type
REMARK                         _______ _______ _______ _____ _____    ______ ____
ROOT
ATOM      1  C   UNL     1       3.035  -6.334   4.985  0.00  0.00    +0.141 C 
ATOM      2  C   UNL     1       2.032  -6.829   5.991  0.00  0.00    +0.035 A 
ATOM      3  C   UNL     1       0.999  -6.534   6.821  0.00  0.00    +0.072 A 
ATOM      4  N   UNL     1       0.643  -7.702   7.433  0.00  0.00    -0.276 N 
ATOM      5  N   UNL     1       1.394  -8.660   7.020  0.00  0.00    -0.168 NA
ATOM      6  H   UNL     1      -0.072  -7.795   8.082  0.00  0.00    +0.189 HD
ATOM      7  C   UNL     1       2.268  -8.214   6.140  0.00  0.00    +0.153 A 
ATOM      8  C   UNL     1       3.388  -8.581   5.253  0.00  0.00    +0.268 C 
ATOM      9  O   UNL     1       3.845  -9.701   5.141  0.00  0.00    -0.268 OA
ATOM     10  N   UNL     1       3.833  -7.500   4.587  0.00  0.00    -0.285 N 
ENDROOT
BRANCH   3  11
ATOM     11  C   UNL     1       0.379  -5.206   7.023  0.00  0.00    +0.000 A 
ATOM     12  C   UNL     1       1.181  -4.075   7.180  0.00  0.00    +0.011 A 
ATOM     13  C   UNL     1       0.598  -2.840   7.369  0.00  0.00    +0.020 A 
ATOM     14  C   UNL     1      -0.781  -2.720   7.402  0.00  0.00    +0.041 A 
ATOM     15  C   UNL     1      -1.582  -3.838   7.247  0.00  0.00    +0.020 A 
ATOM     16  C   UNL     1      -1.010  -5.078   7.052  0.00  0.00    +0.011 A 
ATOM     17 CL   UNL     1      -1.508  -1.161   7.641  0.00  0.00    -0.084 Cl
ENDBRANCH   3  11
BRANCH   1  22
ATOM     18  C   UNL     1       1.563  -3.861   2.537  0.00  0.00    +0.121 A 
ATOM     19  C   UNL     1       1.020  -4.709   1.582  0.00  0.00    +0.045 A 
ATOM     20  C   UNL     1       1.133  -6.078   1.733  0.00  0.00    +0.004 A 
ATOM     21  C   UNL     1       1.785  -6.602   2.833  0.00  0.00    +0.006 A 
ATOM     22  C   UNL     1       2.326  -5.759   3.786  0.00  0.00    -0.019 A 
ATOM     23  C   UNL     1       2.221  -4.389   3.637  0.00  0.00    +0.051 A 
BRANCH  18  24
ATOM     24  O   UNL     1       1.454  -2.514   2.391  0.00  0.00    -0.492 OA
BRANCH  24  25
ATOM     25  C   UNL     1       0.763  -2.041   1.233  0.00  0.00    +0.229 C 
BRANCH  25  26
ATOM     26  C   UNL     1       0.742  -0.511   1.242  0.00  0.00    +0.041 C 
BRANCH  26  28
ATOM     27  C   UNL     1      -0.019   1.526   0.010  0.00  0.00    +0.004 C 
ATOM     28  C   UNL     1       0.002  -0.004   0.002  0.00  0.00    -0.000 C 
ENDBRANCH  26  28
ENDBRANCH  25  26
ENDBRANCH  24  25
ENDBRANCH  18  24
ENDBRANCH   1  22
BRANCH  10  29
ATOM     29  C   UNL     1       4.933  -7.489   3.620  0.00  0.00    +0.111 C 
BRANCH  29  30
ATOM     30  C   UNL     1       6.249  -7.211   4.349  0.00  0.00    +0.040 C 
BRANCH  30  31
ATOM     31  C   UNL     1       7.399  -7.199   3.339  0.00  0.00    +0.124 C 
BRANCH  31  32
ATOM     32  N   UNL     1       8.659  -6.932   4.037  0.00  0.00    -0.338 N 
ATOM     33  C   UNL     1       9.210  -5.703   4.277  0.00  0.00    +0.104 A 
ATOM     34  C   UNL     1      10.362  -5.915   4.942  0.00  0.00    +0.101 A 
ATOM     35  N   UNL     1      10.510  -7.239   5.104  0.00  0.00    -0.352 N 
ATOM     36  C   UNL     1       9.491  -7.854   4.568  0.00  0.00    +0.173 A 
ATOM     37  H   UNL     1      11.255  -7.670   5.551  0.00  0.00    +0.166 HD
ENDBRANCH  31  32
ENDBRANCH  30  31
ENDBRANCH  29  30
ENDBRANCH  10  29
TORSDOF 10
