REMARK  Name = ZINC12712383
REMARK  14 active torsions:
REMARK  status: ('A' for Active; 'I' for Inactive)
REMARK    1  A    between atoms: C_1  and  C_2
REMARK    2  A    between atoms: C_5  and  C_8
REMARK    3  A    between atoms: C_8  and  C_10
REMARK    4  A    between atoms: C_8  and  N_18
REMARK    5  A    between atoms: N_12  and  C_13
REMARK    6  A    between atoms: C_13  and  C_14
REMARK    7  A    between atoms: C_14  and  C_15
REMARK    8  A    between atoms: C_15  and  C_16
REMARK    9  A    between atoms: C_15  and  C_17
REMARK   10  A    between atoms: N_18  and  C_19
REMARK   11  A    between atoms: C_19  and  C_20
REMARK   12  A    between atoms: C_20  and  C_21
REMARK   13  A    between atoms: C_27  and  C_29
REMARK   14  A    between atoms: C_29  and  N_30
REMARK                            x       y       z     vdW  Elec       q    Type
REMARK                         _______ _______ _______ _____ _____    ______ ____
ROOT
ATOM      1  N   UNL     1       1.903   2.858  -0.074  0.00  0.00    -0.284 N 
ATOM      2  C   UNL     1       2.462   2.483  -1.242  0.00  0.00    +0.238 C 
ATOM      3  O   UNL     1       3.129   1.472  -1.297  0.00  0.00    -0.274 OA
ENDROOT
BRANCH   1   4
ATOM      4  C   UNL     1       2.101   2.044   1.128  0.00  0.00    +0.192 C 
BRANCH   4   9
ATOM      5  C   UNL     1      -0.141  -3.215   0.283  0.00  0.00    +0.044 C 
ATOM      6  C   UNL     1       0.444  -1.843   0.503  0.00  0.00    -0.050 A 
ATOM      7  C   UNL     1       1.595  -1.695   1.255  0.00  0.00    +0.004 A 
ATOM      8  C   UNL     1       2.131  -0.437   1.456  0.00  0.00    +0.006 A 
ATOM      9  C   UNL     1       1.516   0.672   0.907  0.00  0.00    -0.018 A 
ATOM     10  C   UNL     1       0.362   0.525   0.161  0.00  0.00    +0.006 A 
ATOM     11  C   UNL     1      -0.171  -0.734  -0.045  0.00  0.00    +0.004 A 
ENDBRANCH   4   9
BRANCH   4  12
ATOM     12  C   UNL     1       1.415   2.700   2.298  0.00  0.00    +0.238 C 
ATOM     13  O   UNL     1       0.255   3.044   2.206  0.00  0.00    -0.273 OA
ATOM     14  N   UNL     1       2.089   2.905   3.446  0.00  0.00    -0.313 N 
ATOM     15  H   UNL     1       3.017   2.630   3.520  0.00  0.00    +0.149 HD
BRANCH  14  16
ATOM     16  C   UNL     1       1.422   3.544   4.584  0.00  0.00    +0.104 C 
BRANCH  16  17
ATOM     17  C   UNL     1       2.403   3.656   5.753  0.00  0.00    +0.022 C 
BRANCH  17  18
ATOM     18  C   UNL     1       1.706   4.323   6.941  0.00  0.00    -0.016 C 
ATOM     19  C   UNL     1       0.579   3.419   7.444  0.00  0.00    +0.007 C 
ATOM     20  C   UNL     1       2.719   4.549   8.065  0.00  0.00    +0.007 C 
ENDBRANCH  17  18
ENDBRANCH  16  17
ENDBRANCH  14  16
ENDBRANCH   4  12
ENDBRANCH   1   4
BRANCH   1  21
ATOM     21  C   UNL     1       1.098   4.080  -0.007  0.00  0.00    +0.113 C 
BRANCH  21  22
ATOM     22  C   UNL     1      -0.343   3.764  -0.416  0.00  0.00    +0.054 C 
BRANCH  22  23
ATOM     23  C   UNL     1      -1.169   5.023  -0.355  0.00  0.00    -0.046 A 
ATOM     24  C   UNL     1      -1.826   5.363   0.812  0.00  0.00    +0.004 A 
ATOM     25  C   UNL     1      -2.580   6.521   0.869  0.00  0.00    +0.000 A 
ATOM     26  C   UNL     1      -2.686   7.332  -0.245  0.00  0.00    +0.000 A 
ATOM     27  C   UNL     1      -2.034   6.988  -1.415  0.00  0.00    +0.000 A 
ATOM     28  C   UNL     1      -1.275   5.834  -1.470  0.00  0.00    +0.004 A 
ENDBRANCH  22  23
ENDBRANCH  21  22
ENDBRANCH   1  21
BRANCH   2  29
ATOM     29  C   UNL     1       2.259   3.320  -2.478  0.00  0.00    +0.241 C 
BRANCH  29  30
ATOM     30  N   UNL     1       2.962   2.705  -3.606  0.00  0.00    -0.235 N 
ATOM     31  C   UNL     1       4.258   2.945  -3.997  0.00  0.00    +0.090 A 
ATOM     32  C   UNL     1       5.278   3.759  -3.516  0.00  0.00    +0.029 A 
ATOM     33  C   UNL     1       6.493   3.766  -4.141  0.00  0.00    +0.002 A 
ATOM     34  C   UNL     1       6.722   2.964  -5.252  0.00  0.00    +0.002 A 
ATOM     35  C   UNL     1       5.740   2.153  -5.740  0.00  0.00    +0.032 A 
ATOM     36  C   UNL     1       4.485   2.126  -5.117  0.00  0.00    +0.113 A 
ATOM     37  N   UNL     1       3.348   1.445  -5.363  0.00  0.00    -0.129 NA
ATOM     38  N   UNL     1       2.444   1.759  -4.503  0.00  0.00    -0.064 NA
ENDBRANCH  29  30
ENDBRANCH   2  29
TORSDOF 11
