REMARK  Name = ZINC35106843
REMARK  18 active torsions:
REMARK  status: ('A' for Active; 'I' for Inactive)
REMARK    1  A    between atoms: C_1  and  C_2
REMARK    2  A    between atoms: C_2  and  C_3
REMARK    3  A    between atoms: C_3  and  C_5
REMARK    4  A    between atoms: C_3  and  N_6
REMARK    5  A    between atoms: N_6  and  C_7
REMARK    6  A    between atoms: C_7  and  C_8
REMARK    7  A    between atoms: C_8  and  C_10
REMARK    8  A    between atoms: C_11  and  C_23
REMARK    9  A    between atoms: N_13  and  C_16
REMARK   10  A    between atoms: C_14  and  O_15
REMARK   11  A    between atoms: C_19  and  C_22
REMARK   12  A    between atoms: C_23  and  C_24
REMARK   13  A    between atoms: C_23  and  C_25
REMARK   14  A    between atoms: C_26  and  C_28
REMARK   15  A    between atoms: C_30  and  O_36
REMARK   16  A    between atoms: C_32  and  O_34
REMARK   17  A    between atoms: O_34  and  C_35
REMARK   18  A    between atoms: O_36  and  C_37
REMARK                            x       y       z     vdW  Elec       q    Type
REMARK                         _______ _______ _______ _____ _____    ______ ____
ROOT
ATOM      1  C   UNL     1      -2.111  -2.110  -3.445  0.00  0.00    +0.187 C 
ATOM      2  O   UNL     1      -1.865  -3.003  -2.659  0.00  0.00    -0.290 OA
ENDROOT
BRANCH   1   3
ATOM      3  C   UNL     1      -2.827  -2.391  -4.635  0.00  0.00    +0.103 A 
ATOM      4  C   UNL     1      -3.325  -3.654  -5.044  0.00  0.00    +0.080 A 
ATOM      5  N   UNL     1      -3.923  -3.503  -6.191  0.00  0.00    -0.167 NA
ATOM      6  N   UNL     1      -3.847  -2.161  -6.579  0.00  0.00    -0.200 N 
ATOM      7  C   UNL     1      -3.182  -1.476  -5.626  0.00  0.00    +0.227 A 
BRANCH   6   8
ATOM      8  C   UNL     1      -4.378  -1.619  -7.756  0.00  0.00    +0.069 A 
ATOM      9  C   UNL     1      -4.896  -0.330  -7.758  0.00  0.00    +0.028 A 
ATOM     10  C   UNL     1      -5.419   0.202  -8.920  0.00  0.00    +0.005 A 
ATOM     11  C   UNL     1      -5.428  -0.548 -10.082  0.00  0.00    -0.050 A 
ATOM     12  C   UNL     1      -4.914  -1.832 -10.084  0.00  0.00    +0.005 A 
ATOM     13  C   UNL     1      -4.384  -2.367  -8.926  0.00  0.00    +0.028 A 
ATOM     14  C   UNL     1      -5.999   0.035 -11.349  0.00  0.00    +0.044 C 
ENDBRANCH   6   8
BRANCH   4  15
ATOM     15  C   UNL     1      -3.184  -4.947  -4.283  0.00  0.00    +0.034 C 
ATOM     16  C   UNL     1      -4.573  -5.498  -3.954  0.00  0.00    +0.014 C 
ATOM     17  C   UNL     1      -2.423  -5.962  -5.138  0.00  0.00    +0.014 C 
ENDBRANCH   4  15
BRANCH   7  18
ATOM     18  O   UNL     1      -2.908  -0.151  -5.633  0.00  0.00    -0.492 OA
ATOM     19  H   UNL     1      -2.068   0.074  -6.054  0.00  0.00    +0.294 HD
ENDBRANCH   7  18
ENDBRANCH   1   3
BRANCH   1  20
ATOM     20  C   UNL     1      -1.655  -0.704  -3.153  0.00  0.00    +0.188 C 
BRANCH  20  21
ATOM     21  N   UNL     1      -0.943  -0.676  -1.873  0.00  0.00    -0.287 N 
ATOM     22  C   UNL     1      -1.620  -0.453  -0.730  0.00  0.00    +0.247 C 
ATOM     23  O   UNL     1      -2.497   0.388  -0.698  0.00  0.00    -0.270 OA
BRANCH  22  24
ATOM     24  C   UNL     1      -1.297  -1.230   0.486  0.00  0.00    +0.044 A 
ATOM     25  C   UNL     1       0.031  -1.530   0.791  0.00  0.00    +0.059 A 
ATOM     26  C   UNL     1       0.330  -2.258   1.931  0.00  0.00    +0.124 A 
ATOM     27  C   UNL     1      -0.689  -2.690   2.768  0.00  0.00    +0.091 A 
ATOM     28  C   UNL     1      -2.011  -2.394   2.467  0.00  0.00    +0.124 A 
ATOM     29  C   UNL     1      -2.318  -1.661   1.333  0.00  0.00    +0.059 A 
BRANCH  28  30
ATOM     30  O   UNL     1      -3.005  -2.819   3.290  0.00  0.00    -0.495 OA
ATOM     31  C   UNL     1      -2.617  -3.565   4.446  0.00  0.00    +0.277 C 
ENDBRANCH  28  30
BRANCH  26  32
ATOM     32  O   UNL     1       1.623  -2.551   2.230  0.00  0.00    -0.495 OA
ATOM     33  C   UNL     1       1.859  -3.305   3.420  0.00  0.00    +0.277 C 
ENDBRANCH  26  32
ENDBRANCH  22  24
BRANCH  21  34
ATOM     34  C   UNL     1       0.506  -0.892  -1.836  0.00  0.00    +0.073 C 
ATOM     35  C   UNL     1       0.797  -2.317  -1.358  0.00  0.00    +0.028 C 
BRANCH  34  37
ATOM     36  C   UNL     1       1.270   1.470  -1.562  0.00  0.00    +0.005 C 
ATOM     37  C   UNL     1       1.146   0.110  -0.873  0.00  0.00    +0.019 C 
ENDBRANCH  34  37
ENDBRANCH  21  34
ENDBRANCH  20  21
ENDBRANCH   1  20
TORSDOF 11
