REMARK  Name = ZINC59167383
REMARK  12 active torsions:
REMARK  status: ('A' for Active; 'I' for Inactive)
REMARK    1  A    between atoms: C_1  and  C_2
REMARK    2  A    between atoms: C_2  and  C_3
REMARK    3  A    between atoms: C_3  and  N_4
REMARK    4  A    between atoms: N_4  and  C_5
REMARK    5  A    between atoms: N_4  and  C_8
REMARK    6  A    between atoms: C_5  and  C_6
REMARK    7  A    between atoms: C_6  and  C_7
REMARK    8  A    between atoms: C_11  and  C_14
REMARK    9  A    between atoms: N_16  and  N_17
REMARK   10  A    between atoms: N_25  and  C_28
REMARK   11  A    between atoms: C_28  and  C_29
REMARK   12  A    between atoms: C_33  and  N_35
REMARK                            x       y       z     vdW  Elec       q    Type
REMARK                         _______ _______ _______ _____ _____    ______ ____
ROOT
ATOM      1  N   UNL     1       6.110  -6.770   1.696  0.00  0.00    -0.174 NA
ATOM      2  C   UNL     1       6.084  -8.079   1.772  0.00  0.00    +0.153 C 
ATOM      3  C   UNL     1       5.073  -8.995   1.195  0.00  0.00    +0.028 A 
ATOM      4  C   UNL     1       3.918  -8.791   0.448  0.00  0.00    +0.012 A 
ATOM      5  C   UNL     1       3.162  -9.873   0.045  0.00  0.00    +0.001 A 
ATOM      6  C   UNL     1       3.554 -11.158   0.384  0.00  0.00    +0.002 A 
ATOM      7  C   UNL     1       4.698 -11.371   1.126  0.00  0.00    +0.024 A 
ATOM      8  C   UNL     1       5.473 -10.293   1.540  0.00  0.00    +0.046 A 
ATOM      9  N   UNL     1       6.648 -10.230   2.281  0.00  0.00    -0.261 N 
ATOM     10  C   UNL     1       7.058  -8.961   2.444  0.00  0.00    +0.272 C 
ATOM     11  O   UNL     1       8.055  -8.602   3.043  0.00  0.00    -0.268 OA
ENDROOT
BRANCH   1  14
ATOM     12  C   UNL     1       5.079  -4.742   0.994  0.00  0.00    +0.263 C 
ATOM     13  O   UNL     1       6.096  -4.141   1.283  0.00  0.00    -0.268 OA
ATOM     14  N   UNL     1       5.010  -6.076   1.175  0.00  0.00    -0.202 N 
ATOM     15  H   UNL     1       4.199  -6.555   0.945  0.00  0.00    +0.178 HD
BRANCH  12  19
ATOM     16  C   UNL     1       1.751  -2.641  -0.584  0.00  0.00    +0.030 A 
ATOM     17  C   UNL     1       2.914  -1.951  -0.253  0.00  0.00    +0.024 A 
ATOM     18  C   UNL     1       3.992  -2.628   0.258  0.00  0.00    +0.015 A 
ATOM     19  C   UNL     1       3.922  -4.012   0.446  0.00  0.00    +0.038 A 
ATOM     20  C   UNL     1       2.752  -4.701   0.113  0.00  0.00    +0.015 A 
ATOM     21  C   UNL     1       1.676  -4.018  -0.392  0.00  0.00    +0.024 A 
BRANCH  16  22
ATOM     22  N   UNL     1       0.660  -1.952  -1.102  0.00  0.00    -0.330 N 
BRANCH  22  23
ATOM     23  C   UNL     1       0.737  -0.504  -1.304  0.00  0.00    +0.105 C 
BRANCH  23  25
ATOM     24  C   UNL     1       0.345   1.727  -0.249  0.00  0.00    +0.005 C 
ATOM     25  C   UNL     1       0.264   0.214  -0.038  0.00  0.00    +0.015 C 
ENDBRANCH  23  25
ENDBRANCH  22  23
BRANCH  22  26
ATOM     26  C   UNL     1      -0.567  -2.676  -1.445  0.00  0.00    +0.105 C 
BRANCH  26  27
ATOM     27  C   UNL     1      -0.494  -3.141  -2.901  0.00  0.00    +0.015 C 
ATOM     28  C   UNL     1      -1.776  -3.896  -3.260  0.00  0.00    +0.005 C 
ENDBRANCH  26  27
ENDBRANCH  22  26
ENDBRANCH  16  22
ENDBRANCH  12  19
ENDBRANCH   1  14
BRANCH   9  29
ATOM     29  C   UNL     1       7.353 -11.400   2.811  0.00  0.00    +0.149 C 
BRANCH  29  30
ATOM     30  C   UNL     1       8.354 -11.886   1.794  0.00  0.00    -0.028 A 
ATOM     31  C   UNL     1       7.980 -12.822   0.848  0.00  0.00    +0.005 A 
ATOM     32  C   UNL     1       8.898 -13.267  -0.084  0.00  0.00    +0.003 A 
ATOM     33  C   UNL     1      10.191 -12.777  -0.070  0.00  0.00    +0.033 A 
ATOM     34  C   UNL     1      10.564 -11.841   0.876  0.00  0.00    +0.127 A 
ATOM     35  C   UNL     1       9.645 -11.392   1.805  0.00  0.00    +0.038 A 
BRANCH  34  36
ATOM     36  N   UNL     1      11.948 -11.316   0.891  0.00  0.00    +0.056 N 
ATOM     37  O   UNL     1      12.752 -11.707   0.076  0.00  0.00    -0.126 OA
ATOM     38  O   UNL     1      12.275 -10.497   1.718  0.00  0.00    -0.126 OA
ENDBRANCH  34  36
ENDBRANCH  29  30
ENDBRANCH   9  29
TORSDOF 10
