REMARK  Name = ZINC26372263
REMARK  9 active torsions:
REMARK  status: ('A' for Active; 'I' for Inactive)
REMARK    1  A    between atoms: C_2  and  C_3
REMARK    2  A    between atoms: C_3  and  N_4
REMARK    3  A    between atoms: C_5  and  C_24
REMARK    4  A    between atoms: C_8  and  S_9
REMARK    5  A    between atoms: S_9  and  C_10
REMARK    6  A    between atoms: C_10  and  C_11
REMARK    7  A    between atoms: C_11  and  C_12
REMARK    8  A    between atoms: N_14  and  C_15
REMARK    9  A    between atoms: C_19  and  N_21
REMARK                            x       y       z     vdW  Elec       q    Type
REMARK                         _______ _______ _______ _____ _____    ______ ____
ROOT
ATOM      1  S   UNL     1       0.679  -3.947  -0.701  0.00  0.00    -0.086 S 
ENDROOT
BRANCH   1   6
ATOM      2  N   UNL     1       1.521  -1.767   0.837  0.00  0.00    -0.298 N 
ATOM      3  C   UNL     1       1.735  -1.520   2.173  0.00  0.00    +0.165 A 
ATOM      4  N   UNL     1       1.463  -2.630   2.819  0.00  0.00    -0.128 NA
ATOM      5  N   UNL     1       1.098  -3.542   1.990  0.00  0.00    -0.122 NA
ATOM      6  C   UNL     1       1.110  -3.068   0.764  0.00  0.00    +0.192 A 
BRANCH   3   7
ATOM      7  C   UNL     1       2.188  -0.245   2.770  0.00  0.00    +0.019 A 
ATOM      8  C   UNL     1       2.777  -0.234   4.035  0.00  0.00    +0.012 A 
ATOM      9  C   UNL     1       3.198   0.959   4.586  0.00  0.00    +0.016 A 
ATOM     10  C   UNL     1       3.037   2.143   3.886  0.00  0.00    +0.018 A 
ATOM     11  C   UNL     1       2.453   2.138   2.631  0.00  0.00    +0.016 A 
ATOM     12  C   UNL     1       2.034   0.951   2.067  0.00  0.00    +0.012 A 
ATOM     13 BR   UNL     1       3.616   3.773   4.649  0.00  0.00    -0.050 Br
ENDBRANCH   3   7
BRANCH   2  14
ATOM     14  C   UNL     1       1.691  -0.829  -0.275  0.00  0.00    +0.152 C 
BRANCH  14  16
ATOM     15  C   UNL     1       0.248   1.096  -0.690  0.00  0.00    +0.005 C 
ATOM     16  C   UNL     1       0.362  -0.207  -0.616  0.00  0.00    -0.013 C 
ENDBRANCH  14  16
ENDBRANCH   2  14
ENDBRANCH   1   6
BRANCH   1  17
ATOM     17  C   UNL     1       0.231  -5.600  -0.104  0.00  0.00    +0.086 C 
BRANCH  17  18
ATOM     18  C   UNL     1      -0.170  -6.479  -1.291  0.00  0.00    +0.107 C 
BRANCH  18  19
ATOM     19  C   UNL     1      -0.542  -7.853  -0.795  0.00  0.00    +0.218 C 
ATOM     20  O   UNL     1      -0.492  -8.104   0.391  0.00  0.00    -0.275 OA
ATOM     21  N   UNL     1      -0.931  -8.802  -1.669  0.00  0.00    -0.285 N 
ATOM     22  H   UNL     1      -0.905  -8.624  -2.622  0.00  0.00    +0.155 HD
BRANCH  21  23
ATOM     23  C   UNL     1      -1.372 -10.045  -1.202  0.00  0.00    +0.036 A 
ATOM     24  C   UNL     1      -1.111 -11.197  -1.934  0.00  0.00    +0.023 A 
ATOM     25  C   UNL     1      -1.548 -12.422  -1.470  0.00  0.00    +0.004 A 
ATOM     26  C   UNL     1      -2.244 -12.503  -0.278  0.00  0.00    +0.033 A 
ATOM     27  C   UNL     1      -2.505 -11.359   0.453  0.00  0.00    +0.128 A 
ATOM     28  C   UNL     1      -2.066 -10.131  -0.002  0.00  0.00    +0.056 A 
BRANCH  27  29
ATOM     29  N   UNL     1      -3.251 -11.451   1.728  0.00  0.00    +0.056 N 
ATOM     30  O   UNL     1      -3.632 -12.526   2.130  0.00  0.00    -0.126 OA
ATOM     31  O   UNL     1      -3.480 -10.451   2.368  0.00  0.00    -0.126 OA
ENDBRANCH  27  29
ENDBRANCH  21  23
ENDBRANCH  18  19
ENDBRANCH  17  18
ENDBRANCH   1  17
TORSDOF 9
