REMARK  Name = ZINC39431180
REMARK  9 active torsions:
REMARK  status: ('A' for Active; 'I' for Inactive)
REMARK    1  A    between atoms: C_1  and  C_2
REMARK    2  A    between atoms: C_2  and  C_4
REMARK    3  A    between atoms: C_2  and  S_16
REMARK    4  A    between atoms: S_16  and  C_17
REMARK    5  A    between atoms: C_21  and  C_28
REMARK    6  A    between atoms: N_23  and  C_24
REMARK    7  A    between atoms: C_24  and  C_25
REMARK    8  A    between atoms: C_25  and  C_26
REMARK    9  A    between atoms: C_25  and  C_27
REMARK                            x       y       z     vdW  Elec       q    Type
REMARK                         _______ _______ _______ _____ _____    ______ ____
ROOT
ATOM      1  C   UNL     1       2.509  -0.177  -1.389  0.00  0.00    +0.257 C 
ATOM      2  N   UNL     1       2.208   1.203  -0.988  0.00  0.00    -0.184 NA
ATOM      3  N   UNL     1       2.804   1.507   0.050  0.00  0.00    -0.289 N 
ATOM      4  C   UNL     1       3.618   0.388   0.542  0.00  0.00    +0.203 C 
ATOM      5  N   UNL     1       3.102  -0.804  -0.181  0.00  0.00    -0.246 NA
ATOM      6  H   UNL     1       2.743   2.373   0.483  0.00  0.00    +0.184 HD
ENDROOT
BRANCH   4   7
ATOM      7  C   UNL     1       5.072   0.613   0.213  0.00  0.00    +0.009 A 
ATOM      8  C   UNL     1       5.616   0.056  -0.929  0.00  0.00    +0.010 A 
ATOM      9  C   UNL     1       6.949   0.262  -1.231  0.00  0.00    +0.020 A 
ATOM     10  C   UNL     1       7.739   1.025  -0.389  0.00  0.00    +0.042 A 
ATOM     11  C   UNL     1       7.195   1.582   0.754  0.00  0.00    +0.040 A 
ATOM     12  C   UNL     1       5.860   1.380   1.053  0.00  0.00    +0.049 A 
ATOM     13 CL   UNL     1       5.174   2.083   2.484  0.00  0.00    -0.083 Cl
ATOM     14 CL   UNL     1       9.414   1.282  -0.768  0.00  0.00    -0.083 Cl
ENDBRANCH   4   7
BRANCH   1  15
ATOM     15  S   UNL     1       0.988  -1.042  -1.867  0.00  0.00    -0.106 S 
BRANCH  15  17
ATOM     16  C   UNL     1       1.753  -0.975  -4.492  0.00  0.00    +0.027 C 
ATOM     17  C   UNL     1       0.661  -0.458  -3.553  0.00  0.00    +0.112 C 
BRANCH  17  18
ATOM     18  C   UNL     1      -0.680  -0.969  -4.012  0.00  0.00    +0.123 A 
ATOM     19  N   UNL     1      -1.056  -0.731  -5.295  0.00  0.00    -0.309 N 
ATOM     20  H   UNL     1      -0.463  -0.243  -5.887  0.00  0.00    +0.170 HD
ATOM     21  C   UNL     1      -2.251  -1.170  -5.756  0.00  0.00    +0.259 A 
ATOM     22  O   UNL     1      -2.600  -0.965  -6.904  0.00  0.00    -0.267 OA
ATOM     23  C   UNL     1      -3.110  -1.905  -4.816  0.00  0.00    +0.065 A 
ATOM     24  C   UNL     1      -4.358  -2.398  -5.190  0.00  0.00    +0.015 A 
ATOM     25  C   UNL     1      -5.122  -3.080  -4.268  0.00  0.00    +0.001 A 
ATOM     26  C   UNL     1      -4.659  -3.277  -2.974  0.00  0.00    +0.002 A 
ATOM     27  C   UNL     1      -3.429  -2.797  -2.584  0.00  0.00    +0.028 A 
ATOM     28  C   UNL     1      -2.635  -2.104  -3.500  0.00  0.00    +0.078 A 
ATOM     29  N   UNL     1      -1.415  -1.619  -3.161  0.00  0.00    -0.233 NA
ENDBRANCH  17  18
ENDBRANCH  15  17
ENDBRANCH   1  15
BRANCH   5  30
ATOM     30  C   UNL     1       2.076  -1.496   0.611  0.00  0.00    +0.092 C 
BRANCH  30  31
ATOM     31  C   UNL     1       2.742  -2.231   1.776  0.00  0.00    -0.003 C 
ATOM     32  C   UNL     1       1.665  -2.846   2.672  0.00  0.00    +0.008 C 
ATOM     33  C   UNL     1       3.646  -3.339   1.231  0.00  0.00    +0.008 C 
ENDBRANCH  30  31
ENDBRANCH   5  30
TORSDOF 6
