REMARK  Name = ZINC17071012
REMARK  7 active torsions:
REMARK  status: ('A' for Active; 'I' for Inactive)
REMARK    1  A    between atoms: C_1  and  C_2
REMARK    2  A    between atoms: C_2  and  C_3
REMARK    3  A    between atoms: C_3  and  C_4
REMARK    4  A    between atoms: C_6  and  C_22
REMARK    5  A    between atoms: C_7  and  N_9
REMARK    6  A    between atoms: C_10  and  C_12
REMARK    7  A    between atoms: C_18  and  C_20
REMARK                            x       y       z     vdW  Elec       q    Type
REMARK                         _______ _______ _______ _____ _____    ______ ____
ROOT
ATOM      1  C   UNL     1       1.762  -0.278  -0.016  0.00  0.00    -0.008 A 
ATOM      2  C   UNL     1       2.268   0.969  -0.014  0.00  0.00    +0.026 A 
ATOM      3  C   UNL     1       1.327   2.063   0.001  0.00  0.00    +0.065 A 
ATOM      4  C   UNL     1      -0.021   1.727   0.011  0.00  0.00    +0.084 A 
ATOM      5  S   UNL     1       0.002  -0.004   0.002  0.00  0.00    -0.078 S 
ENDROOT
BRANCH   3   6
ATOM      6  C   UNL     1       1.772   3.460   0.003  0.00  0.00    +0.244 C 
ATOM      7  O   UNL     1       0.953   4.360   0.015  0.00  0.00    -0.270 OA
ATOM      8  N   UNL     1       3.089   3.748  -0.008  0.00  0.00    -0.325 N 
ATOM      9  H   UNL     1       3.742   3.031  -0.018  0.00  0.00    +0.145 HD
ATOM     10  H   UNL     1       3.383   4.672  -0.006  0.00  0.00    +0.145 HD
ENDBRANCH   3   6
BRANCH   4  11
ATOM     11  N   UNL     1      -1.120   2.574   0.022  0.00  0.00    -0.279 N 
ATOM     12  C   UNL     1      -2.366   2.061   0.026  0.00  0.00    +0.221 C 
ATOM     13  O   UNL     1      -2.527   0.859   0.020  0.00  0.00    -0.275 OA
ATOM     14  H   UNL     1      -0.991   3.535   0.026  0.00  0.00    +0.155 HD
BRANCH  12  15
ATOM     15  C   UNL     1      -3.559   2.981   0.037  0.00  0.00    +0.089 C 
ATOM     16  C   UNL     1      -3.517   3.857   1.290  0.00  0.00    +0.013 C 
ATOM     17  C   UNL     1      -4.728   4.791   1.301  0.00  0.00    +0.001 C 
ATOM     18  C   UNL     1      -6.013   3.960   1.304  0.00  0.00    +0.001 C 
ATOM     19  C   UNL     1      -6.056   3.084   0.050  0.00  0.00    +0.015 C 
ATOM     20  C   UNL     1      -4.844   2.150   0.039  0.00  0.00    +0.114 C 
BRANCH  20  21
ATOM     21  C   UNL     1      -4.886   1.286  -1.196  0.00  0.00    +0.360 C 
ATOM     22  O   UNL     1      -3.982   1.332  -1.995  0.00  0.00    -0.246 OA
ATOM     23  O   UNL     1      -5.929   0.468  -1.407  0.00  0.00    -0.246 OA
ENDBRANCH  20  21
ENDBRANCH  12  15
ENDBRANCH   4  11
BRANCH   1  24
ATOM     24  C   UNL     1       2.504  -1.589  -0.030  0.00  0.00    +0.042 C 
BRANCH  24  26
ATOM     25  C   UNL     1       3.522  -3.371   1.395  0.00  0.00    +0.004 C 
ATOM     26  C   UNL     1       2.769  -2.040   1.408  0.00  0.00    +0.002 C 
ENDBRANCH  24  26
ENDBRANCH   1  24
TORSDOF 6
