REMARK  Name = ZINC66820730
REMARK  5 active torsions:
REMARK  status: ('A' for Active; 'I' for Inactive)
REMARK    1  A    between atoms: C_1  and  C_2
REMARK    2  A    between atoms: C_5  and  N_8
REMARK    3  A    between atoms: C_10  and  C_15
REMARK    4  A    between atoms: N_17  and  C_18
REMARK    5  A    between atoms: C_21  and  N_24
REMARK                            x       y       z     vdW  Elec       q    Type
REMARK                         _______ _______ _______ _____ _____    ______ ____
ROOT
ATOM      1  C   UNL     1       3.059  -7.263  -0.393  0.00  0.00    +0.222 C 
ATOM      2  O   UNL     1       3.892  -6.944  -1.215  0.00  0.00    -0.275 OA
ATOM      3  N   UNL     1       2.820  -8.566  -0.146  0.00  0.00    -0.285 N 
ATOM      4  H   UNL     1       2.204  -8.821   0.558  0.00  0.00    +0.155 HD
ENDROOT
BRANCH   1   7
ATOM      5  N   UNL     1       1.506  -3.976  -0.076  0.00  0.00    -0.298 N 
ATOM      6  C   UNL     1       2.729  -4.788  -0.092  0.00  0.00    +0.121 C 
ATOM      7  C   UNL     1       2.291  -6.202   0.352  0.00  0.00    +0.101 C 
ATOM      8  C   UNL     1       0.799  -6.211  -0.052  0.00  0.00    +0.110 C 
ATOM      9  C   UNL     1       0.407  -4.750  -0.053  0.00  0.00    +0.217 C 
ATOM     10  O   UNL     1      -0.733  -4.336  -0.038  0.00  0.00    -0.276 OA
BRANCH   5  15
ATOM     11  C   UNL     1      -0.010   1.549  -0.055  0.00  0.00    +0.007 C 
ATOM     12  C   UNL     1       0.010   0.019  -0.053  0.00  0.00    -0.014 C 
ATOM     13  C   UNL     1       0.714  -0.483  -1.315  0.00  0.00    +0.005 C 
ATOM     14  C   UNL     1       0.735  -2.013  -1.313  0.00  0.00    +0.023 C 
ATOM     15  C   UNL     1       1.487  -2.512  -0.077  0.00  0.00    +0.076 C 
ATOM     16  C   UNL     1       0.783  -2.009   1.185  0.00  0.00    +0.023 C 
ATOM     17  C   UNL     1       0.762  -0.479   1.183  0.00  0.00    +0.005 C 
ENDBRANCH   5  15
ENDBRANCH   1   7
BRANCH   3  18
ATOM     18  C   UNL     1       3.463  -9.553  -0.905  0.00  0.00    +0.034 A 
ATOM     19  C   UNL     1       2.796 -10.728  -1.223  0.00  0.00    +0.025 A 
ATOM     20  C   UNL     1       3.429 -11.700  -1.972  0.00  0.00    +0.025 A 
ATOM     21  C   UNL     1       4.733 -11.502  -2.406  0.00  0.00    +0.035 A 
ATOM     22  C   UNL     1       5.400 -10.327  -2.088  0.00  0.00    +0.025 A 
ATOM     23  C   UNL     1       4.765  -9.352  -1.345  0.00  0.00    +0.025 A 
BRANCH  21  24
ATOM     24  N   UNL     1       5.375 -12.489  -3.165  0.00  0.00    -0.270 N 
ATOM     25  C   UNL     1       6.698 -12.701  -3.014  0.00  0.00    +0.301 C 
ATOM     26  O   UNL     1       7.349 -11.982  -2.281  0.00  0.00    -0.253 OA
ATOM     27  N   UNL     1       7.298 -13.711  -3.674  0.00  0.00    -0.313 N 
ATOM     28  H   UNL     1       4.869 -13.019  -3.800  0.00  0.00    +0.156 HD
ATOM     29  H   UNL     1       6.779 -14.285  -4.259  0.00  0.00    +0.146 HD
ATOM     30  H   UNL     1       8.250 -13.864  -3.565  0.00  0.00    +0.146 HD
ENDBRANCH  21  24
ENDBRANCH   3  18
TORSDOF 4
