REMARK  Name = ZINC37350257
REMARK  3 active torsions:
REMARK  status: ('A' for Active; 'I' for Inactive)
REMARK    1  A    between atoms: C_5  and  C_7
REMARK    2  A    between atoms: C_8  and  C_13
REMARK    3  A    between atoms: C_9  and  N_12
REMARK                            x       y       z     vdW  Elec       q    Type
REMARK                         _______ _______ _______ _____ _____    ______ ____
ROOT
ATOM      1  C   UNL     1       1.232  -2.172  -0.155  0.00  0.00    +0.124 A 
ATOM      2  C   UNL     1       0.088  -3.056   0.080  0.00  0.00    +0.071 A 
ATOM      3  C   UNL     1       0.589  -4.340   0.153  0.00  0.00    +0.224 A 
ATOM      4  O   UNL     1       1.919  -4.276  -0.018  0.00  0.00    -0.339 OA
ATOM      5  N   UNL     1       2.301  -2.929  -0.213  0.00  0.00    -0.075 NA
ENDROOT
BRANCH   1  10
ATOM      6  C   UNL     1       0.213   1.266  -1.285  0.00  0.00    +0.001 A 
ATOM      7  C   UNL     1       1.107   2.057  -0.586  0.00  0.00    +0.001 A 
ATOM      8  C   UNL     1       2.042   1.478   0.253  0.00  0.00    +0.016 A 
ATOM      9  C   UNL     1       2.087   0.105   0.397  0.00  0.00    +0.027 A 
ATOM     10  C   UNL     1       1.188  -0.697  -0.305  0.00  0.00    +0.018 A 
ATOM     11  C   UNL     1       0.249  -0.107  -1.149  0.00  0.00    +0.011 A 
ATOM     12 BR   UNL     1       3.366  -0.685   1.544  0.00  0.00    -0.050 Br
ENDBRANCH   1  10
BRANCH   2  13
ATOM     13  C   UNL     1      -1.331  -2.651   0.213  0.00  0.00    -0.011 A 
ATOM     14  C   UNL     1      -1.739  -1.880   1.301  0.00  0.00    +0.010 A 
ATOM     15  C   UNL     1      -3.062  -1.506   1.421  0.00  0.00    +0.020 A 
ATOM     16  C   UNL     1      -3.983  -1.894   0.463  0.00  0.00    +0.041 A 
ATOM     17  C   UNL     1      -3.583  -2.660  -0.619  0.00  0.00    +0.020 A 
ATOM     18  C   UNL     1      -2.262  -3.035  -0.751  0.00  0.00    +0.010 A 
ATOM     19 CL   UNL     1      -5.646  -1.421   0.620  0.00  0.00    -0.084 Cl
ENDBRANCH   2  13
BRANCH   3  20
ATOM     20  N   UNL     1      -0.146  -5.488   0.366  0.00  0.00    -0.327 N 
ATOM     21  H   UNL     1      -1.108  -5.433   0.479  0.00  0.00    +0.145 HD
ATOM     22  H   UNL     1       0.298  -6.349   0.402  0.00  0.00    +0.145 HD
ENDBRANCH   3  20
TORSDOF 3
