REMARK  Name = ZINC42411932
REMARK  6 active torsions:
REMARK  status: ('A' for Active; 'I' for Inactive)
REMARK    1  A    between atoms: C_1  and  C_2
REMARK    2  A    between atoms: C_2  and  C_4
REMARK    3  A    between atoms: C_2  and  N_7
REMARK    4  A    between atoms: N_7  and  C_8
REMARK    5  A    between atoms: C_8  and  C_9
REMARK    6  A    between atoms: C_14  and  O_15
REMARK                            x       y       z     vdW  Elec       q    Type
REMARK                         _______ _______ _______ _____ _____    ______ ____
ROOT
ATOM      1  C   UNL     1      -0.235  -0.547  -2.346  0.00  0.00    +0.120 C 
ENDROOT
BRANCH   1   2
ATOM      2  C   UNL     1       0.504  -1.036  -3.564  0.00  0.00    +0.009 A 
ATOM      3  C   UNL     1       0.940  -0.134  -4.516  0.00  0.00    +0.008 A 
ATOM      4  C   UNL     1       1.619  -0.581  -5.635  0.00  0.00    +0.002 A 
ATOM      5  C   UNL     1       1.863  -1.932  -5.804  0.00  0.00    +0.019 A 
ATOM      6  C   UNL     1       1.430  -2.838  -4.855  0.00  0.00    +0.060 A 
ATOM      7  C   UNL     1       0.752  -2.390  -3.729  0.00  0.00    +0.135 A 
ATOM      8 BR   UNL     1       1.764  -4.684  -5.087  0.00  0.00    -0.047 Br
BRANCH   7   9
ATOM      9  O   UNL     1       0.329  -3.278  -2.791  0.00  0.00    -0.505 OA
ATOM     10  H   UNL     1      -0.560  -3.624  -2.949  0.00  0.00    +0.292 HD
ENDBRANCH   7   9
ENDBRANCH   1   2
BRANCH   1  11
ATOM     11  N   UNL     1       0.690  -0.478  -1.207  0.00  0.00    -0.302 NA
ATOM     12  H   UNL     1       1.485   0.104  -1.422  0.00  0.00    +0.123 HD
BRANCH  11  14
ATOM     13  C   UNL     1      -0.019   1.526   0.010  0.00  0.00    +0.034 C 
ATOM     14  C   UNL     1       0.002  -0.004   0.002  0.00  0.00    +0.137 C 
BRANCH  14  15
ATOM     15  C   UNL     1       0.731  -0.503   1.223  0.00  0.00    +0.227 C 
ATOM     16  O   UNL     1       1.725  -1.187   1.099  0.00  0.00    -0.274 OA
ATOM     17  N   UNL     1       0.278  -0.191   2.453  0.00  0.00    -0.328 N 
ATOM     18  H   UNL     1      -0.517   0.356   2.553  0.00  0.00    +0.145 HD
ATOM     19  H   UNL     1       0.747  -0.512   3.239  0.00  0.00    +0.145 HD
ENDBRANCH  14  15
ENDBRANCH  11  14
ENDBRANCH   1  11
TORSDOF 5
