REMARK  Name = ZINC43883929
REMARK  13 active torsions:
REMARK  status: ('A' for Active; 'I' for Inactive)
REMARK    1  A    between atoms: C_1  and  C_2
REMARK    2  A    between atoms: C_2  and  C_3
REMARK    3  A    between atoms: C_3  and  C_4
REMARK    4  A    between atoms: C_3  and  C_5
REMARK    5  A    between atoms: C_3  and  N_18
REMARK    6  A    between atoms: N_7  and  C_8
REMARK    7  A    between atoms: C_10  and  O_16
REMARK    8  A    between atoms: C_12  and  O_14
REMARK    9  A    between atoms: O_14  and  C_15
REMARK   10  A    between atoms: O_16  and  C_17
REMARK   11  A    between atoms: N_18  and  C_19
REMARK   12  A    between atoms: C_19  and  C_20
REMARK   13  A    between atoms: C_32  and  C_34
REMARK                            x       y       z     vdW  Elec       q    Type
REMARK                         _______ _______ _______ _____ _____    ______ ____
ROOT
ATOM      1  N   UNL     1      -2.246   0.768   1.336  0.00  0.00    -0.283 N 
ATOM      2  C   UNL     1      -3.521   1.091   1.042  0.00  0.00    +0.247 C 
ATOM      3  O   UNL     1      -4.223   1.619   1.882  0.00  0.00    -0.270 OA
ENDROOT
BRANCH   2   4
ATOM      4  C   UNL     1      -4.066   0.802  -0.301  0.00  0.00    +0.037 A 
ATOM      5  C   UNL     1      -3.371  -0.037  -1.174  0.00  0.00    +0.013 A 
ATOM      6  C   UNL     1      -3.885  -0.303  -2.426  0.00  0.00    +0.001 A 
ATOM      7  C   UNL     1      -5.087   0.260  -2.818  0.00  0.00    +0.000 A 
ATOM      8  C   UNL     1      -5.780   1.093  -1.958  0.00  0.00    +0.001 A 
ATOM      9  C   UNL     1      -5.280   1.362  -0.701  0.00  0.00    +0.013 A 
ENDBRANCH   2   4
BRANCH   1  10
ATOM     10  C   UNL     1      -1.562  -0.282   0.577  0.00  0.00    +0.111 C 
ATOM     11  C   UNL     1      -2.546  -1.413   0.271  0.00  0.00    +0.042 C 
BRANCH  10  12
ATOM     12  C   UNL     1      -1.040   0.292  -0.715  0.00  0.00    +0.241 C 
ATOM     13  O   UNL     1      -0.019  -0.145  -1.204  0.00  0.00    -0.273 OA
ATOM     14  N   UNL     1      -1.706   1.291  -1.327  0.00  0.00    -0.284 N 
ATOM     15  H   UNL     1      -2.586   1.551  -1.012  0.00  0.00    +0.155 HD
BRANCH  14  16
ATOM     16  C   UNL     1      -1.130   1.952  -2.417  0.00  0.00    +0.040 A 
ATOM     17  C   UNL     1      -0.022   1.407  -3.053  0.00  0.00    +0.069 A 
ATOM     18  C   UNL     1       0.549   2.062  -4.133  0.00  0.00    +0.125 A 
ATOM     19  C   UNL     1       0.014   3.262  -4.578  0.00  0.00    +0.091 A 
ATOM     20  C   UNL     1      -1.092   3.807  -3.944  0.00  0.00    +0.125 A 
ATOM     21  C   UNL     1      -1.668   3.150  -2.867  0.00  0.00    +0.069 A 
BRANCH  20  22
ATOM     22  O   UNL     1      -1.615   4.983  -4.380  0.00  0.00    -0.495 OA
ATOM     23  C   UNL     1      -0.975   5.603  -5.497  0.00  0.00    +0.277 C 
ENDBRANCH  20  22
BRANCH  18  24
ATOM     24  O   UNL     1       1.633   1.529  -4.755  0.00  0.00    -0.495 OA
ATOM     25  C   UNL     1       2.170   2.258  -5.861  0.00  0.00    +0.277 C 
ENDBRANCH  18  24
ENDBRANCH  14  16
ENDBRANCH  10  12
BRANCH  10  27
ATOM     26  C   UNL     1       0.835   0.057   1.194  0.00  0.00    +0.006 C 
ATOM     27  C   UNL     1      -0.395  -0.829   1.400  0.00  0.00    +0.032 C 
ENDBRANCH  10  27
ENDBRANCH   1  10
BRANCH   1  28
ATOM     28  C   UNL     1      -1.543   1.468   2.415  0.00  0.00    +0.111 C 
BRANCH  28  29
ATOM     29  C   UNL     1      -0.752   2.640   1.832  0.00  0.00    -0.007 C 
ATOM     30  C   UNL     1      -1.720   3.647   1.208  0.00  0.00    +0.002 C 
ATOM     31  C   UNL     1      -0.915   4.842   0.686  0.00  0.00    -0.018 C 
ATOM     32  C   UNL     1      -0.128   5.451   1.847  0.00  0.00    -0.078 C 
ATOM     33  N   UNL     1       0.799   4.457   2.407  0.00  0.00    +0.382 N 
ATOM     34  C   UNL     1       0.051   3.317   2.947  0.00  0.00    -0.064 C 
ATOM     35  C   UNL     1       1.021   2.284   3.532  0.00  0.00    -0.015 C 
ATOM     36  C   UNL     1       1.859   2.928   4.638  0.00  0.00    -0.003 C 
ATOM     37  C   UNL     1       2.597   4.137   4.052  0.00  0.00    -0.019 C 
ATOM     38  C   UNL     1       1.573   5.109   3.474  0.00  0.00    -0.078 C 
ATOM     39  H   UNL     1       1.426   4.137   1.684  0.00  0.00    -0.081 HD
ENDBRANCH  28  29
ENDBRANCH   1  28
TORSDOF 9
