REMARK  Name = ZINC01896950
REMARK  12 active torsions:
REMARK  status: ('A' for Active; 'I' for Inactive)
REMARK    1  A    between atoms: C_1  and  C_2
REMARK    2  A    between atoms: C_2  and  O_3
REMARK    3  A    between atoms: O_3  and  C_4
REMARK    4  A    between atoms: C_7  and  C_12
REMARK    5  A    between atoms: C_9  and  O_10
REMARK    6  A    between atoms: O_10  and  C_11
REMARK    7  A    between atoms: N_13  and  N_14
REMARK    8  A    between atoms: C_15  and  C_17
REMARK    9  A    between atoms: C_17  and  S_18
REMARK   10  A    between atoms: S_18  and  C_19
REMARK   11  A    between atoms: C_22  and  C_31
REMARK   12  A    between atoms: N_23  and  C_24
REMARK                            x       y       z     vdW  Elec       q    Type
REMARK                         _______ _______ _______ _____ _____    ______ ____
ROOT
ATOM      1  S   UNL     1      -0.485 -11.364   1.036  0.00  0.00    -0.076 S 
ENDROOT
BRANCH   1   2
ATOM      2  C   UNL     1      -0.268 -13.077   0.686  0.00  0.00    +0.197 A 
ATOM      3  N   UNL     1       0.341 -13.588  -0.361  0.00  0.00    -0.122 NA
ATOM      4  N   UNL     1       0.318 -14.871  -0.303  0.00  0.00    -0.128 NA
ATOM      5  C   UNL     1      -0.307 -15.261   0.784  0.00  0.00    +0.169 A 
ATOM      6  N   UNL     1      -0.697 -14.123   1.456  0.00  0.00    -0.270 N 
BRANCH   6   7
ATOM      7  C   UNL     1      -1.392 -14.053   2.672  0.00  0.00    +0.051 A 
ATOM      8  C   UNL     1      -0.797 -14.510   3.840  0.00  0.00    +0.028 A 
ATOM      9  C   UNL     1      -1.483 -14.439   5.036  0.00  0.00    +0.022 A 
ATOM     10  C   UNL     1      -2.762 -13.912   5.072  0.00  0.00    +0.041 A 
ATOM     11  C   UNL     1      -3.357 -13.456   3.909  0.00  0.00    +0.022 A 
ATOM     12  C   UNL     1      -2.673 -13.520   2.711  0.00  0.00    +0.028 A 
ATOM     13 CL   UNL     1      -3.622 -13.824   6.577  0.00  0.00    -0.084 Cl
ENDBRANCH   6   7
BRANCH   5  14
ATOM     14  C   UNL     1      -0.542 -16.657   1.210  0.00  0.00    +0.020 A 
ATOM     15  C   UNL     1      -1.481 -16.938   2.204  0.00  0.00    +0.013 A 
ATOM     16  C   UNL     1      -1.696 -18.242   2.596  0.00  0.00    +0.021 A 
ATOM     17  C   UNL     1      -0.982 -19.273   2.007  0.00  0.00    +0.041 A 
ATOM     18  C   UNL     1      -0.049 -19.000   1.022  0.00  0.00    +0.021 A 
ATOM     19  C   UNL     1       0.171 -17.700   0.616  0.00  0.00    +0.013 A 
ATOM     20 CL   UNL     1      -1.258 -20.912   2.507  0.00  0.00    -0.084 Cl
ENDBRANCH   5  14
ENDBRANCH   1   2
BRANCH   1  21
ATOM     21  C   UNL     1       0.306 -10.526  -0.365  0.00  0.00    +0.174 C 
BRANCH  21  23
ATOM     22  N   UNL     1       0.711  -8.203  -1.113  0.00  0.00    -0.206 N 
ATOM     23  C   UNL     1       0.191  -9.034  -0.188  0.00  0.00    +0.242 C 
ATOM     24  O   UNL     1      -0.370  -8.580   0.787  0.00  0.00    -0.273 OA
ATOM     25  H   UNL     1       1.159  -8.566  -1.893  0.00  0.00    +0.177 HD
BRANCH  22  27
ATOM     26  C   UNL     1       1.104  -6.016  -1.840  0.00  0.00    +0.138 C 
ATOM     27  N   UNL     1       0.604  -6.816  -0.949  0.00  0.00    -0.188 NA
BRANCH  26  31
ATOM     28  C   UNL     1       0.777  -1.810  -1.336  0.00  0.00    +0.162 A 
ATOM     29  C   UNL     1       0.242  -2.667  -0.385  0.00  0.00    +0.050 A 
ATOM     30  C   UNL     1       0.346  -4.032  -0.545  0.00  0.00    +0.013 A 
ATOM     31  C   UNL     1       0.991  -4.556  -1.667  0.00  0.00    -0.002 A 
ATOM     32  C   UNL     1       1.530  -3.694  -2.625  0.00  0.00    +0.059 A 
ATOM     33  C   UNL     1       1.417  -2.326  -2.461  0.00  0.00    +0.162 A 
BRANCH  33  34
ATOM     34  O   UNL     1       1.936  -1.484  -3.394  0.00  0.00    -0.491 OA
ATOM     35  C   UNL     1       2.579  -2.082  -4.521  0.00  0.00    +0.277 C 
ENDBRANCH  33  34
BRANCH  28  36
ATOM     36  O   UNL     1       0.671  -0.465  -1.174  0.00  0.00    -0.489 OA
BRANCH  36  38
ATOM     37  C   UNL     1      -0.019   1.526   0.010  0.00  0.00    +0.048 C 
ATOM     38  C   UNL     1       0.002  -0.004   0.002  0.00  0.00    +0.226 C 
ENDBRANCH  36  38
ENDBRANCH  28  36
ENDBRANCH  26  31
ENDBRANCH  22  27
ENDBRANCH  21  23
ENDBRANCH   1  21
TORSDOF 10
