REMARK  Name = ZINC36648089
REMARK  11 active torsions:
REMARK  status: ('A' for Active; 'I' for Inactive)
REMARK    1  A    between atoms: C_1  and  C_2
REMARK    2  A    between atoms: C_4  and  C_35
REMARK    3  A    between atoms: N_11  and  C_12
REMARK    4  A    between atoms: C_12  and  C_13
REMARK    5  A    between atoms: C_13  and  C_14
REMARK    6  A    between atoms: C_14  and  N_15
REMARK    7  A    between atoms: N_15  and  C_16
REMARK    8  A    between atoms: N_15  and  C_17
REMARK    9  A    between atoms: C_18  and  C_20
REMARK   10  A    between atoms: N_26  and  S_27
REMARK   11  A    between atoms: S_27  and  C_30
REMARK                            x       y       z     vdW  Elec       q    Type
REMARK                         _______ _______ _______ _____ _____    ______ ____
ROOT
ATOM      1  C   UNL     1       1.543   0.611   1.797  0.00  0.00    +0.044 C 
ATOM      2  C   UNL     1       1.389  -0.839   1.415  0.00  0.00    -0.049 A 
ATOM      3  C   UNL     1       1.219  -1.199   0.086  0.00  0.00    +0.009 A 
ATOM      4  C   UNL     1       1.077  -2.510  -0.289  0.00  0.00    -0.024 A 
ATOM      5  C   UNL     1       1.099  -3.543   0.676  0.00  0.00    +0.083 A 
ATOM      6  C   UNL     1       1.274  -3.139   2.020  0.00  0.00    +0.041 A 
ATOM      7  C   UNL     1       1.421  -1.824   2.384  0.00  0.00    +0.020 A 
ATOM      8  S   UNL     1       1.245  -4.689   2.888  0.00  0.00    -0.052 S 
ATOM      9  C   UNL     1       1.011  -5.741   1.462  0.00  0.00    +0.168 A 
ATOM     10  N   UNL     1       0.974  -4.873   0.477  0.00  0.00    -0.224 NA
ATOM     11  N   UNL     1       0.898  -7.120   1.409  0.00  0.00    -0.249 N 
ATOM     12  C   UNL     1       0.724  -7.737   0.223  0.00  0.00    +0.240 C 
ATOM     13  O   UNL     1       0.761  -7.096  -0.805  0.00  0.00    -0.273 OA
ATOM     14  C   UNL     1       0.894  -2.854  -1.744  0.00  0.00    +0.046 C 
ENDROOT
BRANCH  12  15
ATOM     15  C   UNL     1       0.483  -9.224   0.175  0.00  0.00    +0.166 C 
ATOM     16  C   UNL     1      -0.877  -9.504  -0.472  0.00  0.00    +0.030 C 
ATOM     17  C   UNL     1      -1.055 -11.014  -0.644  0.00  0.00    +0.003 C 
ATOM     18  C   UNL     1       0.040 -11.556  -1.566  0.00  0.00    +0.017 C 
ATOM     19  C   UNL     1       1.410 -11.300  -0.930  0.00  0.00    +0.110 C 
ATOM     20  N   UNL     1       1.533  -9.868  -0.626  0.00  0.00    -0.164 NA
BRANCH  20  21
ATOM     21  S   UNL     1       2.827  -8.995  -1.178  0.00  0.00    +0.068 S 
ATOM     22  O   UNL     1       2.949  -7.865  -0.325  0.00  0.00    -0.152 OA
ATOM     23  O   UNL     1       3.888  -9.920  -1.373  0.00  0.00    -0.152 OA
BRANCH  21  24
ATOM     24  C   UNL     1       2.398  -8.379  -2.772  0.00  0.00    +0.143 A 
ATOM     25  C   UNL     1       1.917  -7.158  -3.114  0.00  0.00    +0.036 A 
ATOM     26  C   UNL     1       1.649  -6.893  -4.444  0.00  0.00    +0.010 A 
ATOM     27  C   UNL     1       1.873  -7.860  -5.366  0.00  0.00    +0.047 A 
ATOM     28  S   UNL     1       2.490  -9.197  -4.356  0.00  0.00    -0.077 S 
ENDBRANCH  21  24
ENDBRANCH  20  21
ENDBRANCH  12  15
BRANCH  11  29
ATOM     29  C   UNL     1       0.967  -7.909   2.642  0.00  0.00    +0.114 C 
BRANCH  29  30
ATOM     30  C   UNL     1      -0.435  -8.044   3.240  0.00  0.00    +0.001 C 
BRANCH  30  31
ATOM     31  C   UNL     1      -0.347  -8.760   4.589  0.00  0.00    -0.078 C 
BRANCH  31  32
ATOM     32  N   UNL     1      -1.692  -8.890   5.163  0.00  0.00    +0.376 N 
ATOM     33  C   UNL     1      -1.623  -9.681   6.399  0.00  0.00    -0.097 C 
ATOM     34  C   UNL     1      -2.226  -7.555   5.466  0.00  0.00    -0.097 C 
ATOM     35  H   UNL     1      -2.298  -9.352   4.501  0.00  0.00    -0.083 HD
ENDBRANCH  31  32
ENDBRANCH  30  31
ENDBRANCH  29  30
ENDBRANCH  11  29
TORSDOF 7
