REMARK  Name = ZINC06591390
REMARK  5 active torsions:
REMARK  status: ('A' for Active; 'I' for Inactive)
REMARK    1  A    between atoms: N_3  and  C1*_9
REMARK    2  A    between atoms: C2*_11  and  O2*_21
REMARK    3  A    between atoms: C3*_13  and  O3*_20
REMARK    4  A    between atoms: C4*_15  and  C5*_18
REMARK    5  A    between atoms: C5*_18  and  O5*_19
REMARK                            x       y       z     vdW  Elec       q    Type
REMARK                         _______ _______ _______ _____ _____    ______ ____
ROOT
ATOM      1  C1* UNL     1      -2.159   1.459  -0.778  0.00  0.00    +0.255 C 
ATOM      2  C2* UNL     1      -2.169   1.461   0.763  0.00  0.00    +0.195 C 
ATOM      3  C3* UNL     1      -0.677   1.599   1.152  0.00  0.00    +0.178 C 
ATOM      4  C4* UNL     1       0.040   1.121  -0.136  0.00  0.00    +0.177 C 
ATOM      5  O4* UNL     1      -0.791   1.633  -1.199  0.00  0.00    -0.346 OA
ENDROOT
BRANCH   1   8
ATOM      6  C   UNL     1      -2.285  -1.955  -2.175  0.00  0.00    +0.053 A 
ATOM      7  C   UNL     1      -1.806  -0.780  -1.715  0.00  0.00    +0.096 A 
ATOM      8  N   UNL     1      -2.678   0.184  -1.279  0.00  0.00    -0.270 N 
ATOM      9  C   UNL     1      -4.005  -0.033  -1.301  0.00  0.00    +0.352 A 
ATOM     10  O   UNL     1      -4.761   0.833  -0.905  0.00  0.00    -0.244 OA
ATOM     11  N   UNL     1      -4.508  -1.194  -1.760  0.00  0.00    -0.186 NA
ATOM     12  C   UNL     1      -3.684  -2.167  -2.198  0.00  0.00    +0.114 A 
ATOM     13  S   UNL     1      -4.324  -3.646  -2.776  0.00  0.00    -0.030 S 
ENDBRANCH   1   8
BRANCH   3  14
ATOM     14  O3* UNL     1      -0.349   2.959   1.444  0.00  0.00    -0.386 OA
ATOM     15  H3* UNL     1       0.676   3.227   1.738  0.00  0.00    +0.210 HD
ENDBRANCH   3  14
BRANCH   2  16
ATOM     16  O2* UNL     1      -2.705   0.233   1.261  0.00  0.00    -0.385 OA
ATOM     17  H2* UNL     1      -2.784   0.068   2.345  0.00  0.00    +0.210 HD
ENDBRANCH   2  16
BRANCH   4  18
ATOM     18  C5* UNL     1       1.448   1.713  -0.219  0.00  0.00    +0.190 C 
BRANCH  18  19
ATOM     19  O5* UNL     1       2.110   1.205  -1.379  0.00  0.00    -0.392 OA
ATOM     20  H5* UNL     1       3.139   1.520  -1.608  0.00  0.00    +0.210 HD
ENDBRANCH  18  19
ENDBRANCH   4  18
TORSDOF 5
