REMARK  Name = ZINC01407831
REMARK  14 active torsions:
REMARK  status: ('A' for Active; 'I' for Inactive)
REMARK    1  A    between atoms: C_1  and  C_2
REMARK    2  A    between atoms: C_4  and  C_43
REMARK    3  A    between atoms: C_6  and  S_8
REMARK    4  A    between atoms: S_8  and  C_9
REMARK    5  A    between atoms: C_9  and  C_10
REMARK    6  A    between atoms: N_12  and  C_13
REMARK    7  A    between atoms: N_12  and  C_20
REMARK    8  A    between atoms: C_13  and  C_14
REMARK    9  A    between atoms: C_20  and  C_22
REMARK   10  A    between atoms: C_20  and  C_31
REMARK   11  A    between atoms: C_25  and  C_28
REMARK   12  A    between atoms: C_28  and  C_29
REMARK   13  A    between atoms: C_28  and  C_30
REMARK   14  A    between atoms: N_33  and  C_34
REMARK                            x       y       z     vdW  Elec       q    Type
REMARK                         _______ _______ _______ _____ _____    ______ ____
ROOT
ATOM      1  C   UNL     1      -1.273  -0.035  -1.650  0.00  0.00    +0.193 C 
ENDROOT
BRANCH   1   2
ATOM      2  C   UNL     1      -1.632   1.423  -1.784  0.00  0.00    -0.018 A 
ATOM      3  C   UNL     1      -2.856   1.877  -1.332  0.00  0.00    +0.006 A 
ATOM      4  C   UNL     1      -3.184   3.215  -1.450  0.00  0.00    +0.004 A 
ATOM      5  C   UNL     1      -2.290   4.096  -2.030  0.00  0.00    -0.045 A 
ATOM      6  C   UNL     1      -1.068   3.641  -2.487  0.00  0.00    +0.004 A 
ATOM      7  C   UNL     1      -0.739   2.304  -2.364  0.00  0.00    +0.006 A 
BRANCH   5   8
ATOM      8  C   UNL     1      -2.650   5.554  -2.165  0.00  0.00    +0.013 C 
ATOM      9  C   UNL     1      -3.912   5.691  -3.018  0.00  0.00    +0.012 C 
ATOM     10  C   UNL     1      -2.905   6.146  -0.777  0.00  0.00    +0.012 C 
ENDBRANCH   5   8
ENDBRANCH   1   2
BRANCH   1  11
ATOM     11  C   UNL     1      -2.063  -0.840  -2.649  0.00  0.00    +0.242 C 
ATOM     12  O   UNL     1      -2.657  -1.835  -2.292  0.00  0.00    -0.273 OA
ATOM     13  N   UNL     1      -2.108  -0.455  -3.940  0.00  0.00    -0.284 N 
ATOM     14  H   UNL     1      -1.579   0.300  -4.240  0.00  0.00    +0.155 HD
BRANCH  13  15
ATOM     15  C   UNL     1      -2.921  -1.146  -4.848  0.00  0.00    +0.037 A 
ATOM     16  C   UNL     1      -3.194  -2.493  -4.651  0.00  0.00    +0.027 A 
ATOM     17  C   UNL     1      -3.999  -3.174  -5.544  0.00  0.00    +0.051 A 
ATOM     18  C   UNL     1      -4.528  -2.517  -6.644  0.00  0.00    +0.166 A 
ATOM     19  C   UNL     1      -4.252  -1.167  -6.847  0.00  0.00    +0.168 A 
ATOM     20  C   UNL     1      -3.449  -0.484  -5.949  0.00  0.00    +0.072 A 
ATOM     21  O   UNL     1      -4.883  -0.760  -7.987  0.00  0.00    -0.453 OA
ATOM     22  C   UNL     1      -5.212  -1.968  -8.698  0.00  0.00    +0.466 C 
ATOM     23  O   UNL     1      -5.333  -2.955  -7.657  0.00  0.00    -0.453 OA
ENDBRANCH  13  15
ENDBRANCH   1  11
BRANCH   1  26
ATOM     24  C   UNL     1      -0.610  -0.601   0.625  0.00  0.00    +0.227 C 
ATOM     25  O   UNL     1       0.525  -0.278   0.344  0.00  0.00    -0.275 OA
ATOM     26  N   UNL     1      -1.589  -0.493  -0.295  0.00  0.00    -0.281 N 
BRANCH  24  27
ATOM     27  C   UNL     1      -0.925  -1.122   2.004  0.00  0.00    +0.173 C 
BRANCH  27  28
ATOM     28  S   UNL     1       0.526  -0.929   3.068  0.00  0.00    -0.077 S 
BRANCH  28  34
ATOM     29  C   UNL     1      -3.275  -3.064   5.748  0.00  0.00    +0.066 C 
ATOM     30  C   UNL     1      -1.857  -2.556   5.717  0.00  0.00    +0.043 A 
ATOM     31  C   UNL     1      -1.065  -2.616   6.854  0.00  0.00    +0.046 A 
ATOM     32  C   UNL     1       0.234  -2.138   6.782  0.00  0.00    +0.043 A 
ATOM     33  N   UNL     1       0.677  -1.642   5.640  0.00  0.00    -0.227 NA
ATOM     34  C   UNL     1      -0.105  -1.599   4.571  0.00  0.00    +0.189 A 
ATOM     35  N   UNL     1      -1.354  -2.043   4.607  0.00  0.00    -0.227 NA
ATOM     36  C   UNL     1       1.131  -2.184   7.993  0.00  0.00    +0.066 C 
ENDBRANCH  28  34
ENDBRANCH  27  28
ENDBRANCH  24  27
BRANCH  26  37
ATOM     37  C   UNL     1      -2.968  -0.834   0.061  0.00  0.00    +0.145 C 
BRANCH  37  38
ATOM     38  C   UNL     1      -3.017  -2.244   0.589  0.00  0.00    -0.012 A 
ATOM     39  C   UNL     1      -2.261  -3.243  -0.005  0.00  0.00    +0.008 A 
ATOM     40  C   UNL     1      -2.333  -4.525   0.517  0.00  0.00    +0.020 A 
ATOM     41  C   UNL     1      -3.159  -4.766   1.600  0.00  0.00    +0.111 A 
ATOM     42  N   UNL     1      -3.868  -3.792   2.136  0.00  0.00    -0.263 NA
ATOM     43  C   UNL     1      -3.820  -2.560   1.668  0.00  0.00    +0.115 A 
ENDBRANCH  37  38
ENDBRANCH  26  37
ENDBRANCH   1  26
TORSDOF 10
