REMARK  Name = ZINC00849487
REMARK  6 active torsions:
REMARK  status: ('A' for Active; 'I' for Inactive)
REMARK    1  A    between atoms: C_1  and  C_2
REMARK    2  A    between atoms: C_9  and  N_14
REMARK    3  A    between atoms: C_10  and  C_11
REMARK    4  A    between atoms: N_14  and  C_15
REMARK    5  A    between atoms: C_15  and  N_17
REMARK    6  A    between atoms: C_18  and  C_20
REMARK                            x       y       z     vdW  Elec       q    Type
REMARK                         _______ _______ _______ _____ _____    ______ ____
ROOT
ATOM      1  C   UNL     1     -10.011  -2.533   0.130  0.00  0.00    +0.008 C 
ATOM      2  C   UNL     1      -9.022  -1.400   0.415  0.00  0.00    -0.009 C 
ATOM      3  C   UNL     1      -9.396  -0.168  -0.413  0.00  0.00    +0.008 C 
ATOM      4  C   UNL     1      -8.573   1.037   0.047  0.00  0.00    +0.037 C 
ATOM      5  C   UNL     1      -7.098   0.655   0.039  0.00  0.00    -0.023 A 
ATOM      6  C   UNL     1      -6.715  -0.640   0.030  0.00  0.00    -0.004 A 
ATOM      7  S   UNL     1      -4.946  -0.589   0.015  0.00  0.00    -0.077 S 
ATOM      8  C   UNL     1      -4.715   1.128   0.030  0.00  0.00    +0.084 A 
ATOM      9  C   UNL     1      -6.013   1.621   0.039  0.00  0.00    +0.068 A 
ATOM     10  C   UNL     1      -7.605  -1.845   0.028  0.00  0.00    +0.046 C 
ENDROOT
BRANCH   9  11
ATOM     11  C   UNL     1      -6.278   3.063   0.048  0.00  0.00    +0.244 C 
ATOM     12  O   UNL     1      -6.393   3.667  -1.002  0.00  0.00    -0.270 OA
ATOM     13  N   UNL     1      -6.395   3.719   1.220  0.00  0.00    -0.325 N 
ATOM     14  H   UNL     1      -6.304   3.238   2.057  0.00  0.00    +0.145 HD
ATOM     15  H   UNL     1      -6.571   4.673   1.226  0.00  0.00    +0.145 HD
ENDBRANCH   9  11
BRANCH   8  16
ATOM     16  N   UNL     1      -3.525   1.837   0.029  0.00  0.00    -0.291 N 
ATOM     17  H   UNL     1      -3.538   2.807   0.034  0.00  0.00    +0.154 HD
BRANCH  16  18
ATOM     18  C   UNL     1      -2.349   1.179   0.020  0.00  0.00    +0.141 C 
ATOM     19  S   UNL     1      -2.325  -0.532   0.010  0.00  0.00    -0.018 S 
BRANCH  18  20
ATOM     20  N   UNL     1      -1.191   1.869   0.018  0.00  0.00    -0.264 N 
ATOM     21  C   UNL     1      -0.014   1.211   0.009  0.00  0.00    +0.250 C 
ATOM     22  O   UNL     1       0.002  -0.004   0.002  0.00  0.00    -0.270 OA
ATOM     23  H   UNL     1      -1.204   2.839   0.023  0.00  0.00    +0.157 HD
BRANCH  21  24
ATOM     24  C   UNL     1       1.255   1.967   0.001  0.00  0.00    +0.037 A 
ATOM     25  C   UNL     1       1.240   3.363   0.002  0.00  0.00    +0.013 A 
ATOM     26  C   UNL     1       2.429   4.063  -0.000  0.00  0.00    +0.001 A 
ATOM     27  C   UNL     1       3.634   3.384  -0.015  0.00  0.00    +0.000 A 
ATOM     28  C   UNL     1       3.657   2.001  -0.023  0.00  0.00    +0.001 A 
ATOM     29  C   UNL     1       2.475   1.289  -0.015  0.00  0.00    +0.013 A 
ENDBRANCH  21  24
ENDBRANCH  18  20
ENDBRANCH  16  18
ENDBRANCH   8  16
TORSDOF 5
