REMARK  Name = ZINC59181383
REMARK  6 active torsions:
REMARK  status: ('A' for Active; 'I' for Inactive)
REMARK    1  A    between atoms: C_9  and  S_11
REMARK    2  A    between atoms: S_11  and  C_12
REMARK    3  A    between atoms: C_12  and  C_13
REMARK    4  A    between atoms: N_15  and  N_16
REMARK    5  A    between atoms: C_17  and  C_18
REMARK    6  A    between atoms: C_23  and  O_24
REMARK                            x       y       z     vdW  Elec       q    Type
REMARK                         _______ _______ _______ _____ _____    ______ ____
ROOT
ATOM      1  C   UNL     1       6.532  -4.164  -0.082  0.00  0.00    +0.242 C 
ATOM      2  O   UNL     1       6.080  -5.290  -0.082  0.00  0.00    -0.273 OA
ATOM      3  N   UNL     1       7.867  -3.974  -0.094  0.00  0.00    -0.206 N 
ATOM      4  H   UNL     1       8.228  -3.073  -0.093  0.00  0.00    +0.177 HD
ENDROOT
BRANCH   3   5
ATOM      5  N   UNL     1       8.731  -5.076  -0.107  0.00  0.00    -0.188 NA
ATOM      6  C   UNL     1      10.016  -4.892  -0.119  0.00  0.00    +0.142 C 
BRANCH   6   7
ATOM      7  C   UNL     1      10.926  -6.052  -0.133  0.00  0.00    +0.038 A 
ATOM      8  C   UNL     1      12.309  -5.859  -0.140  0.00  0.00    +0.028 A 
ATOM      9  C   UNL     1      13.156  -6.948  -0.153  0.00  0.00    +0.020 A 
ATOM     10  C   UNL     1      12.640  -8.233  -0.160  0.00  0.00    +0.039 A 
ATOM     11  C   UNL     1      11.272  -8.437  -0.153  0.00  0.00    +0.084 A 
ATOM     12  C   UNL     1      10.408  -7.353  -0.134  0.00  0.00    +0.144 A 
ATOM     13 CL   UNL     1      10.636 -10.053  -0.162  0.00  0.00    -0.080 Cl
ATOM     14 BR   UNL     1      15.029  -6.685  -0.163  0.00  0.00    -0.050 Br
BRANCH  12  15
ATOM     15  O   UNL     1       9.064  -7.553  -0.122  0.00  0.00    -0.505 OA
ATOM     16  H   UNL     1       8.666  -7.606  -1.001  0.00  0.00    +0.292 HD
ENDBRANCH  12  15
ENDBRANCH   6   7
ENDBRANCH   3   5
BRANCH   1  17
ATOM     17  C   UNL     1       5.602  -2.978  -0.067  0.00  0.00    +0.174 C 
BRANCH  17  18
ATOM     18  S   UNL     1       3.883  -3.559  -0.053  0.00  0.00    -0.078 S 
BRANCH  18  27
ATOM     19  C   UNL     1      -0.017   1.375   0.010  0.00  0.00    +0.002 A 
ATOM     20  C   UNL     1       1.170   2.094   0.002  0.00  0.00    +0.002 A 
ATOM     21  C   UNL     1       2.382   1.442  -0.013  0.00  0.00    +0.030 A 
ATOM     22  C   UNL     1       2.418   0.045  -0.021  0.00  0.00    +0.090 A 
ATOM     23  C   UNL     1       1.214  -0.678  -0.013  0.00  0.00    +0.067 A 
ATOM     24  C   UNL     1       0.002  -0.004   0.002  0.00  0.00    +0.028 A 
ATOM     25  N   UNL     1       1.568  -2.017  -0.024  0.00  0.00    -0.333 N 
ATOM     26  H   UNL     1       0.960  -2.773  -0.022  0.00  0.00    +0.168 HD
ATOM     27  C   UNL     1       2.933  -2.075  -0.037  0.00  0.00    +0.168 A 
ATOM     28  N   UNL     1       3.429  -0.862  -0.036  0.00  0.00    -0.222 NA
ENDBRANCH  18  27
ENDBRANCH  17  18
ENDBRANCH   1  17
TORSDOF 6
