REMARK  Name = ZINC04150412
REMARK  4 active torsions:
REMARK  status: ('A' for Active; 'I' for Inactive)
REMARK    1  A    between atoms: C_7  and  N_12
REMARK    2  A    between atoms: C_8  and  C_9
REMARK    3  A    between atoms: C_13  and  C_15
REMARK    4  A    between atoms: C_21  and  C_23
REMARK                            x       y       z     vdW  Elec       q    Type
REMARK                         _______ _______ _______ _____ _____    ______ ____
ROOT
ATOM      1  C   UNL     1       8.489   1.556   7.023  0.00  0.00    +0.001 C 
ATOM      2  C   UNL     1       8.874   1.281   5.571  0.00  0.00    +0.005 C 
ATOM      3  C   UNL     1       8.528   2.477   4.691  0.00  0.00    +0.037 C 
ATOM      4  C   UNL     1       7.107   2.338   4.161  0.00  0.00    -0.023 A 
ATOM      5  C   UNL     1       6.154   1.638   4.811  0.00  0.00    -0.004 A 
ATOM      6  S   UNL     1       4.697   1.819   3.818  0.00  0.00    -0.077 S 
ATOM      7  C   UNL     1       5.348   2.793   2.542  0.00  0.00    +0.084 A 
ATOM      8  C   UNL     1       6.670   2.964   2.921  0.00  0.00    +0.068 A 
ATOM      9  C   UNL     1       6.290   0.874   6.092  0.00  0.00    +0.043 C 
ATOM     10  C   UNL     1       6.982   1.760   7.137  0.00  0.00    +0.005 C 
ENDROOT
BRANCH   8  11
ATOM     11  C   UNL     1       7.598   3.750   2.100  0.00  0.00    +0.244 C 
ATOM     12  O   UNL     1       7.717   4.946   2.293  0.00  0.00    -0.270 OA
ATOM     13  N   UNL     1       8.318   3.148   1.134  0.00  0.00    -0.325 N 
ATOM     14  H   UNL     1       8.223   2.195   0.980  0.00  0.00    +0.145 HD
ATOM     15  H   UNL     1       8.932   3.667   0.591  0.00  0.00    +0.145 HD
ENDBRANCH   8  11
BRANCH   7  16
ATOM     16  N   UNL     1       4.702   3.286   1.419  0.00  0.00    -0.279 N 
ATOM     17  C   UNL     1       3.398   3.012   1.216  0.00  0.00    +0.221 C 
ATOM     18  O   UNL     1       2.790   2.334   2.017  0.00  0.00    -0.275 OA
ATOM     19  H   UNL     1       5.189   3.829   0.778  0.00  0.00    +0.155 HD
BRANCH  17  20
ATOM     20  C   UNL     1       2.696   3.548  -0.005  0.00  0.00    +0.089 C 
ATOM     21  C   UNL     1       2.755   5.077   0.003  0.00  0.00    +0.013 C 
ATOM     22  C   UNL     1       2.043   5.621  -1.237  0.00  0.00    +0.001 C 
ATOM     23  C   UNL     1       0.582   5.167  -1.225  0.00  0.00    +0.001 C 
ATOM     24  C   UNL     1       0.522   3.639  -1.233  0.00  0.00    +0.015 C 
ATOM     25  C   UNL     1       1.235   3.094   0.007  0.00  0.00    +0.114 C 
BRANCH  25  26
ATOM     26  C   UNL     1       1.177   1.588  -0.001  0.00  0.00    +0.360 C 
ATOM     27  O   UNL     1       2.199   0.944  -0.014  0.00  0.00    -0.246 OA
ATOM     28  O   UNL     1      -0.011   0.963   0.007  0.00  0.00    -0.246 OA
ENDBRANCH  25  26
ENDBRANCH  17  20
ENDBRANCH   7  16
TORSDOF 4
