REMARK  Name = ZINC35725346
REMARK  10 active torsions:
REMARK  status: ('A' for Active; 'I' for Inactive)
REMARK    1  A    between atoms: C_1  and  C_2
REMARK    2  A    between atoms: C_2  and  C_3
REMARK    3  A    between atoms: C_3  and  C_5
REMARK    4  A    between atoms: C_3  and  C_6
REMARK    5  A    between atoms: C_6  and  C_8
REMARK    6  A    between atoms: C_6  and  N_22
REMARK    7  A    between atoms: C_14  and  C_16
REMARK    8  A    between atoms: N_22  and  S_23
REMARK    9  A    between atoms: S_23  and  C_26
REMARK   10  A    between atoms: C_29  and  C_32
REMARK                            x       y       z     vdW  Elec       q    Type
REMARK                         _______ _______ _______ _____ _____    ______ ____
ROOT
ATOM      1  C   UNL     1      -1.689  -1.956  -0.272  0.00  0.00    +0.165 C 
ENDROOT
BRANCH   1   2
ATOM      2  C   UNL     1      -1.179  -2.796   0.870  0.00  0.00    +0.238 C 
ATOM      3  O   UNL     1      -0.258  -3.566   0.692  0.00  0.00    -0.274 OA
ATOM      4  N   UNL     1      -1.745  -2.694   2.089  0.00  0.00    -0.262 N 
ATOM      5  C   UNL     1      -1.337  -3.534   3.117  0.00  0.00    +0.188 A 
ATOM      6  N   UNL     1      -0.418  -4.481   3.102  0.00  0.00    -0.125 NA
ATOM      7  N   UNL     1      -0.152  -5.171   4.126  0.00  0.00    -0.140 NA
ATOM      8  C   UNL     1      -0.819  -4.935   5.249  0.00  0.00    +0.134 A 
ATOM      9  S   UNL     1      -1.884  -3.603   4.711  0.00  0.00    -0.030 S 
ATOM     10  H   UNL     1      -2.438  -2.033   2.247  0.00  0.00    +0.157 HD
BRANCH   8  11
ATOM     11  C   UNL     1      -0.709  -5.585   6.572  0.00  0.00    +0.009 A 
ATOM     12  C   UNL     1      -1.527  -5.173   7.625  0.00  0.00    +0.010 A 
ATOM     13  C   UNL     1      -1.419  -5.783   8.858  0.00  0.00    +0.001 A 
ATOM     14  C   UNL     1      -0.503  -6.802   9.051  0.00  0.00    +0.000 A 
ATOM     15  C   UNL     1       0.311  -7.215   8.011  0.00  0.00    +0.001 A 
ATOM     16  C   UNL     1       0.209  -6.617   6.772  0.00  0.00    +0.010 A 
ENDBRANCH   8  11
ENDBRANCH   1   2
BRANCH   1  17
ATOM     17  C   UNL     1      -1.156  -0.528  -0.132  0.00  0.00    +0.013 C 
ATOM     18  C   UNL     1      -1.743   0.115   1.126  0.00  0.00    +0.009 C 
BRANCH  17  20
ATOM     19  C   UNL     1       0.912   0.868  -0.009  0.00  0.00    +0.004 C 
ATOM     20  C   UNL     1       0.370  -0.562  -0.023  0.00  0.00    +0.002 C 
ENDBRANCH  17  20
ENDBRANCH   1  17
BRANCH   1  21
ATOM     21  N   UNL     1      -1.231  -2.526  -1.541  0.00  0.00    -0.178 NA
ATOM     22  H   UNL     1      -0.359  -2.946  -1.597  0.00  0.00    +0.149 HD
BRANCH  21  23
ATOM     23  S   UNL     1      -2.204  -2.454  -2.880  0.00  0.00    +0.059 S 
ATOM     24  O   UNL     1      -1.478  -3.059  -3.941  0.00  0.00    -0.153 OA
ATOM     25  O   UNL     1      -3.486  -2.913  -2.475  0.00  0.00    -0.153 OA
BRANCH  23  26
ATOM     26  C   UNL     1      -2.387  -0.753  -3.300  0.00  0.00    +0.105 A 
ATOM     27  C   UNL     1      -3.420  -0.014  -2.755  0.00  0.00    +0.029 A 
ATOM     28  C   UNL     1      -3.564   1.321  -3.085  0.00  0.00    +0.005 A 
ATOM     29  C   UNL     1      -2.674   1.917  -3.958  0.00  0.00    -0.050 A 
ATOM     30  C   UNL     1      -1.639   1.178  -4.502  0.00  0.00    +0.005 A 
ATOM     31  C   UNL     1      -1.493  -0.155  -4.169  0.00  0.00    +0.029 A 
ATOM     32  C   UNL     1      -2.831   3.372  -4.318  0.00  0.00    +0.044 C 
ENDBRANCH  23  26
ENDBRANCH  21  23
ENDBRANCH   1  21
TORSDOF 7
