REMARK  Name = ZINC37264052
REMARK  14 active torsions:
REMARK  status: ('A' for Active; 'I' for Inactive)
REMARK    1  A    between atoms: C_1  and  C_2
REMARK    2  A    between atoms: C_6  and  N_8
REMARK    3  A    between atoms: C_11  and  C_13
REMARK    4  A    between atoms: C_13  and  C_14
REMARK    5  A    between atoms: C_13  and  C_15
REMARK    6  A    between atoms: C_13  and  C_16
REMARK    7  A    between atoms: C_17  and  C_33
REMARK    8  A    between atoms: N_23  and  C_24
REMARK    9  A    between atoms: C_24  and  C_25
REMARK   10  A    between atoms: N_27  and  C_28
REMARK   11  A    between atoms: C_28  and  C_29
REMARK   12  A    between atoms: C_29  and  C_30
REMARK   13  A    between atoms: C_30  and  O_31
REMARK   14  A    between atoms: O_31  and  C_32
REMARK                            x       y       z     vdW  Elec       q    Type
REMARK                         _______ _______ _______ _____ _____    ______ ____
ROOT
ATOM      1  N   UNL     1      -1.257  -4.490   3.072  0.00  0.00    -0.218 N 
ATOM      2  C   UNL     1      -1.032  -5.610   3.800  0.00  0.00    +0.136 A 
ATOM      3  C   UNL     1      -0.237  -5.281   4.843  0.00  0.00    +0.034 A 
ATOM      4  C   UNL     1       0.043  -3.917   4.756  0.00  0.00    +0.075 A 
ATOM      5  N   UNL     1      -0.561  -3.441   3.694  0.00  0.00    -0.169 NA
ATOM      6  C   UNL     1       0.240  -6.246   5.899  0.00  0.00    +0.118 C 
ATOM      7  S   UNL     1       1.523  -7.324   5.167  0.00  0.00    -0.138 S 
ATOM      8  C   UNL     1       0.832  -7.660   3.513  0.00  0.00    +0.166 C 
ATOM      9  C   UNL     1      -0.641  -7.923   3.596  0.00  0.00    +0.231 C 
ATOM     10  O   UNL     1      -1.047  -9.061   3.698  0.00  0.00    -0.274 OA
ATOM     11  N   UNL     1      -1.510  -6.907   3.559  0.00  0.00    -0.246 N 
ENDROOT
BRANCH   1  17
ATOM     12  C   UNL     1      -4.985  -2.411   0.629  0.00  0.00    +0.044 C 
ATOM     13  C   UNL     1      -3.848  -3.398   0.700  0.00  0.00    -0.048 A 
ATOM     14  C   UNL     1      -3.571  -4.212  -0.383  0.00  0.00    +0.003 A 
ATOM     15  C   UNL     1      -2.529  -5.118  -0.322  0.00  0.00    +0.002 A 
ATOM     16  C   UNL     1      -1.760  -5.213   0.822  0.00  0.00    +0.028 A 
ATOM     17  C   UNL     1      -2.035  -4.396   1.911  0.00  0.00    +0.068 A 
ATOM     18  C   UNL     1      -3.079  -3.483   1.844  0.00  0.00    +0.031 A 
ENDBRANCH   1  17
BRANCH   6  19
ATOM     19  C   UNL     1       0.820  -5.479   7.060  0.00  0.00    +0.007 A 
ATOM     20  C   UNL     1       2.105  -5.111   7.283  0.00  0.00    +0.012 A 
ATOM     21  C   UNL     1       2.410  -4.403   8.430  0.00  0.00    +0.008 A 
ATOM     22  C   UNL     1       1.415  -4.097   9.298  0.00  0.00    +0.045 A 
ATOM     23  S   UNL     1      -0.009  -4.813   8.494  0.00  0.00    -0.100 S 
ENDBRANCH   6  19
BRANCH   4  24
ATOM     24  C   UNL     1       0.897  -3.127   5.715  0.00  0.00    +0.007 C 
ATOM     25  C   UNL     1       2.215  -3.868   5.951  0.00  0.00    +0.017 C 
ATOM     26  C   UNL     1       1.187  -1.747   5.122  0.00  0.00    +0.017 C 
ATOM     27  C   UNL     1       0.157  -2.966   7.044  0.00  0.00    +0.017 C 
ENDBRANCH   4  24
BRANCH  11  28
ATOM     28  C   UNL     1      -2.927  -7.144   3.274  0.00  0.00    +0.210 C 
BRANCH  28  29
ATOM     29  C   UNL     1      -3.666  -7.381   4.566  0.00  0.00    +0.231 C 
ATOM     30  O   UNL     1      -3.088  -7.263   5.626  0.00  0.00    -0.274 OA
ATOM     31  N   UNL     1      -4.969  -7.726   4.543  0.00  0.00    -0.314 N 
ATOM     32  H   UNL     1      -5.411  -7.897   3.697  0.00  0.00    +0.149 HD
BRANCH  31  33
ATOM     33  C   UNL     1      -5.718  -7.842   5.797  0.00  0.00    +0.106 C 
BRANCH  33  34
ATOM     34  C   UNL     1      -7.128  -8.356   5.503  0.00  0.00    +0.047 C 
BRANCH  34  35
ATOM     35  C   UNL     1      -7.910  -8.478   6.812  0.00  0.00    +0.161 C 
BRANCH  35  36
ATOM     36  O   UNL     1      -9.228  -8.958   6.537  0.00  0.00    -0.383 OA
ATOM     37  C   UNL     1     -10.046  -9.108   7.699  0.00  0.00    +0.193 C 
ENDBRANCH  35  36
ENDBRANCH  34  35
ENDBRANCH  33  34
ENDBRANCH  31  33
ENDBRANCH  28  29
ENDBRANCH  11  28
TORSDOF 9
