REMARK  Name = ZINC14882993
REMARK  12 active torsions:
REMARK  status: ('A' for Active; 'I' for Inactive)
REMARK    1  A    between atoms: C_1  and  C_2
REMARK    2  A    between atoms: C_2  and  O_3
REMARK    3  A    between atoms: O_3  and  C_4
REMARK    4  A    between atoms: C_13  and  C_26
REMARK    5  A    between atoms: C_17  and  O_24
REMARK    6  A    between atoms: C_18  and  O_22
REMARK    7  A    between atoms: O_22  and  C_23
REMARK    8  A    between atoms: O_24  and  C_25
REMARK    9  A    between atoms: C_26  and  N_27
REMARK   10  A    between atoms: N_27  and  C_28
REMARK   11  A    between atoms: C_28  and  C_29
REMARK   12  A    between atoms: C_29  and  C_30
REMARK                            x       y       z     vdW  Elec       q    Type
REMARK                         _______ _______ _______ _____ _____    ______ ____
ROOT
ATOM      1  C   UNL     1       1.369   0.261   0.843  0.00  0.00    +0.403 C 
ATOM      2  O   UNL     1       2.553   0.094   0.630  0.00  0.00    -0.226 OA
ATOM      3  N   UNL     1       0.761   1.389   0.424  0.00  0.00    -0.264 N 
ATOM      4  C   UNL     1       1.514   2.430  -0.293  0.00  0.00    +0.130 C 
ATOM      5  C   UNL     1       0.760   2.782  -1.580  0.00  0.00    +0.125 C 
ATOM      6  N   UNL     1      -0.627   3.135  -1.250  0.00  0.00    -0.312 N 
ATOM      7  C   UNL     1      -1.341   1.995  -0.658  0.00  0.00    +0.125 C 
ATOM      8  C   UNL     1      -0.673   1.611   0.666  0.00  0.00    +0.130 C 
ATOM      9  C   UNL     1      -1.297   3.616  -2.366  0.00  0.00    +0.123 A 
ATOM     10  C   UNL     1      -1.756   4.940  -2.371  0.00  0.00    -0.024 A 
ATOM     11  C   UNL     1      -2.415   5.426  -3.461  0.00  0.00    +0.015 A 
ATOM     12  C   UNL     1      -2.614   4.567  -4.560  0.00  0.00    +0.004 A 
ATOM     13  C   UNL     1      -3.285   5.006  -5.713  0.00  0.00    +0.059 A 
ATOM     14  C   UNL     1      -3.461   4.149  -6.760  0.00  0.00    +0.162 A 
ATOM     15  C   UNL     1      -2.978   2.833  -6.697  0.00  0.00    +0.164 A 
ATOM     16  C   UNL     1      -2.323   2.381  -5.588  0.00  0.00    +0.077 A 
ATOM     17  C   UNL     1      -2.126   3.239  -4.494  0.00  0.00    +0.077 A 
ATOM     18  N   UNL     1      -1.481   2.819  -3.399  0.00  0.00    -0.232 NA
ENDROOT
BRANCH  15  19
ATOM     19  O   UNL     1      -3.166   1.999  -7.753  0.00  0.00    -0.491 OA
ATOM     20  C   UNL     1      -2.651   0.671  -7.630  0.00  0.00    +0.277 C 
ENDBRANCH  15  19
BRANCH  14  21
ATOM     21  O   UNL     1      -4.111   4.574  -7.876  0.00  0.00    -0.491 OA
ATOM     22  C   UNL     1      -4.579   5.924  -7.880  0.00  0.00    +0.277 C 
ENDBRANCH  14  21
BRANCH   1  23
ATOM     23  O   UNL     1       0.662  -0.680   1.498  0.00  0.00    -0.451 OA
BRANCH  23  25
ATOM     24  C   UNL     1       0.421  -2.816   2.642  0.00  0.00    +0.048 C 
ATOM     25  C   UNL     1       1.381  -1.869   1.920  0.00  0.00    +0.230 C 
ENDBRANCH  23  25
ENDBRANCH   1  23
BRANCH  10  26
ATOM     26  C   UNL     1      -1.522   5.825  -1.174  0.00  0.00    -0.043 C 
BRANCH  26  27
ATOM     27  N   UNL     1      -0.129   6.291  -1.176  0.00  0.00    +0.382 N 
ATOM     28  H   UNL     1       0.548   5.425  -1.130  0.00  0.00    -0.085 HD
ATOM     29  H   UNL     1       0.066   6.861  -2.096  0.00  0.00    -0.085 HD
BRANCH  27  30
ATOM     30  C   UNL     1       0.137   7.159  -0.020  0.00  0.00    -0.078 C 
BRANCH  30  31
ATOM     31  C   UNL     1       1.594   7.624  -0.056  0.00  0.00    +0.011 C 
BRANCH  31  32
ATOM     32  C   UNL     1       1.867   8.513   1.129  0.00  0.00    -0.075 C 
ATOM     33  C   UNL     1       2.377   7.973   2.189  0.00  0.00    -0.028 C 
ATOM     34  C   UNL     1       2.694   8.726   3.448  0.00  0.00    +0.027 C 
ATOM     35  C   UNL     1       2.738  10.230   3.165  0.00  0.00    +0.004 C 
ATOM     36  C   UNL     1       1.469  10.616   2.393  0.00  0.00    +0.005 C 
ATOM     37  C   UNL     1       1.537   9.972   1.005  0.00  0.00    +0.030 C 
ENDBRANCH  31  32
ENDBRANCH  30  31
ENDBRANCH  27  30
ENDBRANCH  26  27
ENDBRANCH  10  26
TORSDOF 9
