REMARK  Name = ZINC16322867
REMARK  9 active torsions:
REMARK  status: ('A' for Active; 'I' for Inactive)
REMARK    1  A    between atoms: C_1  and  C_2
REMARK    2  A    between atoms: C_2  and  C_3
REMARK    3  A    between atoms: C_2  and  C_4
REMARK    4  A    between atoms: C_2  and  N_5
REMARK    5  A    between atoms: C_6  and  C_8
REMARK    6  A    between atoms: C_8  and  O_9
REMARK    7  A    between atoms: O_9  and  C_10
REMARK    8  A    between atoms: C_13  and  S_16
REMARK    9  A    between atoms: S_16  and  N_19
REMARK                            x       y       z     vdW  Elec       q    Type
REMARK                         _______ _______ _______ _____ _____    ______ ____
ROOT
ATOM      1  C   UNL     1       1.176   2.086   0.002  0.00  0.00    +0.121 A 
ATOM      2  C   UNL     1      -0.017   1.377   0.010  0.00  0.00    +0.047 A 
ATOM      3  C   UNL     1       0.002  -0.004   0.002  0.00  0.00    +0.032 A 
ATOM      4  C   UNL     1       1.208  -0.680  -0.013  0.00  0.00    +0.106 A 
ATOM      5  C   UNL     1       2.398   0.024  -0.021  0.00  0.00    +0.032 A 
ATOM      6  C   UNL     1       2.385   1.405  -0.013  0.00  0.00    +0.047 A 
ENDROOT
BRANCH   4   7
ATOM      7  S   UNL     1       1.228  -2.442  -0.022  0.00  0.00    +0.061 S 
ATOM      8  O   UNL     1       2.484  -2.836   0.514  0.00  0.00    -0.153 OA
ATOM      9  O   UNL     1      -0.007  -2.865   0.539  0.00  0.00    -0.153 OA
BRANCH   7  10
ATOM     10  N   UNL     1       1.219  -2.924  -1.607  0.00  0.00    -0.177 NA
ATOM     11  C   UNL     1      -0.050  -3.162  -2.309  0.00  0.00    +0.109 C 
ATOM     12  C   UNL     1      -0.058  -2.328  -3.599  0.00  0.00    +0.017 C 
ATOM     13  C   UNL     1       1.188  -2.661  -4.423  0.00  0.00    +0.003 C 
ATOM     14  C   UNL     1       2.442  -2.299  -3.623  0.00  0.00    +0.017 C 
ATOM     15  C   UNL     1       2.478  -3.127  -2.335  0.00  0.00    +0.109 C 
ENDBRANCH   7  10
ENDBRANCH   4   7
BRANCH   1  16
ATOM     16  O   UNL     1       1.160   3.445   0.009  0.00  0.00    -0.483 OA
BRANCH  16  17
ATOM     17  C   UNL     1       2.426   4.108   0.001  0.00  0.00    +0.324 C 
BRANCH  17  19
ATOM     18  N   UNL     1       3.270   6.433   0.004  0.00  0.00    -0.308 N 
ATOM     19  C   UNL     1       2.211   5.600   0.010  0.00  0.00    +0.251 C 
ATOM     20  O   UNL     1       1.085   6.051   0.023  0.00  0.00    -0.272 OA
ATOM     21  H   UNL     1       4.171   6.073  -0.006  0.00  0.00    +0.149 HD
BRANCH  18  23
ATOM     22  C   UNL     1       2.286   8.279   1.272  0.00  0.00    +0.031 C 
ATOM     23  C   UNL     1       3.061   7.883   0.014  0.00  0.00    +0.026 C 
ATOM     24  C   UNL     1       4.416   8.594   0.004  0.00  0.00    +0.031 C 
ATOM     25  C   UNL     1       2.263   8.292  -1.226  0.00  0.00    +0.031 C 
ENDBRANCH  18  23
ENDBRANCH  17  19
ENDBRANCH  16  17
ENDBRANCH   1  16
TORSDOF 6
