REMARK  Name = ZINC39533956
REMARK  12 active torsions:
REMARK  status: ('A' for Active; 'I' for Inactive)
REMARK    1  A    between atoms: C_1  and  C_2
REMARK    2  A    between atoms: C_2  and  C_3
REMARK    3  A    between atoms: C_2  and  S_4
REMARK    4  A    between atoms: S_4  and  N_7
REMARK    5  A    between atoms: N_7  and  C_8
REMARK    6  A    between atoms: C_8  and  C_9
REMARK    7  A    between atoms: C_9  and  C_11
REMARK    8  A    between atoms: C_9  and  N_24
REMARK    9  A    between atoms: C_14  and  C_17
REMARK   10  A    between atoms: C_22  and  O_23
REMARK   11  A    between atoms: C_28  and  C_31
REMARK   12  A    between atoms: C_31  and  C_32
REMARK                            x       y       z     vdW  Elec       q    Type
REMARK                         _______ _______ _______ _____ _____    ______ ____
ROOT
ATOM      1  C   UNL     1      -0.044  -4.510   2.579  0.00  0.00    +0.102 C 
ENDROOT
BRANCH   1   2
ATOM      2  N   UNL     1       0.782  -5.287   1.646  0.00  0.00    -0.297 NA
ATOM      3  C   UNL     1       0.341  -5.085   0.258  0.00  0.00    +0.066 C 
ATOM      4  C   UNL     1       1.262  -5.863  -0.685  0.00  0.00    -0.067 C 
ATOM      5  N   UNL     1       1.220  -7.291  -0.343  0.00  0.00    +0.383 N 
ATOM      6  C   UNL     1       1.686  -7.479   1.038  0.00  0.00    -0.053 C 
ATOM      7  C   UNL     1       0.769  -6.715   1.995  0.00  0.00    +0.069 C 
ATOM      8  H   UNL     1       0.273  -7.629  -0.427  0.00  0.00    -0.085 HD
ATOM      9  H   UNL     1       1.818  -7.805  -0.972  0.00  0.00    -0.085 HD
BRANCH   6  10
ATOM     10  C   UNL     1       1.659  -8.969   1.386  0.00  0.00    +0.020 C 
BRANCH  10  11
ATOM     11  C   UNL     1       2.654  -9.704   0.525  0.00  0.00    -0.049 A 
ATOM     12  C   UNL     1       2.265 -10.214  -0.699  0.00  0.00    +0.003 A 
ATOM     13  C   UNL     1       3.177 -10.889  -1.489  0.00  0.00    +0.000 A 
ATOM     14  C   UNL     1       4.479 -11.053  -1.054  0.00  0.00    +0.000 A 
ATOM     15  C   UNL     1       4.869 -10.541   0.170  0.00  0.00    +0.000 A 
ATOM     16  C   UNL     1       3.957  -9.863   0.957  0.00  0.00    +0.003 A 
ENDBRANCH  10  11
ENDBRANCH   6  10
ENDBRANCH   1   2
BRANCH   1  17
ATOM     17  C   UNL     1       0.495  -4.667   3.978  0.00  0.00    -0.029 A 
ATOM     18  C   UNL     1       1.861  -4.670   4.193  0.00  0.00    +0.006 A 
ATOM     19  C   UNL     1       2.360  -4.814   5.472  0.00  0.00    +0.009 A 
ATOM     20  C   UNL     1       1.484  -4.956   6.547  0.00  0.00    -0.014 A 
ATOM     21  C   UNL     1       0.109  -4.952   6.324  0.00  0.00    +0.009 A 
ATOM     22  C   UNL     1      -0.379  -4.802   5.042  0.00  0.00    +0.006 A 
BRANCH  20  23
ATOM     23  C   UNL     1       2.015  -5.112   7.923  0.00  0.00    +0.024 A 
ATOM     24  C   UNL     1       3.006  -6.054   8.189  0.00  0.00    +0.012 A 
ATOM     25  C   UNL     1       3.497  -6.195   9.471  0.00  0.00    +0.001 A 
ATOM     26  C   UNL     1       3.007  -5.404  10.495  0.00  0.00    +0.004 A 
ATOM     27  C   UNL     1       2.023  -4.467  10.243  0.00  0.00    +0.046 A 
ATOM     28  C   UNL     1       1.526  -4.310   8.959  0.00  0.00    +0.125 A 
BRANCH  28  29
ATOM     29  O   UNL     1       0.563  -3.385   8.709  0.00  0.00    -0.506 OA
ATOM     30  H   UNL     1      -0.339  -3.720   8.808  0.00  0.00    +0.292 HD
ENDBRANCH  28  29
ENDBRANCH  20  23
ENDBRANCH   1  17
BRANCH   1  31
ATOM     31  C   UNL     1      -0.009  -3.033   2.182  0.00  0.00    +0.129 C 
BRANCH  31  32
ATOM     32  N   UNL     1      -0.889  -2.268   3.069  0.00  0.00    -0.192 NA
ATOM     33  H   UNL     1      -1.602  -2.716   3.550  0.00  0.00    +0.148 HD
BRANCH  32  34
ATOM     34  S   UNL     1      -0.667  -0.637   3.251  0.00  0.00    +0.032 S 
ATOM     35  O   UNL     1       0.726  -0.485   3.493  0.00  0.00    -0.158 OA
ATOM     36  O   UNL     1      -1.619  -0.248   4.231  0.00  0.00    -0.158 OA
BRANCH  34  38
ATOM     37  C   UNL     1      -0.915   1.593   1.686  0.00  0.00    +0.033 C 
ATOM     38  C   UNL     1      -1.102   0.075   1.640  0.00  0.00    +0.142 C 
ATOM     39  C   UNL     1      -0.196  -0.518   0.559  0.00  0.00    +0.033 C 
ENDBRANCH  34  38
ENDBRANCH  32  34
ENDBRANCH  31  32
ENDBRANCH   1  31
TORSDOF 10
