REMARK  Name = ZINC36310137
REMARK  18 active torsions:
REMARK  status: ('A' for Active; 'I' for Inactive)
REMARK    1  A    between atoms: C_1  and  C_2
REMARK    2  A    between atoms: C_5  and  O_9
REMARK    3  A    between atoms: C_6  and  C_8
REMARK    4  A    between atoms: O_9  and  C_10
REMARK    5  A    between atoms: C_10  and  C_11
REMARK    6  A    between atoms: C_21  and  C_23
REMARK    7  A    between atoms: C_23  and  N_24
REMARK    8  A    between atoms: N_24  and  C_25
REMARK    9  A    between atoms: N_24  and  C_30
REMARK   10  A    between atoms: C_25  and  C_26
REMARK   11  A    between atoms: C_26  and  C_27
REMARK   12  A    between atoms: C_27  and  C_28
REMARK   13  A    between atoms: C_27  and  C_29
REMARK   14  A    between atoms: C_30  and  C_31
REMARK   15  A    between atoms: C_31  and  C_33
REMARK   16  A    between atoms: C_31  and  O_36
REMARK   17  A    between atoms: C_33  and  O_34
REMARK   18  A    between atoms: O_34  and  C_35
REMARK                            x       y       z     vdW  Elec       q    Type
REMARK                         _______ _______ _______ _____ _____    ______ ____
ROOT
ATOM      1  C   UNL     1       0.758  -8.490  -2.193  0.00  0.00    +0.144 C 
ATOM      2  C   UNL     1       1.895  -9.177  -1.440  0.00  0.00    -0.014 A 
ATOM      3  C   UNL     1       3.001  -9.741  -2.075  0.00  0.00    +0.013 A 
ATOM      4  C   UNL     1       3.974 -10.330  -1.343  0.00  0.00    +0.046 A 
ATOM      5  S   UNL     1       3.363 -10.115   0.322  0.00  0.00    -0.101 S 
ATOM      6  C   UNL     1       1.862  -9.262  -0.082  0.00  0.00    -0.004 A 
ATOM      7  C   UNL     1       0.803  -8.756   0.843  0.00  0.00    +0.061 C 
ATOM      8  C   UNL     1      -0.079  -7.754   0.082  0.00  0.00    +0.113 C 
ATOM      9  N   UNL     1      -0.356  -8.304  -1.254  0.00  0.00    -0.292 N 
ATOM     10  C   UNL     1      -1.613  -8.633  -1.611  0.00  0.00    +0.200 C 
ATOM     11  O   UNL     1      -1.831  -9.086  -2.715  0.00  0.00    -0.278 OA
ENDROOT
BRANCH   1  12
ATOM     12  C   UNL     1       1.229  -7.130  -2.714  0.00  0.00    +0.256 C 
BRANCH  12  13
ATOM     13  O   UNL     1       1.755  -6.361  -1.631  0.00  0.00    -0.490 OA
BRANCH  13  18
ATOM     14  C   UNL     1       3.679  -1.210  -2.850  0.00  0.00    +0.044 C 
ATOM     15  C   UNL     1       3.164  -2.588  -2.524  0.00  0.00    -0.050 A 
ATOM     16  C   UNL     1       2.643  -3.385  -3.526  0.00  0.00    +0.007 A 
ATOM     17  C   UNL     1       2.170  -4.649  -3.230  0.00  0.00    +0.046 A 
ATOM     18  C   UNL     1       2.220  -5.119  -1.925  0.00  0.00    +0.124 A 
ATOM     19  C   UNL     1       2.744  -4.317  -0.922  0.00  0.00    -0.009 A 
ATOM     20  C   UNL     1       3.220  -3.056  -1.224  0.00  0.00    +0.010 A 
ATOM     21  C   UNL     1       2.800  -4.824   0.496  0.00  0.00    +0.047 C 
ENDBRANCH  13  18
ENDBRANCH  12  13
ENDBRANCH   1  12
BRANCH  10  22
ATOM     22  C   UNL     1      -2.749  -8.438  -0.640  0.00  0.00    +0.019 C 
BRANCH  22  23
ATOM     23  N   UNL     1      -4.023  -8.731  -1.310  0.00  0.00    +0.387 N 
ATOM     24  H   UNL     1      -3.978  -9.646  -1.733  0.00  0.00    -0.081 HD
BRANCH  23  25
ATOM     25  C   UNL     1      -4.273  -7.722  -2.348  0.00  0.00    -0.078 C 
BRANCH  25  26
ATOM     26  C   UNL     1      -4.473  -6.354  -1.693  0.00  0.00    -0.016 C 
BRANCH  26  27
ATOM     27  C   UNL     1      -4.597  -5.282  -2.778  0.00  0.00    -0.019 C 
ATOM     28  C   UNL     1      -5.866  -5.529  -3.595  0.00  0.00    +0.007 C 
ATOM     29  C   UNL     1      -4.671  -3.901  -2.124  0.00  0.00    +0.007 C 
ENDBRANCH  26  27
ENDBRANCH  25  26
ENDBRANCH  23  25
BRANCH  23  30
ATOM     30  C   UNL     1      -5.112  -8.700  -0.325  0.00  0.00    -0.044 C 
BRANCH  30  31
ATOM     31  C   UNL     1      -6.413  -9.156  -0.989  0.00  0.00    +0.124 C 
BRANCH  31  32
ATOM     32  O   UNL     1      -6.811  -8.194  -1.967  0.00  0.00    -0.391 OA
ATOM     33  H   UNL     1      -6.969  -7.310  -1.608  0.00  0.00    +0.210 HD
ENDBRANCH  31  32
BRANCH  31  34
ATOM     34  C   UNL     1      -7.508  -9.289   0.071  0.00  0.00    +0.188 C 
BRANCH  34  35
ATOM     35  O   UNL     1      -8.689  -9.826  -0.528  0.00  0.00    -0.381 OA
ATOM     36  C   UNL     1      -9.779  -9.991   0.381  0.00  0.00    +0.194 C 
ENDBRANCH  34  35
ENDBRANCH  31  34
ENDBRANCH  30  31
ENDBRANCH  23  30
ENDBRANCH  22  23
ENDBRANCH  10  22
TORSDOF 13
