REMARK  Name = ZINC36113058
REMARK  6 active torsions:
REMARK  status: ('A' for Active; 'I' for Inactive)
REMARK    1  A    between atoms: C_5  and  C_7
REMARK    2  A    between atoms: C_7  and  S_8
REMARK    3  A    between atoms: S_8  and  N_11
REMARK    4  A    between atoms: N_11  and  C_12
REMARK    5  A    between atoms: C_12  and  C_13
REMARK    6  A    between atoms: C_13  and  C_14
REMARK                            x       y       z     vdW  Elec       q    Type
REMARK                         _______ _______ _______ _____ _____    ______ ____
ROOT
ATOM      1  N   UNL     1       1.275  -4.450   1.543  0.00  0.00    -0.194 NA
ATOM      2  H   UNL     1       0.524  -4.974   1.863  0.00  0.00    +0.148 HD
ENDROOT
BRANCH   1   3
ATOM      3  S   UNL     1       1.254  -2.800   1.685  0.00  0.00    +0.034 S 
ATOM      4  O   UNL     1       2.491  -2.474   2.304  0.00  0.00    -0.158 OA
ATOM      5  O   UNL     1       0.022  -2.507   2.329  0.00  0.00    -0.158 OA
BRANCH   3   6
ATOM      6  C   UNL     1       1.229  -2.186  -0.022  0.00  0.00    +0.221 C 
BRANCH   6  11
ATOM      7  C   UNL     1      -0.017   1.378   0.010  0.00  0.00    +0.000 A 
ATOM      8  C   UNL     1       1.171   2.086   0.002  0.00  0.00    +0.001 A 
ATOM      9  C   UNL     1       2.377   1.412  -0.013  0.00  0.00    +0.020 A 
ATOM     10  C   UNL     1       2.397   0.029  -0.021  0.00  0.00    +0.046 A 
ATOM     11  C   UNL     1       1.208  -0.679  -0.013  0.00  0.00    -0.007 A 
ATOM     12  C   UNL     1       0.002  -0.004   0.002  0.00  0.00    +0.007 A 
ATOM     13 CL   UNL     1       3.912  -0.818  -0.041  0.00  0.00    -0.083 Cl
ENDBRANCH   6  11
ENDBRANCH   3   6
ENDBRANCH   1   3
BRANCH   1  14
ATOM     14  C   UNL     1       2.428  -5.119   0.935  0.00  0.00    +0.111 C 
BRANCH  14  15
ATOM     15  C   UNL     1       2.378  -6.614   1.255  0.00  0.00    +0.073 C 
BRANCH  15  16
ATOM     16  C   UNL     1       3.564  -7.301   0.629  0.00  0.00    +0.054 A 
ATOM     17  C   UNL     1       4.664  -7.511   1.355  0.00  0.00    +0.072 A 
ATOM     18  S   UNL     1       5.726  -8.329   0.175  0.00  0.00    -0.056 S 
ATOM     19  C   UNL     1       4.599  -8.322  -1.199  0.00  0.00    +0.195 A 
ATOM     20  N   UNL     1       3.498  -7.711  -0.681  0.00  0.00    -0.211 N 
ATOM     21  N   UNL     1       2.573  -7.695  -1.757  0.00  0.00    -0.153 NA
ATOM     22  C   UNL     1       3.146  -8.267  -2.783  0.00  0.00    +0.246 A 
ATOM     23  N   UNL     1       4.378  -8.640  -2.444  0.00  0.00    -0.208 NA
ENDBRANCH  15  16
ENDBRANCH  14  15
ENDBRANCH   1  14
TORSDOF 6
