REMARK  Name = ZINC34919641
REMARK  13 active torsions:
REMARK  status: ('A' for Active; 'I' for Inactive)
REMARK    1  A    between atoms: C_1  and  C_2
REMARK    2  A    between atoms: C_2  and  C_3
REMARK    3  A    between atoms: C_3  and  C_4
REMARK    4  A    between atoms: C_4  and  C_5
REMARK    5  A    between atoms: C_5  and  C_6
REMARK    6  A    between atoms: C_6  and  C_7
REMARK    7  A    between atoms: N_9  and  C_10
REMARK    8  A    between atoms: C_13  and  N_31
REMARK    9  A    between atoms: C_14  and  S_16
REMARK   10  A    between atoms: S_16  and  N_19
REMARK   11  A    between atoms: N_19  and  C_20
REMARK   12  A    between atoms: N_34  and  C_37
REMARK   13  A    between atoms: C_37  and  C_38
REMARK                            x       y       z     vdW  Elec       q    Type
REMARK                         _______ _______ _______ _____ _____    ______ ____
ROOT
ATOM      1  C   UNL     1      -5.715  -7.118   2.204  0.00  0.00    +0.035 A 
ATOM      2  C   UNL     1      -6.732  -6.223   2.508  0.00  0.00    +0.025 A 
ATOM      3  C   UNL     1      -8.005  -6.432   2.017  0.00  0.00    +0.027 A 
ATOM      4  C   UNL     1      -8.269  -7.538   1.219  0.00  0.00    +0.056 A 
ATOM      5  C   UNL     1      -7.251  -8.433   0.915  0.00  0.00    +0.128 A 
ATOM      6  C   UNL     1      -5.977  -8.221   1.402  0.00  0.00    +0.053 A 
ENDROOT
BRANCH   4   7
ATOM      7  N   UNL     1      -9.559  -7.750   0.722  0.00  0.00    -0.332 N 
ATOM      8  C   UNL     1     -10.651  -8.178   1.610  0.00  0.00    +0.086 C 
ATOM      9  C   UNL     1     -11.341  -9.393   0.981  0.00  0.00    -0.060 C 
ATOM     10  N   UNL     1     -11.765  -9.060  -0.385  0.00  0.00    +0.382 N 
ATOM     11  C   UNL     1     -10.590  -8.796  -1.224  0.00  0.00    -0.060 C 
ATOM     12  C   UNL     1      -9.864  -7.546  -0.703  0.00  0.00    +0.086 C 
ATOM     13  H   UNL     1     -12.353  -8.241  -0.363  0.00  0.00    -0.082 HD
BRANCH  10  14
ATOM     14  C   UNL     1     -12.523 -10.186  -0.948  0.00  0.00    -0.082 C 
ATOM     15  C   UNL     1     -13.116  -9.778  -2.298  0.00  0.00    -0.017 C 
ENDBRANCH  10  14
ENDBRANCH   4   7
BRANCH   1  18
ATOM     16  C   UNL     1      -3.349  -7.219   1.949  0.00  0.00    +0.217 C 
ATOM     17  O   UNL     1      -3.499  -7.780   0.884  0.00  0.00    -0.275 OA
ATOM     18  N   UNL     1      -4.422  -6.906   2.702  0.00  0.00    -0.285 N 
ATOM     19  H   UNL     1      -4.300  -6.534   3.590  0.00  0.00    +0.155 HD
BRANCH  16  20
ATOM     20  C   UNL     1      -1.964  -6.872   2.429  0.00  0.00    +0.096 C 
BRANCH  20  21
ATOM     21  C   UNL     1      -0.935  -7.333   1.395  0.00  0.00    +0.009 C 
BRANCH  21  22
ATOM     22  C   UNL     1       0.472  -6.981   1.883  0.00  0.00    +0.000 C 
BRANCH  22  23
ATOM     23  C   UNL     1       1.501  -7.442   0.849  0.00  0.00    -0.000 C 
BRANCH  23  25
ATOM     24  C   UNL     1       3.936  -7.551   0.303  0.00  0.00    +0.004 C 
ATOM     25  C   UNL     1       2.907  -7.090   1.337  0.00  0.00    -0.003 C 
ENDBRANCH  23  25
ENDBRANCH  22  23
ENDBRANCH  21  22
ENDBRANCH  20  21
ENDBRANCH  16  20
ENDBRANCH   1  18
BRANCH   5  26
ATOM     26  S   UNL     1      -7.585  -9.836  -0.098  0.00  0.00    +0.061 S 
ATOM     27  O   UNL     1      -8.722 -10.479   0.462  0.00  0.00    -0.153 OA
ATOM     28  O   UNL     1      -7.553  -9.382  -1.444  0.00  0.00    -0.153 OA
BRANCH  26  29
ATOM     29  N   UNL     1      -6.314 -10.882   0.080  0.00  0.00    -0.183 NA
ATOM     30  H   UNL     1      -5.750 -11.094  -0.680  0.00  0.00    +0.149 HD
BRANCH  29  31
ATOM     31  C   UNL     1      -6.041 -11.487   1.386  0.00  0.00    +0.107 C 
ATOM     32  C   UNL     1      -4.565 -11.294   1.732  0.00  0.00    +0.025 C 
ATOM     33  C   UNL     1      -4.251 -12.116   2.987  0.00  0.00    +0.007 C 
ATOM     34  C   UNL     1      -4.303 -13.597   2.618  0.00  0.00    +0.035 C 
ATOM     35  C   UNL     1      -5.590 -13.921   1.906  0.00  0.00    -0.043 A 
ATOM     36  C   UNL     1      -6.385 -12.953   1.337  0.00  0.00    -0.026 A 
ATOM     37  C   UNL     1      -7.557 -13.320   0.688  0.00  0.00    +0.005 A 
ATOM     38  C   UNL     1      -7.930 -14.646   0.612  0.00  0.00    +0.000 A 
ATOM     39  C   UNL     1      -7.133 -15.617   1.187  0.00  0.00    +0.000 A 
ATOM     40  C   UNL     1      -5.969 -15.255   1.831  0.00  0.00    +0.004 A 
ENDBRANCH  29  31
ENDBRANCH  26  29
ENDBRANCH   5  26
TORSDOF 11
