REMARK  Name = ZINC01782905
REMARK  5 active torsions:
REMARK  status: ('A' for Active; 'I' for Inactive)
REMARK    1  A    between atoms: C_4  and  C_7
REMARK    2  A    between atoms: C_9  and  C_22
REMARK    3  A    between atoms: C_10  and  C_12
REMARK    4  A    between atoms: N_14  and  C_15
REMARK    5  A    between atoms: C_25  and  N_28
REMARK                            x       y       z     vdW  Elec       q    Type
REMARK                         _______ _______ _______ _____ _____    ______ ____
ROOT
ATOM      1  C   UNL     1      -0.208   0.549   0.108  0.00  0.00    +0.110 A 
ATOM      2  N   UNL     1       0.943  -0.098   0.021  0.00  0.00    -0.238 NA
ATOM      3  C   UNL     1       2.076   0.537  -0.175  0.00  0.00    +0.091 A 
ATOM      4  C   UNL     1       2.020   1.932  -0.289  0.00  0.00    +0.102 A 
ATOM      5  S   UNL     1       0.265   2.207  -0.094  0.00  0.00    -0.062 S 
ENDROOT
BRANCH   1   9
ATOM      6  C   UNL     1      -4.098  -1.038   0.731  0.00  0.00    +0.000 A 
ATOM      7  C   UNL     1      -3.926   0.327   0.591  0.00  0.00    +0.001 A 
ATOM      8  C   UNL     1      -2.665   0.849   0.389  0.00  0.00    +0.010 A 
ATOM      9  C   UNL     1      -1.562  -0.004   0.325  0.00  0.00    +0.007 A 
ATOM     10  C   UNL     1      -1.744  -1.381   0.461  0.00  0.00    +0.010 A 
ATOM     11  C   UNL     1      -3.009  -1.889   0.668  0.00  0.00    +0.001 A 
ENDBRANCH   1   9
BRANCH   3  12
ATOM     12  C   UNL     1       3.361  -0.193  -0.273  0.00  0.00    +0.002 A 
ATOM     13  C   UNL     1       3.453  -1.348  -1.049  0.00  0.00    +0.012 A 
ATOM     14  C   UNL     1       4.655  -2.021  -1.140  0.00  0.00    +0.033 A 
ATOM     15  C   UNL     1       5.764  -1.558  -0.455  0.00  0.00    +0.126 A 
ATOM     16  C   UNL     1       5.677  -0.416   0.321  0.00  0.00    +0.033 A 
ATOM     17  C   UNL     1       4.483   0.268   0.416  0.00  0.00    +0.012 A 
BRANCH  15  18
ATOM     18  N   UNL     1       7.048  -2.288  -0.553  0.00  0.00    +0.056 N 
ATOM     19  O   UNL     1       8.026  -1.882   0.050  0.00  0.00    -0.126 OA
ATOM     20  O   UNL     1       7.127  -3.293  -1.236  0.00  0.00    -0.126 OA
ENDBRANCH  15  18
ENDBRANCH   3  12
BRANCH   4  21
ATOM     21  C   UNL     1       3.098   2.896  -0.507  0.00  0.00    +0.257 C 
ATOM     22  O   UNL     1       4.230   2.504  -0.728  0.00  0.00    -0.269 OA
ATOM     23  N   UNL     1       2.840   4.218  -0.464  0.00  0.00    -0.280 N 
ATOM     24  H   UNL     1       1.957   4.531  -0.210  0.00  0.00    +0.155 HD
BRANCH  23  25
ATOM     25  C   UNL     1       3.843   5.138  -0.785  0.00  0.00    +0.052 A 
ATOM     26  C   UNL     1       4.944   4.736  -1.530  0.00  0.00    +0.025 A 
ATOM     27  C   UNL     1       5.931   5.648  -1.849  0.00  0.00    +0.002 A 
ATOM     28  C   UNL     1       5.829   6.958  -1.419  0.00  0.00    +0.002 A 
ATOM     29  C   UNL     1       4.738   7.362  -0.672  0.00  0.00    +0.022 A 
ATOM     30  C   UNL     1       3.744   6.456  -0.354  0.00  0.00    +0.062 A 
ATOM     31 CL   UNL     1       2.374   6.962   0.584  0.00  0.00    -0.082 Cl
ENDBRANCH  23  25
ENDBRANCH   4  21
TORSDOF 5
