REMARK  Name = ZINC16245296
REMARK  5 active torsions:
REMARK  status: ('A' for Active; 'I' for Inactive)
REMARK    1  A    between atoms: C_4  and  C_7
REMARK    2  A    between atoms: C_7  and  N_8
REMARK    3  A    between atoms: C_9  and  C_11
REMARK    4  A    between atoms: C_12  and  N_24
REMARK    5  A    between atoms: C_13  and  C_18
REMARK                            x       y       z     vdW  Elec       q    Type
REMARK                         _______ _______ _______ _____ _____    ______ ____
ROOT
ATOM      1  C   UNL     1       5.750  -1.845   2.941  0.00  0.00    +0.092 C 
ATOM      2  C   UNL     1       6.878  -2.469   3.333  0.00  0.00    +0.033 C 
ATOM      3  C   UNL     1       7.080  -2.582   4.807  0.00  0.00    +0.108 C 
ATOM      4  C   UNL     1       5.957  -1.961   5.605  0.00  0.00    +0.047 C 
ATOM      5  S   UNL     1       5.794  -1.872   7.307  0.00  0.00    -0.048 S 
ATOM      6  S   UNL     1       4.912  -1.374   4.433  0.00  0.00    -0.078 S 
ENDROOT
BRANCH   3   7
ATOM      7  C   UNL     1       8.370  -1.895   5.174  0.00  0.00    -0.033 A 
ATOM      8  C   UNL     1       8.534  -0.548   4.911  0.00  0.00    +0.004 A 
ATOM      9  C   UNL     1       9.718   0.082   5.248  0.00  0.00    +0.000 A 
ATOM     10  C   UNL     1      10.736  -0.634   5.848  0.00  0.00    +0.000 A 
ATOM     11  C   UNL     1      10.571  -1.981   6.112  0.00  0.00    +0.000 A 
ATOM     12  C   UNL     1       9.386  -2.610   5.779  0.00  0.00    +0.004 A 
ENDBRANCH   3   7
BRANCH   1  14
ATOM     13  N   UNL     1       4.152  -0.952   1.338  0.00  0.00    -0.307 N 
ATOM     14  C   UNL     1       5.311  -1.601   1.569  0.00  0.00    +0.252 C 
ATOM     15  O   UNL     1       5.992  -1.982   0.634  0.00  0.00    -0.270 OA
ATOM     16  H   UNL     1       3.610  -0.648   2.082  0.00  0.00    +0.149 HD
BRANCH  13  17
ATOM     17  C   UNL     1       3.711  -0.707  -0.038  0.00  0.00    +0.139 C 
BRANCH  17  21
ATOM     18  C   UNL     1      -0.017   1.378   0.010  0.00  0.00    +0.000 A 
ATOM     19  C   UNL     1       1.171   2.086   0.002  0.00  0.00    +0.000 A 
ATOM     20  C   UNL     1       2.377   1.411  -0.013  0.00  0.00    +0.005 A 
ATOM     21  C   UNL     1       2.396   0.029  -0.020  0.00  0.00    -0.030 A 
ATOM     22  C   UNL     1       1.208  -0.679  -0.012  0.00  0.00    +0.005 A 
ATOM     23  C   UNL     1       0.002  -0.004   0.002  0.00  0.00    +0.000 A 
ENDBRANCH  17  21
ENDBRANCH  13  17
ENDBRANCH   1  14
BRANCH   2  24
ATOM     24  N   UNL     1       7.784  -2.971   2.433  0.00  0.00    -0.359 N 
ATOM     25  H   UNL     1       7.623  -2.881   1.481  0.00  0.00    +0.142 HD
ATOM     26  H   UNL     1       8.586  -3.415   2.749  0.00  0.00    +0.142 HD
ENDBRANCH   2  24
TORSDOF 5
