REMARK  Name = ZINC21660443
REMARK  9 active torsions:
REMARK  status: ('A' for Active; 'I' for Inactive)
REMARK    1  A    between atoms: C_1  and  C_2
REMARK    2  A    between atoms: C_10  and  C_12
REMARK    3  A    between atoms: C_16  and  O_20
REMARK    4  A    between atoms: C_17  and  O_18
REMARK    5  A    between atoms: O_18  and  C_19
REMARK    6  A    between atoms: O_20  and  C_21
REMARK    7  A    between atoms: C_25  and  C_28
REMARK    8  A    between atoms: C_31  and  O_34
REMARK    9  A    between atoms: O_34  and  C_35
REMARK                            x       y       z     vdW  Elec       q    Type
REMARK                         _______ _______ _______ _____ _____    ______ ____
ROOT
ATOM      1  C   UNL     1       4.299  -2.379   2.268  0.00  0.00    +0.069 C 
ATOM      2  C   UNL     1       5.168  -1.250   1.777  0.00  0.00    +0.087 A 
ATOM      3  C   UNL     1       5.070  -0.589   0.555  0.00  0.00    +0.049 A 
ATOM      4  C   UNL     1       6.076   0.343   0.587  0.00  0.00    +0.226 A 
ATOM      5  O   UNL     1       6.681   0.198   1.761  0.00  0.00    -0.339 OA
ATOM      6  N   UNL     1       6.168  -0.692   2.413  0.00  0.00    -0.081 NA
ATOM      7  N   UNL     1       6.292   1.196  -0.475  0.00  0.00    -0.286 N 
ATOM      8  C   UNL     1       5.684   0.919  -1.677  0.00  0.00    +0.019 C 
ATOM      9  C   UNL     1       4.687   0.017  -1.795  0.00  0.00    +0.024 C 
ATOM     10  C   UNL     1       4.144  -0.751  -0.607  0.00  0.00    +0.094 C 
ATOM     11  C   UNL     1       4.101  -0.254  -3.045  0.00  0.00    +0.162 C 
ATOM     12  O   UNL     1       3.196  -1.063  -3.114  0.00  0.00    -0.292 OA
ATOM     13  C   UNL     1       4.568   0.433  -4.298  0.00  0.00    +0.088 C 
ATOM     14  C   UNL     1       6.043   0.814  -4.135  0.00  0.00    +0.032 C 
ATOM     15  C   UNL     1       6.180   1.683  -2.884  0.00  0.00    +0.059 C 
ATOM     16  H   UNL     1       6.941   2.075  -0.351  0.00  0.00    +0.155 HD
ENDROOT
BRANCH  10  17
ATOM     17  C   UNL     1       2.783  -0.216  -0.243  0.00  0.00    +0.010 A 
ATOM     18  C   UNL     1       1.742  -1.090   0.012  0.00  0.00    +0.008 A 
ATOM     19  C   UNL     1       0.492  -0.603   0.346  0.00  0.00    +0.004 A 
ATOM     20  C   UNL     1       0.278   0.761   0.427  0.00  0.00    +0.049 A 
ATOM     21  C   UNL     1       1.316   1.642   0.173  0.00  0.00    +0.162 A 
ATOM     22  C   UNL     1       2.574   1.151  -0.163  0.00  0.00    +0.166 A 
BRANCH  22  23
ATOM     23  O   UNL     1       3.597   2.012  -0.413  0.00  0.00    -0.491 OA
ATOM     24  C   UNL     1       4.271   2.564   0.719  0.00  0.00    +0.277 C 
ENDBRANCH  22  23
BRANCH  21  25
ATOM     25  O   UNL     1       1.106   2.983   0.253  0.00  0.00    -0.491 OA
ATOM     26  C   UNL     1      -0.210   3.414   0.604  0.00  0.00    +0.277 C 
ENDBRANCH  21  25
ENDBRANCH  10  17
BRANCH  14  27
ATOM     27  C   UNL     1       6.505   1.587  -5.343  0.00  0.00    -0.043 A 
ATOM     28  C   UNL     1       5.870   2.765  -5.693  0.00  0.00    +0.007 A 
ATOM     29  C   UNL     1       6.295   3.478  -6.797  0.00  0.00    +0.046 A 
ATOM     30  C   UNL     1       7.352   3.007  -7.561  0.00  0.00    +0.120 A 
ATOM     31  C   UNL     1       7.983   1.822  -7.212  0.00  0.00    +0.046 A 
ATOM     32  C   UNL     1       7.558   1.115  -6.104  0.00  0.00    +0.007 A 
BRANCH  30  33
ATOM     33  O   UNL     1       7.768   3.704  -8.651  0.00  0.00    -0.495 OA
ATOM     34  C   UNL     1       7.072   4.915  -8.951  0.00  0.00    +0.277 C 
ENDBRANCH  30  33
ENDBRANCH  14  27
TORSDOF 5
