REMARK  Name = ZINC58667789
REMARK  11 active torsions:
REMARK  status: ('A' for Active; 'I' for Inactive)
REMARK    1  A    between atoms: C_1  and  C_2
REMARK    2  A    between atoms: C_3  and  C_26
REMARK    3  A    between atoms: C_7  and  N_25
REMARK    4  A    between atoms: C_9  and  S_11
REMARK    5  A    between atoms: S_11  and  C_12
REMARK    6  A    between atoms: C_12  and  C_14
REMARK    7  A    between atoms: C_12  and  C_15
REMARK    8  A    between atoms: N_20  and  C_21
REMARK    9  A    between atoms: C_21  and  C_22
REMARK   10  A    between atoms: C_21  and  C_23
REMARK   11  A    between atoms: C_21  and  C_24
REMARK                            x       y       z     vdW  Elec       q    Type
REMARK                         _______ _______ _______ _____ _____    ______ ____
ROOT
ATOM      1  S   UNL     1       1.725  -3.460   4.328  0.00  0.00    -0.073 S 
ENDROOT
BRANCH   1  10
ATOM      2  C   UNL     1      -1.287   1.427   0.444  0.00  0.00    +0.045 C 
ATOM      3  C   UNL     1      -1.146  -0.073   0.394  0.00  0.00    -0.028 A 
ATOM      4  C   UNL     1      -1.693  -0.773  -0.610  0.00  0.00    -0.008 A 
ATOM      5  S   UNL     1      -1.260  -2.459  -0.227  0.00  0.00    -0.073 S 
ATOM      6  C   UNL     1      -0.356  -2.179   1.272  0.00  0.00    +0.115 A 
ATOM      7  C   UNL     1      -0.410  -0.777   1.431  0.00  0.00    +0.050 A 
ATOM      8  C   UNL     1       0.255  -0.264   2.579  0.00  0.00    +0.129 A 
ATOM      9  N   UNL     1       0.869  -1.101   3.400  0.00  0.00    -0.207 NA
ATOM     10  C   UNL     1       0.886  -2.411   3.188  0.00  0.00    +0.192 A 
ATOM     11  N   UNL     1       0.274  -2.947   2.139  0.00  0.00    -0.214 NA
ATOM     12  C   UNL     1      -2.486  -0.257  -1.783  0.00  0.00    +0.052 C 
BRANCH   8  13
ATOM     13  N   UNL     1       0.261   1.095   2.835  0.00  0.00    -0.343 N 
ATOM     14  H   UNL     1       0.109   1.725   2.113  0.00  0.00    +0.144 HD
ATOM     15  H   UNL     1       0.416   1.418   3.736  0.00  0.00    +0.144 HD
ENDBRANCH   8  13
ENDBRANCH   1  10
BRANCH   1  16
ATOM     16  C   UNL     1       2.381  -2.318   5.575  0.00  0.00    +0.137 C 
ATOM     17  C   UNL     1       3.421  -1.400   4.929  0.00  0.00    +0.029 C 
BRANCH  16  18
ATOM     18  C   UNL     1       3.026  -3.104   6.687  0.00  0.00    +0.233 C 
ATOM     19  O   UNL     1       3.452  -4.219   6.473  0.00  0.00    -0.274 OA
ATOM     20  N   UNL     1       3.129  -2.568   7.919  0.00  0.00    -0.239 N 
ATOM     21  C   UNL     1       3.705  -3.272   8.914  0.00  0.00    +0.306 C 
ATOM     22  O   UNL     1       4.133  -4.389   8.699  0.00  0.00    -0.252 OA
ATOM     23  N   UNL     1       3.808  -2.736  10.146  0.00  0.00    -0.294 N 
ATOM     24  H   UNL     1       2.788  -1.677   8.090  0.00  0.00    +0.159 HD
ATOM     25  H   UNL     1       3.467  -1.844  10.317  0.00  0.00    +0.151 HD
BRANCH  23  26
ATOM     26  C   UNL     1       4.435  -3.500  11.227  0.00  0.00    +0.028 C 
ATOM     27  C   UNL     1       5.880  -3.831  10.847  0.00  0.00    +0.031 C 
ATOM     28  C   UNL     1       4.424  -2.669  12.512  0.00  0.00    +0.031 C 
ATOM     29  C   UNL     1       3.656  -4.798  11.452  0.00  0.00    +0.031 C 
ENDBRANCH  23  26
ENDBRANCH  16  18
ENDBRANCH   1  16
TORSDOF 5
