REMARK  Name = ZINC30977692
REMARK  12 active torsions:
REMARK  status: ('A' for Active; 'I' for Inactive)
REMARK    1  A    between atoms: C_1  and  C_2
REMARK    2  A    between atoms: N_6  and  C_7
REMARK    3  A    between atoms: C_12  and  C_13
REMARK    4  A    between atoms: C_13  and  N_14
REMARK    5  A    between atoms: C_15  and  C_17
REMARK    6  A    between atoms: N_20  and  C_23
REMARK    7  A    between atoms: C_23  and  C_24
REMARK    8  A    between atoms: C_26  and  C_29
REMARK    9  A    between atoms: C_32  and  C_35
REMARK   10  A    between atoms: C_35  and  C_36
REMARK   11  A    between atoms: C_35  and  C_37
REMARK   12  A    between atoms: C_35  and  C_38
REMARK                            x       y       z     vdW  Elec       q    Type
REMARK                         _______ _______ _______ _____ _____    ______ ____
ROOT
ATOM      1  C   UNL     1       1.420   2.051  -0.001  0.00  0.00    +0.071 C 
ATOM      2  C   UNL     1      -0.019   1.526   0.010  0.00  0.00    -0.006 C 
ATOM      3  C   UNL     1       0.002  -0.004   0.002  0.00  0.00    -0.077 C 
ATOM      4  N   UNL     1       0.706  -0.479  -1.196  0.00  0.00    +0.386 N 
ATOM      5  C   UNL     1       2.103  -0.026  -1.205  0.00  0.00    -0.077 C 
ATOM      6  C   UNL     1       2.145   1.503  -1.232  0.00  0.00    -0.006 C 
ATOM      7  H   UNL     1       0.207  -0.042  -2.073  0.00  0.00    -0.081 HD
ENDROOT
BRANCH   1   9
ATOM      8  N   UNL     1       2.566   4.242  -0.071  0.00  0.00    -0.311 N 
ATOM      9  C   UNL     1       1.405   3.557  -0.053  0.00  0.00    +0.216 C 
ATOM     10  O   UNL     1       0.349   4.153  -0.079  0.00  0.00    -0.276 OA
ATOM     11  H   UNL     1       3.524   3.701  -0.047  0.00  0.00    +0.149 HD
BRANCH   8  12
ATOM     12  C   UNL     1       2.553   5.706  -0.121  0.00  0.00    +0.141 C 
BRANCH  12  18
ATOM     13  C   UNL     1       4.701   6.217  -1.311  0.00  0.00    +0.052 A 
ATOM     14  C   UNL     1       6.003   6.698  -1.319  0.00  0.00    +0.026 A 
ATOM     15  C   UNL     1       6.570   7.170  -0.151  0.00  0.00    +0.002 A 
ATOM     16  C   UNL     1       5.840   7.168   1.024  0.00  0.00    +0.000 A 
ATOM     17  C   UNL     1       4.541   6.694   1.033  0.00  0.00    +0.007 A 
ATOM     18  C   UNL     1       3.969   6.222  -0.132  0.00  0.00    -0.006 A 
BRANCH  13  24
ATOM     19  C   UNL     1       2.306   7.504  -2.745  0.00  0.00    +0.086 C 
ATOM     20  C   UNL     1       3.068   6.271  -3.158  0.00  0.00    +0.111 A 
ATOM     21  N   UNL     1       2.824   5.542  -4.212  0.00  0.00    -0.241 NA
ATOM     22  C   UNL     1       3.699   4.526  -4.263  0.00  0.00    +0.131 A 
ATOM     23  C   UNL     1       4.523   4.629  -3.203  0.00  0.00    +0.112 A 
ATOM     24  N   UNL     1       4.124   5.732  -2.494  0.00  0.00    -0.303 N 
ENDBRANCH  13  24
ENDBRANCH  12  18
ENDBRANCH   8  12
ENDBRANCH   1   9
BRANCH   4  25
ATOM     25  C   UNL     1       0.626  -1.941  -1.309  0.00  0.00    +0.022 C 
BRANCH  25  26
ATOM     26  C   UNL     1       1.139  -2.369  -2.660  0.00  0.00    +0.211 A 
ATOM     27  N   UNL     1       2.376  -2.675  -2.961  0.00  0.00    -0.193 NA
ATOM     28  C   UNL     1       2.361  -2.996  -4.275  0.00  0.00    +0.202 A 
ATOM     29  N   UNL     1       1.128  -2.869  -4.689  0.00  0.00    -0.056 NA
ATOM     30  O   UNL     1       0.415  -2.515  -3.774  0.00  0.00    -0.340 OA
BRANCH  28  31
ATOM     31  C   UNL     1       3.527  -3.415  -5.092  0.00  0.00    +0.022 A 
ATOM     32  C   UNL     1       4.792  -3.502  -4.514  0.00  0.00    +0.012 A 
ATOM     33  C   UNL     1       5.872  -3.897  -5.278  0.00  0.00    +0.005 A 
ATOM     34  C   UNL     1       5.702  -4.196  -6.618  0.00  0.00    -0.042 A 
ATOM     35  C   UNL     1       4.449  -4.106  -7.198  0.00  0.00    +0.005 A 
ATOM     36  C   UNL     1       3.362  -3.717  -6.442  0.00  0.00    +0.012 A 
BRANCH  34  37
ATOM     37  C   UNL     1       6.885  -4.620  -7.448  0.00  0.00    -0.013 C 
ATOM     38  C   UNL     1       7.080  -3.633  -8.601  0.00  0.00    +0.015 C 
ATOM     39  C   UNL     1       8.141  -4.638  -6.574  0.00  0.00    +0.015 C 
ATOM     40  C   UNL     1       6.637  -6.020  -8.012  0.00  0.00    +0.015 C 
ENDBRANCH  34  37
ENDBRANCH  28  31
ENDBRANCH  25  26
ENDBRANCH   4  25
TORSDOF 8
