REMARK  Name = ZINC43218100
REMARK  11 active torsions:
REMARK  status: ('A' for Active; 'I' for Inactive)
REMARK    1  A    between atoms: C_1  and  S_2
REMARK    2  A    between atoms: S_2  and  C_3
REMARK    3  A    between atoms: C_3  and  C_4
REMARK    4  A    between atoms: C_4  and  C_5
REMARK    5  A    between atoms: C_5  and  C_7
REMARK    6  A    between atoms: C_5  and  N_28
REMARK    7  A    between atoms: C_9  and  C_12
REMARK    8  A    between atoms: N_14  and  C_15
REMARK    9  A    between atoms: C_15  and  C_16
REMARK   10  A    between atoms: C_16  and  N_17
REMARK   11  A    between atoms: N_17  and  C_18
REMARK                            x       y       z     vdW  Elec       q    Type
REMARK                         _______ _______ _______ _____ _____    ______ ____
ROOT
ATOM      1  C   UNL     1      -4.190  -6.926  -1.861  0.00  0.00    +0.266 C 
ATOM      2  O   UNL     1      -4.146  -8.086  -1.499  0.00  0.00    -0.268 OA
ATOM      3  N   UNL     1      -4.558  -6.628  -3.123  0.00  0.00    -0.309 N 
ATOM      4  H   UNL     1      -4.593  -5.702  -3.412  0.00  0.00    +0.149 HD
ENDROOT
BRANCH   1   7
ATOM      5  C   UNL     1      -3.482  -3.878  -0.109  0.00  0.00    +0.182 A 
ATOM      6  N   UNL     1      -3.846  -4.511  -1.184  0.00  0.00    -0.210 NA
ATOM      7  C   UNL     1      -3.841  -5.846  -0.920  0.00  0.00    +0.163 A 
ATOM      8  C   UNL     1      -3.455  -5.997   0.376  0.00  0.00    +0.230 A 
ATOM      9  O   UNL     1      -3.231  -4.766   0.863  0.00  0.00    -0.449 OA
BRANCH   5  10
ATOM     10  C   UNL     1      -3.356  -2.382   0.021  0.00  0.00    +0.014 C 
BRANCH  10  11
ATOM     11  N   UNL     1      -3.967  -1.948   1.285  0.00  0.00    +0.386 N 
ATOM     12  H   UNL     1      -3.883  -0.946   1.372  0.00  0.00    -0.089 HD
ATOM     13  H   UNL     1      -4.943  -2.205   1.293  0.00  0.00    -0.089 HD
ATOM     14  H   UNL     1      -3.495  -2.394   2.057  0.00  0.00    -0.089 HD
ENDBRANCH  10  11
BRANCH  10  15
ATOM     15  C   UNL     1      -1.877  -1.992   0.009  0.00  0.00    +0.004 C 
BRANCH  15  16
ATOM     16  C   UNL     1      -1.752  -0.467   0.016  0.00  0.00    +0.068 C 
BRANCH  16  18
ATOM     17  C   UNL     1      -0.022   1.810   0.012  0.00  0.00    +0.084 C 
ATOM     18  S   UNL     1       0.002  -0.004   0.002  0.00  0.00    -0.164 S 
ENDBRANCH  16  18
ENDBRANCH  15  16
ENDBRANCH  10  15
ENDBRANCH   5  10
ENDBRANCH   1   7
BRANCH   3  19
ATOM     19  C   UNL     1      -4.904  -7.701  -4.058  0.00  0.00    +0.123 C 
BRANCH  19  20
ATOM     20  C   UNL     1      -5.282  -7.096  -5.412  0.00  0.00    +0.120 C 
BRANCH  20  21
ATOM     21  N   UNL     1      -5.629  -8.169  -6.347  0.00  0.00    -0.342 N 
ATOM     22  H   UNL     1      -5.594  -9.094  -6.058  0.00  0.00    +0.146 HD
BRANCH  21  23
ATOM     23  C   UNL     1      -6.009  -7.860  -7.651  0.00  0.00    +0.035 A 
ATOM     24  C   UNL     1      -6.056  -6.547  -8.070  0.00  0.00    +0.023 A 
ATOM     25  C   UNL     1      -6.434  -6.229  -9.371  0.00  0.00    +0.002 A 
ATOM     26  C   UNL     1      -6.768  -7.201 -10.264  0.00  0.00    +0.008 A 
ATOM     27  C   UNL     1      -6.733  -8.551  -9.877  0.00  0.00    -0.016 A 
ATOM     28  C   UNL     1      -6.344  -8.889  -8.557  0.00  0.00    +0.003 A 
ATOM     29  C   UNL     1      -6.305 -10.239  -8.174  0.00  0.00    +0.010 A 
ATOM     30  C   UNL     1      -6.636 -11.205  -9.075  0.00  0.00    +0.001 A 
ATOM     31  C   UNL     1      -7.012 -10.874 -10.375  0.00  0.00    +0.001 A 
ATOM     32  C   UNL     1      -7.073  -9.576 -10.778  0.00  0.00    +0.008 A 
ENDBRANCH  21  23
ENDBRANCH  20  21
ENDBRANCH  19  20
ENDBRANCH   3  19
TORSDOF 10
