REMARK  Name = ZINC04905412
REMARK  9 active torsions:
REMARK  status: ('A' for Active; 'I' for Inactive)
REMARK    1  A    between atoms: C_1  and  C_2
REMARK    2  A    between atoms: C_8  and  C_13
REMARK    3  A    between atoms: C_9  and  C_12
REMARK    4  A    between atoms: C_13  and  C_14
REMARK    5  A    between atoms: C_14  and  N_15
REMARK    6  A    between atoms: N_15  and  C_16
REMARK    7  A    between atoms: C_16  and  N_18
REMARK    8  A    between atoms: N_18  and  C_19
REMARK    9  A    between atoms: C_22  and  C_25
REMARK                            x       y       z     vdW  Elec       q    Type
REMARK                         _______ _______ _______ _____ _____    ______ ____
ROOT
ATOM      1  N   UNL     1       2.424  -4.077  -0.245  0.00  0.00    -0.326 N 
ATOM      2  H   UNL     1       1.590  -4.573  -0.240  0.00  0.00    +0.148 HD
ENDROOT
BRANCH   1   3
ATOM      3  C   UNL     1       2.410  -2.734  -0.137  0.00  0.00    +0.135 C 
ATOM      4  S   UNL     1       3.881  -1.859  -0.147  0.00  0.00    -0.019 S 
BRANCH   3   5
ATOM      5  N   UNL     1       1.237  -2.079  -0.021  0.00  0.00    -0.297 N 
ATOM      6  H   UNL     1       0.410  -2.578   0.066  0.00  0.00    +0.154 HD
BRANCH   5   7
ATOM      7  C   UNL     1       1.214  -0.680  -0.025  0.00  0.00    +0.033 A 
ATOM      8  C   UNL     1       2.011   0.026  -0.916  0.00  0.00    +0.024 A 
ATOM      9  C   UNL     1       1.985   1.407  -0.917  0.00  0.00    +0.014 A 
ATOM     10  C   UNL     1       1.166   2.086  -0.033  0.00  0.00    +0.055 A 
ATOM     11  C   UNL     1       0.372   1.385   0.855  0.00  0.00    +0.014 A 
ATOM     12  C   UNL     1       0.393   0.004   0.862  0.00  0.00    +0.024 A 
BRANCH  10  13
ATOM     13  C   UNL     1       1.141   3.593  -0.038  0.00  0.00    +0.417 C 
ATOM     14  F   UNL     1       0.157   4.040  -0.927  0.00  0.00    -0.166 F 
ATOM     15  F   UNL     1       0.852   4.058   1.249  0.00  0.00    -0.166 F 
ATOM     16  F   UNL     1       2.389   4.079  -0.440  0.00  0.00    -0.166 F 
ENDBRANCH  10  13
ENDBRANCH   5   7
ENDBRANCH   3   5
ENDBRANCH   1   3
BRANCH   1  17
ATOM     17  C   UNL     1       3.698  -4.789  -0.372  0.00  0.00    +0.108 C 
BRANCH  17  18
ATOM     18  C   UNL     1       3.434  -6.292  -0.478  0.00  0.00    +0.056 C 
BRANCH  18  26
ATOM     19  C   UNL     1       6.274  -8.121   4.149  0.00  0.00    +0.044 C 
ATOM     20  C   UNL     1       6.410  -8.123   2.648  0.00  0.00    -0.050 A 
ATOM     21  C   UNL     1       7.516  -8.717   2.057  0.00  0.00    +0.005 A 
ATOM     22  C   UNL     1       7.660  -8.730   0.687  0.00  0.00    +0.026 A 
ATOM     23  C   UNL     1       6.687  -8.142  -0.115  0.00  0.00    +0.047 A 
ATOM     24  C   UNL     1       5.567  -7.541   0.488  0.00  0.00    +0.003 A 
ATOM     25  C   UNL     1       5.442  -7.540   1.879  0.00  0.00    +0.013 A 
ATOM     26  C   UNL     1       4.745  -7.024  -0.608  0.00  0.00    -0.018 A 
ATOM     27  C   UNL     1       5.378  -7.331  -1.752  0.00  0.00    +0.017 A 
ATOM     28  N   UNL     1       6.543  -7.994  -1.476  0.00  0.00    -0.358 N 
ATOM     29  H   UNL     1       7.172  -8.315  -2.141  0.00  0.00    +0.166 HD
ATOM     30  C   UNL     1       4.882  -6.992  -3.134  0.00  0.00    +0.063 C 
ENDBRANCH  18  26
ENDBRANCH  17  18
ENDBRANCH   1  17
TORSDOF 7
