REMARK  Name = ZINC61886342
REMARK  4 active torsions:
REMARK  status: ('A' for Active; 'I' for Inactive)
REMARK    1  A    between atoms: C_5  and  C_6
REMARK    2  A    between atoms: N_8  and  C_9
REMARK    3  A    between atoms: C_14  and  C_16
REMARK    4  A    between atoms: N_17  and  O_18
REMARK                            x       y       z     vdW  Elec       q    Type
REMARK                         _______ _______ _______ _____ _____    ______ ____
ROOT
ATOM      1  C   UNL     1      -1.975  -3.286   0.135  0.00  0.00    +0.083 C 
ATOM      2  C   UNL     1      -2.339  -3.810   1.540  0.00  0.00    +0.023 C 
ATOM      3  C   UNL     1      -2.771  -5.277   1.298  0.00  0.00    +0.003 C 
ATOM      4  C   UNL     1      -1.783  -5.748   0.202  0.00  0.00    +0.013 C 
ATOM      5  C   UNL     1      -1.622  -4.518  -0.716  0.00  0.00    +0.076 C 
ENDROOT
BRANCH   5   6
ATOM      6  C   UNL     1      -0.199  -4.419  -1.202  0.00  0.00    +0.136 C 
ATOM      7  N   UNL     1       0.050  -3.954  -2.381  0.00  0.00    -0.076 NA
ATOM      8  N   UNL     1       0.836  -4.824  -0.389  0.00  0.00    -0.344 N 
ATOM      9  H   UNL     1       0.649  -5.173   0.496  0.00  0.00    +0.144 HD
ATOM     10  H   UNL     1       1.752  -4.760  -0.702  0.00  0.00    +0.144 HD
BRANCH   7  11
ATOM     11  O   UNL     1      -1.002  -3.432  -3.173  0.00  0.00    -0.408 OA
ATOM     12  H   UNL     1      -0.709  -3.039  -4.007  0.00  0.00    +0.328 HD
ENDBRANCH   7  11
ENDBRANCH   5   6
BRANCH   1  15
ATOM     13  C   UNL     1      -1.012  -1.059   0.358  0.00  0.00    +0.251 C 
ATOM     14  O   UNL     1      -2.142  -0.609   0.415  0.00  0.00    -0.270 OA
ATOM     15  N   UNL     1      -0.822  -2.386   0.218  0.00  0.00    -0.307 N 
ATOM     16  H   UNL     1       0.077  -2.745   0.172  0.00  0.00    +0.149 HD
BRANCH  13  21
ATOM     17  C   UNL     1       0.164   1.220   0.584  0.00  0.00    +0.022 A 
ATOM     18  C   UNL     1       1.411   1.794   0.633  0.00  0.00    +0.024 A 
ATOM     19  C   UNL     1       2.507   0.999   0.541  0.00  0.00    +0.056 A 
ATOM     20  S   UNL     1       1.879  -0.551   0.385  0.00  0.00    -0.077 S 
ATOM     21  C   UNL     1       0.141  -0.159   0.441  0.00  0.00    +0.075 A 
ATOM     22 BR   UNL     1       4.325   1.517   0.579  0.00  0.00    -0.043 Br
ENDBRANCH  13  21
ENDBRANCH   1  15
TORSDOF 4
