REMARK  Name = ZINC37384243
REMARK  9 active torsions:
REMARK  status: ('A' for Active; 'I' for Inactive)
REMARK    1  A    between atoms: C_4  and  C_7
REMARK    2  A    between atoms: C_7  and  C_8
REMARK    3  A    between atoms: C_8  and  N_9
REMARK    4  A    between atoms: N_9  and  C_10
REMARK    5  A    between atoms: C_10  and  C_11
REMARK    6  A    between atoms: C_11  and  C_12
REMARK    7  A    between atoms: N_14  and  C_15
REMARK    8  A    between atoms: C_15  and  C_16
REMARK    9  A    between atoms: C_29  and  C_31
REMARK                            x       y       z     vdW  Elec       q    Type
REMARK                         _______ _______ _______ _____ _____    ______ ____
ROOT
ATOM      1  N   UNL     1       5.450  -1.678   1.382  0.00  0.00    -0.314 N 
ATOM      2  C   UNL     1       5.460  -3.057   1.375  0.00  0.00    +0.133 A 
ATOM      3  C   UNL     1       5.559  -3.778   0.159  0.00  0.00    +0.040 A 
ATOM      4  C   UNL     1       5.651  -3.133  -1.079  0.00  0.00    +0.013 A 
ATOM      5  C   UNL     1       5.744  -3.877  -2.219  0.00  0.00    +0.001 A 
ATOM      6  C   UNL     1       5.749  -5.268  -2.167  0.00  0.00    +0.002 A 
ATOM      7  C   UNL     1       5.661  -5.926  -0.977  0.00  0.00    +0.028 A 
ATOM      8  C   UNL     1       5.564  -5.193   0.214  0.00  0.00    +0.077 A 
ATOM      9  N   UNL     1       5.476  -5.793   1.409  0.00  0.00    -0.227 NA
ATOM     10  C   UNL     1       5.386  -5.074   2.513  0.00  0.00    +0.162 A 
ATOM     11  N   UNL     1       5.383  -3.742   2.506  0.00  0.00    -0.212 NA
ENDROOT
BRANCH  10  12
ATOM     12  C   UNL     1       5.290  -5.778   3.814  0.00  0.00    +0.019 A 
ATOM     13  C   UNL     1       5.188  -5.049   4.998  0.00  0.00    +0.013 A 
ATOM     14  C   UNL     1       5.098  -5.710   6.206  0.00  0.00    +0.021 A 
ATOM     15  C   UNL     1       5.110  -7.094   6.244  0.00  0.00    +0.041 A 
ATOM     16  C   UNL     1       5.211  -7.822   5.070  0.00  0.00    +0.021 A 
ATOM     17  C   UNL     1       5.296  -7.172   3.857  0.00  0.00    +0.013 A 
ATOM     18 CL   UNL     1       4.998  -7.919   7.767  0.00  0.00    -0.084 Cl
ENDBRANCH  10  12
BRANCH   1  19
ATOM     19  C   UNL     1       4.176  -0.955   1.419  0.00  0.00    +0.111 C 
BRANCH  19  20
ATOM     20  C   UNL     1       3.695  -0.697  -0.010  0.00  0.00    +0.054 C 
BRANCH  20  24
ATOM     21  C   UNL     1      -0.019   1.412   0.096  0.00  0.00    +0.000 A 
ATOM     22  C   UNL     1       1.173   2.112   0.068  0.00  0.00    +0.000 A 
ATOM     23  C   UNL     1       2.375   1.429   0.034  0.00  0.00    +0.004 A 
ATOM     24  C   UNL     1       2.385   0.047   0.028  0.00  0.00    -0.046 A 
ATOM     25  C   UNL     1       1.193  -0.653   0.056  0.00  0.00    +0.004 A 
ATOM     26  C   UNL     1      -0.009   0.029   0.088  0.00  0.00    +0.000 A 
ENDBRANCH  20  24
ENDBRANCH  19  20
ENDBRANCH   1  19
BRANCH   1  27
ATOM     27  C   UNL     1       6.713  -0.937   1.352  0.00  0.00    +0.116 C 
BRANCH  27  28
ATOM     28  C   UNL     1       7.128  -0.577   2.780  0.00  0.00    +0.114 C 
BRANCH  28  29
ATOM     29  C   UNL     1       8.427   0.186   2.749  0.00  0.00    +0.215 C 
ATOM     30  O   UNL     1       8.968   0.419   1.689  0.00  0.00    -0.276 OA
ATOM     31  N   UNL     1       8.987   0.609   3.899  0.00  0.00    -0.308 N 
ATOM     32  H   UNL     1       8.555   0.422   4.747  0.00  0.00    +0.149 HD
BRANCH  31  33
ATOM     33  C   UNL     1      10.250   1.350   3.869  0.00  0.00    +0.178 C 
BRANCH  33  34
ATOM     34  C   UNL     1      10.659   1.704   5.276  0.00  0.00    +0.122 A 
ATOM     35  C   UNL     1      11.429   0.954   6.084  0.00  0.00    +0.046 A 
ATOM     36  C   UNL     1      11.557   1.661   7.301  0.00  0.00    +0.041 A 
ATOM     37  C   UNL     1      10.857   2.802   7.164  0.00  0.00    +0.195 A 
ATOM     38  O   UNL     1      10.320   2.825   5.933  0.00  0.00    -0.466 OA
ENDBRANCH  33  34
ENDBRANCH  31  33
ENDBRANCH  28  29
ENDBRANCH  27  28
ENDBRANCH   1  27
TORSDOF 9
