REMARK  Name = ZINC48332566
REMARK  4 active torsions:
REMARK  status: ('A' for Active; 'I' for Inactive)
REMARK    1  A    between atoms: C_1  and  C_2
REMARK    2  A    between atoms: C_4  and  C_12
REMARK    3  A    between atoms: C_16  and  S_18
REMARK    4  A    between atoms: S_18  and  N_21
REMARK                            x       y       z     vdW  Elec       q    Type
REMARK                         _______ _______ _______ _____ _____    ______ ____
ROOT
ATOM      1  C   UNL     1       0.029  -2.840  -2.440  0.00  0.00    +0.002 A 
ATOM      2  C   UNL     1       0.019  -2.145  -3.648  0.00  0.00    +0.010 A 
ATOM      3  C   UNL     1       0.023  -2.839  -4.841  0.00  0.00    +0.003 A 
ATOM      4  C   UNL     1       0.036  -4.223  -4.839  0.00  0.00    +0.028 A 
ATOM      5  C   UNL     1       0.045  -4.918  -3.643  0.00  0.00    +0.106 A 
ATOM      6  C   UNL     1       0.049  -4.234  -2.444  0.00  0.00    +0.038 A 
ENDROOT
BRANCH   1  10
ATOM      7  C   UNL     1      -0.018   1.503   0.010  0.00  0.00    +0.044 C 
ATOM      8  C   UNL     1       0.002  -0.004   0.002  0.00  0.00    -0.039 A 
ATOM      9  C   UNL     1       0.006  -0.697  -1.172  0.00  0.00    +0.032 A 
ATOM     10  C   UNL     1       0.026  -2.100  -1.155  0.00  0.00    +0.072 A 
ATOM     11  N   UNL     1       0.041  -2.776  -0.022  0.00  0.00    -0.247 NA
ATOM     12  C   UNL     1       0.037  -2.150   1.158  0.00  0.00    +0.072 A 
ATOM     13  C   UNL     1       0.023  -0.733   1.207  0.00  0.00    +0.003 A 
ATOM     14  C   UNL     1       0.025  -0.083   2.452  0.00  0.00    +0.010 A 
ATOM     15  C   UNL     1       0.046  -0.820   3.597  0.00  0.00    +0.001 A 
ATOM     16  C   UNL     1       0.065  -2.213   3.550  0.00  0.00    +0.002 A 
ATOM     17  C   UNL     1       0.053  -2.876   2.362  0.00  0.00    +0.028 A 
ENDBRANCH   1  10
BRANCH   5  18
ATOM     18  S   UNL     1       0.061  -6.680  -3.651  0.00  0.00    +0.056 S 
ATOM     19  O   UNL     1      -0.483  -7.096  -2.405  0.00  0.00    -0.153 OA
ATOM     20  O   UNL     1      -0.490  -7.085  -4.896  0.00  0.00    -0.153 OA
BRANCH  18  21
ATOM     21  N   UNL     1       1.647  -7.155  -3.658  0.00  0.00    -0.204 NA
ATOM     22  H   UNL     1       2.353  -6.490  -3.657  0.00  0.00    +0.144 HD
ATOM     23  H   UNL     1       1.870  -8.099  -3.662  0.00  0.00    +0.144 HD
ENDBRANCH  18  21
ENDBRANCH   5  18
TORSDOF 3
