REMARK  Name = ZINC00739271
REMARK  16 active torsions:
REMARK  status: ('A' for Active; 'I' for Inactive)
REMARK    1  A    between atoms: C_1  and  C_2
REMARK    2  A    between atoms: C_5  and  S_8
REMARK    3  A    between atoms: S_8  and  N_11
REMARK    4  A    between atoms: N_11  and  C_12
REMARK    5  A    between atoms: N_11  and  C_16
REMARK    6  A    between atoms: C_12  and  C_13
REMARK    7  A    between atoms: C_13  and  C_14
REMARK    8  A    between atoms: C_13  and  C_15
REMARK    9  A    between atoms: C_16  and  C_17
REMARK   10  A    between atoms: N_19  and  C_20
REMARK   11  A    between atoms: C_22  and  C_32
REMARK   12  A    between atoms: N_24  and  C_25
REMARK   13  A    between atoms: C_29  and  C_31
REMARK   14  A    between atoms: C_32  and  C_33
REMARK   15  A    between atoms: C_32  and  C_34
REMARK   16  A    between atoms: C_32  and  C_35
REMARK                            x       y       z     vdW  Elec       q    Type
REMARK                         _______ _______ _______ _____ _____    ______ ____
ROOT
ATOM      1  C   UNL     1      -2.909   6.505  -1.899  0.00  0.00    +0.234 C 
ATOM      2  O   UNL     1      -2.711   7.692  -1.745  0.00  0.00    -0.274 OA
ATOM      3  N   UNL     1      -2.077   5.605  -1.341  0.00  0.00    -0.269 N 
ATOM      4  H   UNL     1      -2.236   4.656  -1.464  0.00  0.00    +0.156 HD
ENDROOT
BRANCH   3   5
ATOM      5  C   UNL     1      -0.986   6.037  -0.586  0.00  0.00    +0.129 A 
ATOM      6  C   UNL     1      -0.645   7.330  -0.332  0.00  0.00    +0.069 A 
ATOM      7  C   UNL     1       0.508   7.322   0.459  0.00  0.00    +0.071 A 
ATOM      8  N   UNL     1       0.849   6.078   0.682  0.00  0.00    -0.169 NA
ATOM      9  N   UNL     1      -0.069   5.244   0.031  0.00  0.00    -0.218 N 
BRANCH   9  10
ATOM     10  C   UNL     1      -0.050   3.842   0.023  0.00  0.00    +0.068 A 
ATOM     11  C   UNL     1      -1.242   3.130   0.031  0.00  0.00    +0.028 A 
ATOM     12  C   UNL     1      -1.220   1.750   0.017  0.00  0.00    +0.002 A 
ATOM     13  C   UNL     1      -0.013   1.076   0.008  0.00  0.00    +0.003 A 
ATOM     14  C   UNL     1       1.176   1.782   0.000  0.00  0.00    -0.048 A 
ATOM     15  C   UNL     1       1.161   3.163   0.008  0.00  0.00    +0.031 A 
ATOM     16  C   UNL     1       2.490   1.044  -0.016  0.00  0.00    +0.044 C 
ENDBRANCH   9  10
BRANCH   7  17
ATOM     17  C   UNL     1       1.231   8.539   0.974  0.00  0.00    +0.006 C 
ATOM     18  C   UNL     1       0.437   9.154   2.128  0.00  0.00    +0.017 C 
ATOM     19  C   UNL     1       2.621   8.135   1.469  0.00  0.00    +0.017 C 
ATOM     20  C   UNL     1       1.369   9.565  -0.153  0.00  0.00    +0.017 C 
ENDBRANCH   7  17
ENDBRANCH   3   5
BRANCH   1  21
ATOM     21  C   UNL     1      -4.088   6.038  -2.714  0.00  0.00    +0.205 C 
BRANCH  21  22
ATOM     22  N   UNL     1      -4.832   7.200  -3.207  0.00  0.00    -0.168 NA
BRANCH  22  23
ATOM     23  S   UNL     1      -6.142   7.763  -2.365  0.00  0.00    +0.061 S 
ATOM     24  O   UNL     1      -6.954   8.463  -3.297  0.00  0.00    -0.153 OA
ATOM     25  O   UNL     1      -6.631   6.672  -1.597  0.00  0.00    -0.153 OA
BRANCH  23  30
ATOM     26  C   UNL     1      -4.107  11.861   1.569  0.00  0.00    +0.044 C 
ATOM     27  C   UNL     1      -4.615  10.838   0.586  0.00  0.00    -0.050 A 
ATOM     28  C   UNL     1      -5.003  11.229  -0.681  0.00  0.00    +0.005 A 
ATOM     29  C   UNL     1      -5.469  10.290  -1.583  0.00  0.00    +0.029 A 
ATOM     30  C   UNL     1      -5.547   8.960  -1.216  0.00  0.00    +0.106 A 
ATOM     31  C   UNL     1      -5.164   8.569   0.053  0.00  0.00    +0.029 A 
ATOM     32  C   UNL     1      -4.694   9.507   0.953  0.00  0.00    +0.005 A 
ENDBRANCH  23  30
ENDBRANCH  22  23
BRANCH  22  33
ATOM     33  C   UNL     1      -4.417   7.864  -4.446  0.00  0.00    +0.113 C 
BRANCH  33  34
ATOM     34  C   UNL     1      -5.038   7.142  -5.643  0.00  0.00    -0.001 C 
ATOM     35  C   UNL     1      -6.560   7.290  -5.595  0.00  0.00    +0.008 C 
ATOM     36  C   UNL     1      -4.506   7.756  -6.940  0.00  0.00    +0.008 C 
ENDBRANCH  33  34
ENDBRANCH  22  33
ENDBRANCH  21  22
ENDBRANCH   1  21
TORSDOF 9
