REMARK  Name = ZINC23834294
REMARK  9 active torsions:
REMARK  status: ('A' for Active; 'I' for Inactive)
REMARK    1  A    between atoms: C_1  and  N_2
REMARK    2  A    between atoms: N_11  and  C_31
REMARK    3  A    between atoms: C_14  and  C_17
REMARK    4  A    between atoms: C_20  and  C_23
REMARK    5  A    between atoms: C_23  and  O_24
REMARK    6  A    between atoms: O_24  and  C_25
REMARK    7  A    between atoms: C_31  and  C_32
REMARK    8  A    between atoms: C_32  and  C_33
REMARK    9  A    between atoms: C_33  and  C_34
REMARK                            x       y       z     vdW  Elec       q    Type
REMARK                         _______ _______ _______ _____ _____    ______ ____
ROOT
ATOM      1  C   UNL     1       8.821  -1.541   2.784  0.00  0.00    +0.155 C 
ATOM      2  N   UNL     1      10.037  -2.280   3.132  0.00  0.00    -0.281 N 
ATOM      3  C   UNL     1      10.497  -3.275   2.296  0.00  0.00    +0.155 A 
ATOM      4  C   UNL     1      11.633  -3.955   2.633  0.00  0.00    +0.152 A 
ATOM      5  C   UNL     1      12.308  -3.623   3.829  0.00  0.00    +0.280 A 
ATOM      6  O   UNL     1      13.322  -4.217   4.149  0.00  0.00    -0.265 OA
ATOM      7  N   UNL     1      11.819  -2.641   4.614  0.00  0.00    -0.273 N 
ATOM      8  H   UNL     1      12.336  -2.373   5.547  0.00  0.00    +0.173 HD
ATOM      9  C   UNL     1      10.699  -1.982   4.265  0.00  0.00    +0.331 A 
ATOM     10  O   UNL     1      10.277  -1.100   4.988  0.00  0.00    -0.246 OA
ATOM     11  N   UNL     1      11.877  -4.897   1.632  0.00  0.00    -0.303 N 
ATOM     12  C   UNL     1      10.880  -4.774   0.695  0.00  0.00    +0.239 A 
ATOM     13  N   UNL     1      10.036  -3.779   1.105  0.00  0.00    -0.244 N 
ATOM     14  C   UNL     1       9.060  -3.695   0.138  0.00  0.00    +0.171 A 
ATOM     15  N   UNL     1       9.339  -4.603  -0.770  0.00  0.00    -0.127 NA
ATOM     16  N   UNL     1      10.411  -5.234  -0.446  0.00  0.00    -0.110 NA
ENDROOT
BRANCH  14  17
ATOM     17  C   UNL     1       7.912  -2.764   0.126  0.00  0.00    +0.020 A 
ATOM     18  C   UNL     1       7.024  -2.732   1.202  0.00  0.00    +0.012 A 
ATOM     19  C   UNL     1       5.954  -1.861   1.185  0.00  0.00    +0.007 A 
ATOM     20  C   UNL     1       5.761  -1.020   0.103  0.00  0.00    -0.010 A 
ATOM     21  C   UNL     1       6.635  -1.050  -0.969  0.00  0.00    +0.007 A 
ATOM     22  C   UNL     1       7.712  -1.912  -0.962  0.00  0.00    +0.012 A 
BRANCH  20  23
ATOM     23  C   UNL     1       4.590  -0.071   0.090  0.00  0.00    +0.264 C 
BRANCH  23  24
ATOM     24  O   UNL     1       4.976   1.170   0.683  0.00  0.00    -0.487 OA
BRANCH  24  25
ATOM     25  C   UNL     1       4.029   2.143   0.751  0.00  0.00    +0.121 A 
ATOM     26  C   UNL     1       4.335   3.373   1.314  0.00  0.00    +0.045 A 
ATOM     27  C   UNL     1       3.371   4.359   1.382  0.00  0.00    +0.004 A 
ATOM     28  C   UNL     1       2.101   4.122   0.889  0.00  0.00    +0.000 A 
ATOM     29  C   UNL     1       1.793   2.896   0.327  0.00  0.00    +0.004 A 
ATOM     30  C   UNL     1       2.755   1.907   0.257  0.00  0.00    +0.045 A 
ENDBRANCH  24  25
ENDBRANCH  23  24
ENDBRANCH  20  23
ENDBRANCH  14  17
BRANCH  11  31
ATOM     31  C   UNL     1      12.994  -5.844   1.588  0.00  0.00    +0.126 C 
BRANCH  31  32
ATOM     32  C   UNL     1      12.590  -7.142   2.290  0.00  0.00    +0.026 C 
BRANCH  32  33
ATOM     33  C   UNL     1      13.757  -8.131   2.244  0.00  0.00    +0.037 C 
BRANCH  33  34
ATOM     34  C   UNL     1      13.358  -9.410   2.935  0.00  0.00    -0.047 A 
ATOM     35  C   UNL     1      13.589  -9.565   4.289  0.00  0.00    +0.003 A 
ATOM     36  C   UNL     1      13.219 -10.736   4.924  0.00  0.00    +0.000 A 
ATOM     37  C   UNL     1      12.628 -11.756   4.203  0.00  0.00    +0.000 A 
ATOM     38  C   UNL     1      12.402 -11.603   2.848  0.00  0.00    +0.000 A 
ATOM     39  C   UNL     1      12.767 -10.430   2.214  0.00  0.00    +0.003 A 
ENDBRANCH  33  34
ENDBRANCH  32  33
ENDBRANCH  31  32
ENDBRANCH  11  31
TORSDOF 8
