REMARK  Name = ZINC19535277
REMARK  9 active torsions:
REMARK  status: ('A' for Active; 'I' for Inactive)
REMARK    1  A    between atoms: C_1  and  O_2
REMARK    2  A    between atoms: O_2  and  C_3
REMARK    3  A    between atoms: C_3  and  C_5
REMARK    4  A    between atoms: C_5  and  C_6
REMARK    5  A    between atoms: C_6  and  C_7
REMARK    6  A    between atoms: C_7  and  N_8
REMARK    7  A    between atoms: N_8  and  C_9
REMARK    8  A    between atoms: C_9  and  C_10
REMARK    9  A    between atoms: C_11  and  C_20
REMARK                            x       y       z     vdW  Elec       q    Type
REMARK                         _______ _______ _______ _____ _____    ______ ____
ROOT
ATOM      1  C   UNL     1       0.157   5.169   0.026  0.00  0.00    +0.039 A 
ATOM      2  C   UNL     1       1.514   5.321   0.014  0.00  0.00    +0.146 A 
ATOM      3  N   UNL     1       2.073   4.097   0.003  0.00  0.00    -0.223 NA
ATOM      4  C   UNL     1       1.115   3.185   0.008  0.00  0.00    +0.139 A 
ATOM      5  N   UNL     1      -0.096   3.831   0.023  0.00  0.00    -0.303 N 
ATOM      6  C   UNL     1      -1.261   3.115   0.030  0.00  0.00    +0.113 A 
ATOM      7  C   UNL     1      -1.238   1.765   0.018  0.00  0.00    +0.058 A 
ATOM      8  C   UNL     1      -0.013   1.076   0.008  0.00  0.00    +0.025 A 
ATOM      9  C   UNL     1       1.153   1.774   0.001  0.00  0.00    +0.048 A 
ATOM     10 CL   UNL     1      -2.730   0.876   0.020  0.00  0.00    -0.082 Cl
ENDROOT
BRANCH   2  11
ATOM     11  C   UNL     1       2.241   6.605   0.013  0.00  0.00    +0.267 C 
ATOM     12  O   UNL     1       1.625   7.653   0.023  0.00  0.00    -0.268 OA
ATOM     13  N   UNL     1       3.589   6.616   0.000  0.00  0.00    -0.296 N 
ATOM     14  C   UNL     1       4.343   5.354  -0.006  0.00  0.00    +0.108 C 
ATOM     15  C   UNL     1       4.130   4.659  -1.351  0.00  0.00    +0.019 C 
ATOM     16  C   UNL     1       4.907   5.416  -2.441  0.00  0.00    +0.002 C 
ATOM     17  C   UNL     1       4.136   6.671  -2.834  0.00  0.00    +0.000 C 
ATOM     18  C   UNL     1       4.912   7.937  -2.428  0.00  0.00    +0.002 C 
ATOM     19  C   UNL     1       5.464   7.773  -1.012  0.00  0.00    +0.019 C 
ATOM     20  C   UNL     1       4.313   7.876  -0.002  0.00  0.00    +0.108 C 
ENDBRANCH   2  11
BRANCH   1  21
ATOM     21  C   UNL     1      -0.868   6.274   0.042  0.00  0.00    -0.025 C 
BRANCH  21  22
ATOM     22  N   UNL     1      -1.187   6.626   1.432  0.00  0.00    +0.383 N 
ATOM     23  H   UNL     1      -0.265   6.955   1.933  0.00  0.00    -0.085 HD
ATOM     24  H   UNL     1      -1.581   5.734   1.940  0.00  0.00    -0.085 HD
BRANCH  22  25
ATOM     25  C   UNL     1      -2.185   7.702   1.487  0.00  0.00    -0.082 C 
BRANCH  25  26
ATOM     26  C   UNL     1      -2.491   8.041   2.947  0.00  0.00    -0.008 C 
BRANCH  26  27
ATOM     27  C   UNL     1      -3.530   9.162   3.004  0.00  0.00    +0.119 C 
BRANCH  27  28
ATOM     28  C   UNL     1      -3.832   9.495   4.442  0.00  0.00    +0.307 C 
ATOM     29  O   UNL     1      -3.272   8.898   5.331  0.00  0.00    -0.251 OA
BRANCH  28  31
ATOM     30  C   UNL     1      -4.962  10.724   6.143  0.00  0.00    +0.280 C 
ATOM     31  O   UNL     1      -4.721  10.456   4.736  0.00  0.00    -0.468 OA
ENDBRANCH  28  31
ENDBRANCH  27  28
ENDBRANCH  26  27
ENDBRANCH  25  26
ENDBRANCH  22  25
ENDBRANCH  21  22
ENDBRANCH   1  21
TORSDOF 8
