REMARK  Name = ZINC07206654
REMARK  10 active torsions:
REMARK  status: ('A' for Active; 'I' for Inactive)
REMARK    1  A    between atoms: C_1  and  C_2
REMARK    2  A    between atoms: C_6  and  C_31
REMARK    3  A    between atoms: C_7  and  O_8
REMARK    4  A    between atoms: O_8  and  C_9
REMARK    5  A    between atoms: C_9  and  C_10
REMARK    6  A    between atoms: C_10  and  C_12
REMARK    7  A    between atoms: C_10  and  O_30
REMARK    8  A    between atoms: C_12  and  N_13
REMARK    9  A    between atoms: C_16  and  C_20
REMARK   10  A    between atoms: C_16  and  C_21
REMARK                            x       y       z     vdW  Elec       q    Type
REMARK                         _______ _______ _______ _____ _____    ______ ____
ROOT
ATOM      1  N   UNL     1      -2.201   2.278   6.025  0.00  0.00    -0.221 N 
ATOM      2  C   UNL     1      -2.125   1.786   7.277  0.00  0.00    +0.251 C 
ATOM      3  O   UNL     1      -2.208   0.624   7.614  0.00  0.00    -0.272 OA
ATOM      4  C   UNL     1      -1.915   2.987   8.177  0.00  0.00    +0.135 C 
ATOM      5  N   UNL     1      -1.895   4.123   7.240  0.00  0.00    -0.281 N 
ATOM      6  C   UNL     1      -2.064   3.609   6.008  0.00  0.00    +0.310 C 
ATOM      7  O   UNL     1      -2.092   4.278   4.994  0.00  0.00    -0.252 OA
ATOM      8  C   UNL     1      -0.582   2.877   8.919  0.00  0.00    +0.047 C 
ATOM      9  H   UNL     1      -1.779   5.059   7.466  0.00  0.00    +0.152 HD
ENDROOT
BRANCH   4  10
ATOM     10  C   UNL     1      -3.056   3.125   9.152  0.00  0.00    -0.015 A 
ATOM     11  C   UNL     1      -3.732   2.001   9.590  0.00  0.00    +0.006 A 
ATOM     12  C   UNL     1      -4.777   2.130  10.484  0.00  0.00    +0.004 A 
ATOM     13  C   UNL     1      -5.151   3.382  10.943  0.00  0.00    -0.044 A 
ATOM     14  C   UNL     1      -4.476   4.506  10.505  0.00  0.00    -0.044 A 
ATOM     15  C   UNL     1      -3.424   4.374   9.613  0.00  0.00    +0.010 A 
ATOM     16  C   UNL     1      -5.069   5.742  11.146  0.00  0.00    +0.036 C 
ATOM     17  C   UNL     1      -6.449   5.298  11.677  0.00  0.00    +0.009 C 
ATOM     18  C   UNL     1      -6.245   3.786  11.908  0.00  0.00    +0.036 C 
ENDBRANCH   4  10
BRANCH   1  19
ATOM     19  C   UNL     1      -2.401   1.456   4.828  0.00  0.00    +0.152 C 
BRANCH  19  20
ATOM     20  C   UNL     1      -1.043   1.022   4.274  0.00  0.00    +0.170 C 
BRANCH  20  21
ATOM     21  O   UNL     1      -0.396   0.166   5.217  0.00  0.00    -0.387 OA
ATOM     22  H   UNL     1      -0.891  -0.639   5.421  0.00  0.00    +0.210 HD
ENDBRANCH  20  21
BRANCH  20  23
ATOM     23  C   UNL     1      -1.246   0.270   2.957  0.00  0.00    +0.262 C 
BRANCH  23  24
ATOM     24  O   UNL     1       0.025  -0.033   2.381  0.00  0.00    -0.489 OA
BRANCH  24  31
ATOM     25  C   UNL     1      -0.018   1.503   0.010  0.00  0.00    +0.047 C 
ATOM     26  C   UNL     1       0.002  -0.004   0.002  0.00  0.00    -0.009 A 
ATOM     27  C   UNL     1       0.006  -0.689  -1.198  0.00  0.00    +0.007 A 
ATOM     28  C   UNL     1       0.024  -2.071  -1.206  0.00  0.00    +0.001 A 
ATOM     29  C   UNL     1       0.040  -2.772  -0.014  0.00  0.00    +0.007 A 
ATOM     30  C   UNL     1       0.036  -2.092   1.188  0.00  0.00    -0.009 A 
ATOM     31  C   UNL     1       0.023  -0.705   1.199  0.00  0.00    +0.126 A 
ATOM     32  C   UNL     1       0.052  -2.856   2.487  0.00  0.00    +0.047 C 
ENDBRANCH  24  31
ENDBRANCH  23  24
ENDBRANCH  20  23
ENDBRANCH  19  20
ENDBRANCH   1  19
TORSDOF 7
