REMARK  Name = ZINC36596893
REMARK  14 active torsions:
REMARK  status: ('A' for Active; 'I' for Inactive)
REMARK    1  A    between atoms: C_1  and  C_2
REMARK    2  A    between atoms: C_2  and  C_3
REMARK    3  A    between atoms: C_3  and  C_4
REMARK    4  A    between atoms: C_4  and  N_5
REMARK    5  A    between atoms: C_6  and  C_8
REMARK    6  A    between atoms: C_8  and  C_10
REMARK    7  A    between atoms: C_8  and  N_22
REMARK    8  A    between atoms: C_19  and  O_20
REMARK    9  A    between atoms: O_20  and  C_21
REMARK   10  A    between atoms: N_22  and  C_23
REMARK   11  A    between atoms: C_23  and  C_24
REMARK   12  A    between atoms: C_27  and  C_29
REMARK   13  A    between atoms: C_30  and  C_32
REMARK   14  A    between atoms: C_33  and  C_34
REMARK                            x       y       z     vdW  Elec       q    Type
REMARK                         _______ _______ _______ _____ _____    ______ ____
ROOT
ATOM      1  C   UNL     1      -4.470  -4.431  -0.053  0.00  0.00    +0.198 C 
ENDROOT
BRANCH   1   2
ATOM      2  C   UNL     1      -5.099  -3.891  -1.312  0.00  0.00    +0.031 A 
ATOM      3  C   UNL     1      -5.985  -2.803  -1.248  0.00  0.00    -0.009 A 
ATOM      4  C   UNL     1      -6.306  -2.195  -0.022  0.00  0.00    +0.009 A 
ATOM      5  C   UNL     1      -7.168  -1.143   0.002  0.00  0.00    +0.001 A 
ATOM      6  C   UNL     1      -7.740  -0.656  -1.172  0.00  0.00    +0.001 A 
ATOM      7  C   UNL     1      -7.452  -1.220  -2.377  0.00  0.00    +0.008 A 
ATOM      8  C   UNL     1      -6.566  -2.308  -2.443  0.00  0.00    -0.017 A 
ATOM      9  C   UNL     1      -6.245  -2.914  -3.670  0.00  0.00    +0.012 A 
ATOM     10  C   UNL     1      -5.384  -3.966  -3.698  0.00  0.00    +0.046 A 
ATOM     11  C   UNL     1      -4.805  -4.453  -2.522  0.00  0.00    +0.126 A 
BRANCH  11  12
ATOM     12  O   UNL     1      -3.943  -5.502  -2.582  0.00  0.00    -0.495 OA
ATOM     13  C   UNL     1      -3.763  -6.120  -3.858  0.00  0.00    +0.277 C 
ENDBRANCH  11  12
ENDBRANCH   1   2
BRANCH   1  15
ATOM     14  N   UNL     1      -2.632  -2.805  -0.361  0.00  0.00    -0.313 N 
ATOM     15  C   UNL     1      -3.013  -4.051  -0.016  0.00  0.00    +0.238 C 
ATOM     16  O   UNL     1      -2.182  -4.866   0.324  0.00  0.00    -0.273 OA
ATOM     17  H   UNL     1      -3.297  -2.153  -0.633  0.00  0.00    +0.149 HD
BRANCH  14  18
ATOM     18  C   UNL     1      -1.215  -2.435  -0.325  0.00  0.00    +0.104 C 
BRANCH  18  19
ATOM     19  C   UNL     1      -1.057  -0.977  -0.759  0.00  0.00    +0.018 C 
BRANCH  19  21
ATOM     20  C   UNL     1       0.581   0.868  -1.156  0.00  0.00    +0.004 C 
ATOM     21  C   UNL     1       0.423  -0.591  -0.722  0.00  0.00    -0.002 C 
ENDBRANCH  19  21
ENDBRANCH  18  19
ENDBRANCH  14  18
ENDBRANCH   1  15
BRANCH   1  22
ATOM     22  N   UNL     1      -4.595  -5.891  -0.033  0.00  0.00    -0.268 N 
ATOM     23  C   UNL     1      -5.798  -6.461   0.173  0.00  0.00    +0.293 C 
ATOM     24  O   UNL     1      -6.782  -5.764   0.342  0.00  0.00    -0.260 OA
BRANCH  23  25
ATOM     25  C   UNL     1      -5.920  -7.888   0.194  0.00  0.00    -0.003 C 
ATOM     26  C   UNL     1      -6.020  -9.058   0.210  0.00  0.00    -0.057 C 
BRANCH  26  27
ATOM     27  C   UNL     1      -6.142 -10.484   0.230  0.00  0.00    +0.025 A 
ATOM     28  C   UNL     1      -5.014 -11.289   0.042  0.00  0.00    +0.017 A 
ATOM     29  C   UNL     1      -5.139 -12.662   0.063  0.00  0.00    +0.001 A 
ATOM     30  C   UNL     1      -6.378 -13.244   0.269  0.00  0.00    +0.000 A 
ATOM     31  C   UNL     1      -7.499 -12.455   0.456  0.00  0.00    +0.001 A 
ATOM     32  C   UNL     1      -7.389 -11.080   0.444  0.00  0.00    +0.017 A 
ENDBRANCH  26  27
ENDBRANCH  23  25
BRANCH  22  33
ATOM     33  C   UNL     1      -3.412  -6.730  -0.236  0.00  0.00    +0.184 C 
BRANCH  33  34
ATOM     34  C   UNL     1      -2.883  -7.186   1.100  0.00  0.00    +0.122 A 
ATOM     35  C   UNL     1      -3.171  -8.353   1.703  0.00  0.00    +0.046 A 
ATOM     36  C   UNL     1      -2.465  -8.367   2.928  0.00  0.00    +0.045 A 
ATOM     37  C   UNL     1      -1.789  -7.206   3.000  0.00  0.00    +0.102 A 
ATOM     38  O   UNL     1      -2.041  -6.498   1.888  0.00  0.00    -0.463 OA
ATOM     39  C   UNL     1      -0.895  -6.777   4.135  0.00  0.00    +0.086 C 
ENDBRANCH  33  34
ENDBRANCH  22  33
ENDBRANCH   1  22
TORSDOF 11
