REMARK  Name = ZINC40035779
REMARK  13 active torsions:
REMARK  status: ('A' for Active; 'I' for Inactive)
REMARK    1  A    between atoms: C_1  and  C_2
REMARK    2  A    between atoms: C_2  and  C_3
REMARK    3  A    between atoms: C_3  and  C_37
REMARK    4  A    between atoms: N_15  and  C_34
REMARK    5  A    between atoms: N_18  and  N_19
REMARK    6  A    between atoms: C_20  and  C_21
REMARK    7  A    between atoms: C_24  and  O_30
REMARK    8  A    between atoms: C_25  and  O_27
REMARK    9  A    between atoms: O_27  and  C_28
REMARK   10  A    between atoms: C_28  and  C_29
REMARK   11  A    between atoms: O_30  and  C_31
REMARK   12  A    between atoms: C_31  and  C_32
REMARK   13  A    between atoms: C_34  and  C_35
REMARK                            x       y       z     vdW  Elec       q    Type
REMARK                         _______ _______ _______ _____ _____    ______ ____
ROOT
ATOM      1  C   UNL     1       0.742  -0.511   1.242  0.00  0.00    +0.004 C 
ATOM      2  C   UNL     1       0.781  -2.030   1.093  0.00  0.00    +0.047 C 
ATOM      3  C   UNL     1      -0.587  -2.618   1.311  0.00  0.00    -0.037 A 
ATOM      4  C   UNL     1      -1.000  -3.716   0.585  0.00  0.00    +0.004 A 
ATOM      5  C   UNL     1      -2.257  -4.253   0.795  0.00  0.00    +0.000 A 
ATOM      6  C   UNL     1      -3.109  -3.696   1.732  0.00  0.00    +0.001 A 
ATOM      7  C   UNL     1      -2.709  -2.596   2.464  0.00  0.00    +0.010 A 
ATOM      8  C   UNL     1      -1.445  -2.052   2.255  0.00  0.00    +0.004 A 
ATOM      9  C   UNL     1      -0.991  -0.867   3.018  0.00  0.00    +0.084 A 
ATOM     10  C   UNL     1       0.073  -0.122   2.529  0.00  0.00    +0.049 A 
ATOM     11  C   UNL     1       0.506   0.994   3.256  0.00  0.00    +0.260 A 
ATOM     12  O   UNL     1       1.439   1.673   2.860  0.00  0.00    -0.267 OA
ATOM     13  N   UNL     1      -0.132   1.304   4.406  0.00  0.00    -0.276 N 
ATOM     14  C   UNL     1      -1.175   0.542   4.839  0.00  0.00    +0.219 A 
ATOM     15  N   UNL     1      -1.586  -0.511   4.161  0.00  0.00    -0.214 NA
ATOM     16  N   UNL     1      -1.810   0.877   6.006  0.00  0.00    -0.206 N 
ATOM     17  C   UNL     1       2.172   0.033   1.232  0.00  0.00    +0.016 C 
ATOM     18  H   UNL     1      -1.516   1.649   6.514  0.00  0.00    +0.177 HD
ENDROOT
BRANCH   1  20
ATOM     19  C   UNL     1      -0.052   1.615   0.197  0.00  0.00    +0.005 C 
ATOM     20  C   UNL     1      -0.034   0.091   0.068  0.00  0.00    +0.008 C 
ENDBRANCH   1  20
BRANCH  16  21
ATOM     21  N   UNL     1      -2.885   0.104   6.465  0.00  0.00    -0.188 NA
ATOM     22  C   UNL     1      -3.487   0.421   7.571  0.00  0.00    +0.138 C 
BRANCH  22  23
ATOM     23  C   UNL     1      -4.617  -0.392   8.054  0.00  0.00    -0.002 A 
ATOM     24  C   UNL     1      -5.039  -1.508   7.327  0.00  0.00    +0.013 A 
ATOM     25  C   UNL     1      -6.097  -2.267   7.780  0.00  0.00    +0.050 A 
ATOM     26  C   UNL     1      -6.745  -1.926   8.959  0.00  0.00    +0.162 A 
ATOM     27  C   UNL     1      -6.330  -0.815   9.689  0.00  0.00    +0.163 A 
ATOM     28  C   UNL     1      -5.266  -0.052   9.244  0.00  0.00    +0.059 A 
BRANCH  27  29
ATOM     29  O   UNL     1      -6.968  -0.483  10.844  0.00  0.00    -0.489 OA
BRANCH  29  30
ATOM     30  C   UNL     1      -6.489   0.669  11.542  0.00  0.00    +0.226 C 
ATOM     31  C   UNL     1      -7.324   0.882  12.806  0.00  0.00    +0.048 C 
ENDBRANCH  29  30
ENDBRANCH  27  29
BRANCH  26  32
ATOM     32  O   UNL     1      -7.788  -2.677   9.401  0.00  0.00    -0.484 OA
BRANCH  32  33
ATOM     33  C   UNL     1      -8.162  -3.802   8.603  0.00  0.00    +0.256 C 
BRANCH  33  34
ATOM     34  C   UNL     1      -9.327  -4.509   9.246  0.00  0.00    +0.006 C 
ATOM     35  C   UNL     1     -10.345  -4.891   8.515  0.00  0.00    +0.007 C 
ENDBRANCH  33  34
ENDBRANCH  32  33
ENDBRANCH  26  32
ENDBRANCH  22  23
ENDBRANCH  16  21
BRANCH  13  36
ATOM     36  C   UNL     1       0.300   2.463   5.191  0.00  0.00    +0.155 C 
BRANCH  36  37
ATOM     37  C   UNL     1      -0.454   3.686   4.737  0.00  0.00    -0.013 C 
ATOM     38  C   UNL     1      -1.127   4.400   5.605  0.00  0.00    +0.005 C 
ENDBRANCH  36  37
ENDBRANCH  13  36
TORSDOF 10
