REMARK  Name = ZINC36235415
REMARK  9 active torsions:
REMARK  status: ('A' for Active; 'I' for Inactive)
REMARK    1  A    between atoms: C_1  and  N_2
REMARK    2  A    between atoms: N_2  and  C_3
REMARK    3  A    between atoms: N_2  and  C_4
REMARK    4  A    between atoms: C_7  and  C_10
REMARK    5  A    between atoms: C_11  and  C_12
REMARK    6  A    between atoms: C_11  and  N_25
REMARK    7  A    between atoms: N_14  and  N_15
REMARK    8  A    between atoms: C_16  and  C_17
REMARK    9  A    between atoms: C_26  and  C_28
REMARK                            x       y       z     vdW  Elec       q    Type
REMARK                         _______ _______ _______ _____ _____    ______ ____
ROOT
ATOM      1  C   UNL     1      -4.685  -2.845   0.008  0.00  0.00    +0.036 C 
ATOM      2  C   UNL     1      -5.886  -2.224   0.110  0.00  0.00    +0.098 C 
ENDROOT
BRANCH   1   6
ATOM      3  C   UNL     1      -1.103  -0.603   0.371  0.00  0.00    +0.029 A 
ATOM      4  C   UNL     1      -1.126  -1.752  -0.415  0.00  0.00    +0.023 A 
ATOM      5  C   UNL     1      -2.286  -2.482  -0.536  0.00  0.00    +0.010 A 
ATOM      6  C   UNL     1      -3.444  -2.068   0.134  0.00  0.00    -0.023 A 
ATOM      7  C   UNL     1      -3.416  -0.912   0.923  0.00  0.00    +0.010 A 
ATOM      8  C   UNL     1      -2.250  -0.191   1.042  0.00  0.00    +0.023 A 
BRANCH   3  10
ATOM      9  C   UNL     1       0.102   1.339   1.321  0.00  0.00    +0.129 C 
ATOM     10  N   UNL     1       0.073   0.133   0.490  0.00  0.00    -0.336 N 
ATOM     11  C   UNL     1       1.282  -0.298  -0.217  0.00  0.00    +0.129 C 
ENDBRANCH   3  10
ENDBRANCH   1   6
BRANCH   2  12
ATOM     12  C   UNL     1      -5.953  -0.759   0.153  0.00  0.00    +0.277 C 
ATOM     13  O   UNL     1      -6.304  -0.196   1.174  0.00  0.00    -0.267 OA
ATOM     14  N   UNL     1      -5.627  -0.037  -0.937  0.00  0.00    -0.202 N 
ATOM     15  H   UNL     1      -5.418  -0.486  -1.772  0.00  0.00    +0.178 HD
BRANCH  14  16
ATOM     16  N   UNL     1      -5.590   1.361  -0.866  0.00  0.00    -0.187 NA
ATOM     17  C   UNL     1      -5.276   2.057  -1.916  0.00  0.00    +0.138 C 
BRANCH  17  18
ATOM     18  C   UNL     1      -5.237   3.529  -1.841  0.00  0.00    -0.004 A 
ATOM     19  C   UNL     1      -5.532   4.178  -0.640  0.00  0.00    +0.011 A 
ATOM     20  C   UNL     1      -5.494   5.555  -0.576  0.00  0.00    +0.022 A 
ATOM     21  C   UNL     1      -5.165   6.295  -1.699  0.00  0.00    +0.059 A 
ATOM     22  C   UNL     1      -4.871   5.658  -2.894  0.00  0.00    +0.060 A 
ATOM     23  C   UNL     1      -4.900   4.280  -2.970  0.00  0.00    +0.031 A 
ATOM     24 CL   UNL     1      -4.460   6.594  -4.297  0.00  0.00    -0.082 Cl
ATOM     25 CL   UNL     1      -5.119   8.028  -1.609  0.00  0.00    -0.082 Cl
ENDBRANCH  17  18
ENDBRANCH  14  16
ENDBRANCH   2  12
BRANCH   2  26
ATOM     26  N   UNL     1      -7.061  -2.981   0.175  0.00  0.00    -0.277 N 
ATOM     27  C   UNL     1      -8.251  -2.366   0.324  0.00  0.00    +0.248 C 
ATOM     28  O   UNL     1      -8.312  -1.152   0.323  0.00  0.00    -0.270 OA
ATOM     29  H   UNL     1      -7.019  -3.948   0.113  0.00  0.00    +0.155 HD
BRANCH  27  30
ATOM     30  C   UNL     1      -9.481  -3.169   0.489  0.00  0.00    +0.037 A 
ATOM     31  C   UNL     1      -9.414  -4.563   0.497  0.00  0.00    +0.013 A 
ATOM     32  C   UNL     1     -10.566  -5.305   0.652  0.00  0.00    +0.001 A 
ATOM     33  C   UNL     1     -11.787  -4.671   0.799  0.00  0.00    +0.000 A 
ATOM     34  C   UNL     1     -11.861  -3.289   0.793  0.00  0.00    +0.001 A 
ATOM     35  C   UNL     1     -10.716  -2.535   0.644  0.00  0.00    +0.013 A 
ENDBRANCH  27  30
ENDBRANCH   2  26
TORSDOF 7
