REMARK  Name = ZINC33812611
REMARK  11 active torsions:
REMARK  status: ('A' for Active; 'I' for Inactive)
REMARK    1  A    between atoms: C_1  and  C_2
REMARK    2  A    between atoms: C_2  and  C_3
REMARK    3  A    between atoms: C_3  and  N_4
REMARK    4  A    between atoms: C_5  and  N_30
REMARK    5  A    between atoms: C_6  and  C_14
REMARK    6  A    between atoms: C_7  and  C_13
REMARK    7  A    between atoms: C_8  and  C_11
REMARK    8  A    between atoms: N_18  and  C_22
REMARK    9  A    between atoms: C_22  and  C_23
REMARK   10  A    between atoms: C_23  and  C_24
REMARK   11  A    between atoms: N_33  and  C_36
REMARK                            x       y       z     vdW  Elec       q    Type
REMARK                         _______ _______ _______ _____ _____    ______ ____
ROOT
ATOM      1  N   UNL     1       1.002  -2.185   0.897  0.00  0.00    -0.295 N 
ATOM      2  C   UNL     1      -0.016  -2.748   1.598  0.00  0.00    +0.112 A 
ATOM      3  C   UNL     1       0.070  -4.080   2.035  0.00  0.00    +0.019 A 
ATOM      4  C   UNL     1       1.221  -4.831   1.740  0.00  0.00    -0.017 A 
ATOM      5  C   UNL     1       2.250  -4.231   1.019  0.00  0.00    +0.120 A 
ATOM      6  C   UNL     1       2.111  -2.884   0.597  0.00  0.00    +0.270 A 
ATOM      7  O   UNL     1       3.006  -2.355  -0.038  0.00  0.00    -0.266 OA
ATOM      8  C   UNL     1       1.340  -6.262   2.197  0.00  0.00    +0.046 C 
ENDROOT
BRANCH   3   9
ATOM      9  C   UNL     1      -1.029  -4.681   2.791  0.00  0.00    +0.032 C 
ATOM     10  C   UNL     1      -1.736  -5.715   2.259  0.00  0.00    +0.077 C 
ATOM     11  C   UNL     1      -2.802  -6.476   2.829  0.00  0.00    +0.258 C 
ATOM     12  O   UNL     1      -3.209  -6.241   3.953  0.00  0.00    -0.269 OA
ATOM     13  N   UNL     1      -3.333  -7.442   2.101  0.00  0.00    -0.255 N 
ATOM     14  C   UNL     1      -2.881  -7.702   0.854  0.00  0.00    +0.121 C 
ATOM     15  S   UNL     1      -3.416  -8.893  -0.254  0.00  0.00    -0.027 S 
ATOM     16  S   UNL     1      -1.590  -6.485   0.652  0.00  0.00    -0.061 S 
BRANCH  13  17
ATOM     17  C   UNL     1      -4.428  -8.244   2.653  0.00  0.00    +0.119 C 
BRANCH  17  18
ATOM     18  C   UNL     1      -5.766  -7.589   2.304  0.00  0.00    +0.054 C 
BRANCH  18  19
ATOM     19  C   UNL     1      -6.893  -8.413   2.872  0.00  0.00    -0.046 A 
ATOM     20  C   UNL     1      -7.452  -9.430   2.121  0.00  0.00    +0.004 A 
ATOM     21  C   UNL     1      -8.485 -10.186   2.643  0.00  0.00    +0.000 A 
ATOM     22  C   UNL     1      -8.959  -9.925   3.915  0.00  0.00    +0.000 A 
ATOM     23  C   UNL     1      -8.399  -8.909   4.666  0.00  0.00    +0.000 A 
ATOM     24  C   UNL     1      -7.363  -8.156   4.147  0.00  0.00    +0.004 A 
ENDBRANCH  18  19
ENDBRANCH  17  18
ENDBRANCH  13  17
ENDBRANCH   3   9
BRANCH   2  25
ATOM     25  N   UNL     1      -1.130  -2.014   1.881  0.00  0.00    -0.320 N 
ATOM     26  C   UNL     1      -2.306  -2.054   0.998  0.00  0.00    +0.088 C 
ATOM     27  C   UNL     1      -3.547  -2.328   1.854  0.00  0.00    -0.060 C 
ATOM     28  N   UNL     1      -3.629  -1.331   2.929  0.00  0.00    +0.380 N 
ATOM     29  C   UNL     1      -2.484  -1.477   3.836  0.00  0.00    -0.060 C 
ATOM     30  C   UNL     1      -1.192  -1.165   3.080  0.00  0.00    +0.088 C 
ATOM     31  C   UNL     1      -4.875  -1.526   3.682  0.00  0.00    -0.096 C 
ATOM     32  H   UNL     1      -3.623  -0.405   2.528  0.00  0.00    -0.082 HD
ENDBRANCH   2  25
BRANCH   5  33
ATOM     33  C   UNL     1       3.436  -4.969   0.703  0.00  0.00    +0.105 C 
ATOM     34  N   UNL     1       4.377  -5.554   0.452  0.00  0.00    -0.191 NA
ENDBRANCH   5  33
BRANCH   1  35
ATOM     35  C   UNL     1       0.886  -0.793   0.453  0.00  0.00    +0.126 C 
BRANCH  35  37
ATOM     36  C   UNL     1       0.240   0.695  -1.446  0.00  0.00    +0.005 C 
ATOM     37  C   UNL     1       0.361  -0.758  -0.983  0.00  0.00    +0.018 C 
ENDBRANCH  35  37
ENDBRANCH   1  35
TORSDOF 8
