REMARK  Name = ZINC13495163
REMARK  14 active torsions:
REMARK  status: ('A' for Active; 'I' for Inactive)
REMARK    1  A    between atoms: C_1  and  C_2
REMARK    2  A    between atoms: C_2  and  C_3
REMARK    3  A    between atoms: C_3  and  C_5
REMARK    4  A    between atoms: C_3  and  N_18
REMARK    5  A    between atoms: N_9  and  C_10
REMARK    6  A    between atoms: C_10  and  C_11
REMARK    7  A    between atoms: C_11  and  C_12
REMARK    8  A    between atoms: N_18  and  C_19
REMARK    9  A    between atoms: N_18  and  C_28
REMARK   10  A    between atoms: C_19  and  C_20
REMARK   11  A    between atoms: C_23  and  O_26
REMARK   12  A    between atoms: O_26  and  C_27
REMARK   13  A    between atoms: C_28  and  C_29
REMARK   14  A    between atoms: C_33  and  C_41
REMARK                            x       y       z     vdW  Elec       q    Type
REMARK                         _______ _______ _______ _____ _____    ______ ____
ROOT
ATOM      1  N   UNL     1       1.784   0.587  -0.392  0.00  0.00    -0.284 NA
ENDROOT
BRANCH   1   2
ATOM      2  C   UNL     1       0.476  -0.036  -0.635  0.00  0.00    +0.127 C 
BRANCH   2   3
ATOM      3  C   UNL     1      -0.558   0.605   0.255  0.00  0.00    +0.168 A 
ATOM      4  N   UNL     1      -0.739   1.889   0.445  0.00  0.00    -0.112 NA
ATOM      5  N   UNL     1      -1.716   2.035   1.271  0.00  0.00    -0.023 NA
ATOM      6  N   UNL     1      -2.164   0.878   1.613  0.00  0.00    -0.044 NA
ATOM      7  N   UNL     1      -1.480  -0.030   1.002  0.00  0.00    -0.227 N 
BRANCH   7   8
ATOM      8  C   UNL     1      -1.667  -1.479   1.107  0.00  0.00    +0.152 C 
BRANCH   8   9
ATOM      9  C   UNL     1      -0.969  -1.994   2.366  0.00  0.00    +0.058 C 
BRANCH   9  10
ATOM     10  C   UNL     1      -1.250  -3.466   2.531  0.00  0.00    -0.046 A 
ATOM     11  C   UNL     1      -2.356  -3.882   3.247  0.00  0.00    +0.004 A 
ATOM     12  C   UNL     1      -2.614  -5.232   3.398  0.00  0.00    +0.000 A 
ATOM     13  C   UNL     1      -1.767  -6.165   2.832  0.00  0.00    +0.000 A 
ATOM     14  C   UNL     1      -0.661  -5.749   2.114  0.00  0.00    +0.000 A 
ATOM     15  C   UNL     1      -0.405  -4.399   1.960  0.00  0.00    +0.004 A 
ENDBRANCH   9  10
ENDBRANCH   8   9
ENDBRANCH   7   8
ENDBRANCH   2   3
BRANCH   2  17
ATOM     16  C   UNL     1       1.113  -0.521  -3.001  0.00  0.00    +0.006 C 
ATOM     17  C   UNL     1       0.081   0.161  -2.100  0.00  0.00    +0.023 C 
ENDBRANCH   2  17
ENDBRANCH   1   2
BRANCH   1  18
ATOM     18  C   UNL     1       2.361   0.123   0.877  0.00  0.00    +0.120 C 
BRANCH  18  19
ATOM     19  C   UNL     1       2.956  -1.248   0.686  0.00  0.00    -0.033 A 
ATOM     20  C   UNL     1       2.154  -2.369   0.794  0.00  0.00    +0.008 A 
ATOM     21  C   UNL     1       2.697  -3.627   0.620  0.00  0.00    +0.046 A 
ATOM     22  C   UNL     1       4.048  -3.765   0.337  0.00  0.00    +0.120 A 
ATOM     23  C   UNL     1       4.851  -2.639   0.229  0.00  0.00    +0.046 A 
ATOM     24  C   UNL     1       4.302  -1.383   0.398  0.00  0.00    +0.008 A 
BRANCH  22  25
ATOM     25  O   UNL     1       4.585  -5.002   0.166  0.00  0.00    -0.495 OA
ATOM     26  C   UNL     1       6.001  -5.076  -0.014  0.00  0.00    +0.277 C 
ENDBRANCH  22  25
ENDBRANCH  18  19
ENDBRANCH   1  18
BRANCH   1  27
ATOM     27  C   UNL     1       1.683   2.053  -0.420  0.00  0.00    +0.126 C 
BRANCH  27  28
ATOM     28  C   UNL     1       3.056   2.648  -0.593  0.00  0.00    +0.031 A 
ATOM     29  C   UNL     1       3.514   2.939  -1.836  0.00  0.00    +0.020 A 
ATOM     30  C   UNL     1       4.852   3.517  -1.971  0.00  0.00    -0.001 A 
ATOM     31  C   UNL     1       5.378   3.839  -3.227  0.00  0.00    +0.013 A 
ATOM     32  C   UNL     1       6.630   4.378  -3.318  0.00  0.00    -0.050 A 
ATOM     33  C   UNL     1       7.385   4.609  -2.176  0.00  0.00    +0.005 A 
ATOM     34  C   UNL     1       6.887   4.299  -0.929  0.00  0.00    +0.026 A 
ATOM     35  C   UNL     1       5.614   3.751  -0.811  0.00  0.00    +0.049 A 
ATOM     36  N   UNL     1       5.091   3.432   0.424  0.00  0.00    -0.322 N 
ATOM     37  H   UNL     1       5.617   3.594   1.222  0.00  0.00    +0.169 HD
ATOM     38  C   UNL     1       3.859   2.907   0.538  0.00  0.00    +0.254 A 
ATOM     39  O   UNL     1       3.426   2.642   1.647  0.00  0.00    -0.268 OA
ATOM     40  C   UNL     1       7.197   4.724  -4.671  0.00  0.00    +0.044 C 
ENDBRANCH  27  28
ENDBRANCH   1  27
TORSDOF 11
