REMARK  Name = ZINC06166389
REMARK  13 active torsions:
REMARK  status: ('A' for Active; 'I' for Inactive)
REMARK    1  A    between atoms: C_1  and  C_2
REMARK    2  A    between atoms: C_2  and  C_3
REMARK    3  A    between atoms: C_3  and  C_4
REMARK    4  A    between atoms: C_4  and  O_5
REMARK    5  A    between atoms: O_5  and  C_6
REMARK    6  A    between atoms: C_9  and  C_14
REMARK    7  A    between atoms: C_11  and  O_12
REMARK    8  A    between atoms: O_12  and  C_13
REMARK    9  A    between atoms: N_15  and  N_16
REMARK   10  A    between atoms: C_17  and  C_19
REMARK   11  A    between atoms: C_19  and  C_21
REMARK   12  A    between atoms: C_19  and  N_22
REMARK   13  A    between atoms: C_33  and  C_37
REMARK                            x       y       z     vdW  Elec       q    Type
REMARK                         _______ _______ _______ _____ _____    ______ ____
ROOT
ATOM      1  N   UNL     1       1.222  -6.284  -0.044  0.00  0.00    -0.205 N 
ATOM      2  C   UNL     1       2.400  -6.938  -0.059  0.00  0.00    +0.255 C 
ATOM      3  O   UNL     1       3.440  -6.315  -0.065  0.00  0.00    -0.272 OA
ATOM      4  H   UNL     1       0.390  -6.782  -0.039  0.00  0.00    +0.177 HD
ENDROOT
BRANCH   1   6
ATOM      5  C   UNL     1       0.065  -4.252  -0.022  0.00  0.00    +0.138 C 
ATOM      6  N   UNL     1       1.199  -4.883  -0.036  0.00  0.00    -0.188 NA
BRANCH   5  10
ATOM      7  C   UNL     1       0.002  -0.004   0.002  0.00  0.00    +0.162 A 
ATOM      8  C   UNL     1       1.214  -0.679  -0.019  0.00  0.00    +0.050 A 
ATOM      9  C   UNL     1       1.238  -2.058  -0.021  0.00  0.00    +0.013 A 
ATOM     10  C   UNL     1       0.041  -2.778  -0.013  0.00  0.00    -0.002 A 
ATOM     11  C   UNL     1      -1.179  -2.097   0.002  0.00  0.00    +0.059 A 
ATOM     12  C   UNL     1      -1.196  -0.715   0.010  0.00  0.00    +0.162 A 
BRANCH  12  13
ATOM     13  O   UNL     1      -2.382  -0.050   0.025  0.00  0.00    -0.491 OA
ATOM     14  C   UNL     1      -3.571  -0.842   0.032  0.00  0.00    +0.277 C 
ENDBRANCH  12  13
BRANCH   7  15
ATOM     15  O   UNL     1      -0.016   1.355   0.009  0.00  0.00    -0.488 OA
BRANCH  15  16
ATOM     16  C   UNL     1       1.248   2.021   0.001  0.00  0.00    +0.229 C 
BRANCH  16  17
ATOM     17  C   UNL     1       1.027   3.535   0.011  0.00  0.00    +0.041 C 
BRANCH  17  19
ATOM     18  C   UNL     1       2.159   5.762   0.012  0.00  0.00    +0.004 C 
ATOM     19  C   UNL     1       2.381   4.248   0.002  0.00  0.00    -0.000 C 
ENDBRANCH  17  19
ENDBRANCH  16  17
ENDBRANCH  15  16
ENDBRANCH   7  15
ENDBRANCH   5  10
ENDBRANCH   1   6
BRANCH   2  20
ATOM     20  C   UNL     1       2.424  -8.445  -0.068  0.00  0.00    +0.176 C 
ATOM     21  C   UNL     1       1.699  -8.960  -1.313  0.00  0.00    +0.041 C 
BRANCH  20  22
ATOM     22  N   UNL     1       3.813  -8.911  -0.084  0.00  0.00    -0.287 N 
ATOM     23  C   UNL     1       4.620  -8.560  -1.117  0.00  0.00    +0.204 A 
ATOM     24  N   UNL     1       5.865  -8.952  -1.166  0.00  0.00    -0.230 NA
ATOM     25  C   UNL     1       6.380  -9.716  -0.206  0.00  0.00    +0.116 A 
ATOM     26  C   UNL     1       5.621 -10.134   0.899  0.00  0.00    +0.076 A 
ATOM     27  C   UNL     1       4.261  -9.683   0.924  0.00  0.00    +0.263 A 
ATOM     28  O   UNL     1       3.522  -9.993   1.843  0.00  0.00    -0.267 OA
ATOM     29  C   UNL     1       6.318 -10.971   1.874  0.00  0.00    -0.023 A 
ATOM     30  C   UNL     1       7.612 -11.258   1.621  0.00  0.00    -0.004 A 
ATOM     31  S   UNL     1       7.972 -10.441   0.089  0.00  0.00    -0.073 S 
ATOM     32  C   UNL     1       8.539 -12.088   2.456  0.00  0.00    +0.046 C 
ATOM     33  C   UNL     1       7.908 -12.269   3.844  0.00  0.00    -0.009 C 
ATOM     34  C   UNL     1       6.445 -12.685   3.669  0.00  0.00    +0.008 C 
ATOM     35  C   UNL     1       5.632 -11.508   3.127  0.00  0.00    +0.037 C 
ATOM     36  C   UNL     1       8.661 -13.354   4.616  0.00  0.00    +0.008 C 
ENDBRANCH  20  22
ENDBRANCH   2  20
TORSDOF 9
