REMARK  Name = ZINC04574842
REMARK  6 active torsions:
REMARK  status: ('A' for Active; 'I' for Inactive)
REMARK    1  A    between atoms: C_1  and  C_2
REMARK    2  A    between atoms: C_3  and  C_28
REMARK    3  A    between atoms: C_4  and  C_21
REMARK    4  A    between atoms: C_10  and  S_12
REMARK    5  A    between atoms: S_12  and  C_13
REMARK    6  A    between atoms: C_13  and  C_14
REMARK                            x       y       z     vdW  Elec       q    Type
REMARK                         _______ _______ _______ _____ _____    ______ ____
ROOT
ATOM      1  C   UNL     1       0.639   1.236   0.151  0.00  0.00    +0.064 C 
ATOM      2  C   UNL     1       0.388  -0.247   0.058  0.00  0.00    +0.026 C 
ATOM      3  C   UNL     1      -0.884  -0.690  -0.181  0.00  0.00    +0.059 C 
ATOM      4  C   UNL     1      -1.090  -2.192  -0.268  0.00  0.00    +0.166 C 
ATOM      5  N   UNL     1       0.108  -3.020  -0.085  0.00  0.00    -0.187 N 
ATOM      6  C   UNL     1       1.314  -2.402   0.148  0.00  0.00    +0.217 C 
ATOM      7  N   UNL     1       1.405  -1.081   0.203  0.00  0.00    -0.330 N 
ATOM      8  N   UNL     1       2.239  -3.363   0.279  0.00  0.00    -0.190 NA
ATOM      9  C   UNL     1       1.685  -4.555   0.141  0.00  0.00    +0.197 C 
ATOM     10  N   UNL     1       0.346  -4.397  -0.089  0.00  0.00    -0.118 NA
ATOM     11  H   UNL     1       2.281  -0.697   0.367  0.00  0.00    +0.168 HD
ENDROOT
BRANCH   4  12
ATOM     12  C   UNL     1      -1.673  -2.509  -1.621  0.00  0.00    -0.021 A 
ATOM     13  C   UNL     1      -0.889  -2.397  -2.754  0.00  0.00    +0.008 A 
ATOM     14  C   UNL     1      -1.422  -2.687  -3.995  0.00  0.00    +0.038 A 
ATOM     15  C   UNL     1      -2.741  -3.091  -4.104  0.00  0.00    +0.123 A 
ATOM     16  C   UNL     1      -3.526  -3.204  -2.969  0.00  0.00    +0.038 A 
ATOM     17  C   UNL     1      -2.989  -2.918  -1.728  0.00  0.00    +0.008 A 
ATOM     18  F   UNL     1      -3.264  -3.375  -5.317  0.00  0.00    -0.205 F 
ENDBRANCH   4  12
BRANCH   3  19
ATOM     19  C   UNL     1      -1.955   0.206  -0.339  0.00  0.00    +0.241 C 
ATOM     20  O   UNL     1      -1.744   1.406  -0.379  0.00  0.00    -0.271 OA
ATOM     21  N   UNL     1      -3.215  -0.261  -0.445  0.00  0.00    -0.325 N 
ATOM     22  H   UNL     1      -3.391  -1.208  -0.336  0.00  0.00    +0.145 HD
ATOM     23  H   UNL     1      -3.944   0.351  -0.631  0.00  0.00    +0.145 HD
ENDBRANCH   3  19
BRANCH   9  24
ATOM     24  S   UNL     1       2.533  -6.096   0.238  0.00  0.00    -0.082 S 
BRANCH  24  25
ATOM     25  C   UNL     1       4.257  -5.629   0.558  0.00  0.00    +0.113 C 
BRANCH  25  26
ATOM     26  C   UNL     1       5.103  -6.872   0.665  0.00  0.00    -0.019 A 
ATOM     27  C   UNL     1       5.278  -7.485   1.891  0.00  0.00    +0.006 A 
ATOM     28  C   UNL     1       6.054  -8.625   1.990  0.00  0.00    +0.000 A 
ATOM     29  C   UNL     1       6.654  -9.152   0.862  0.00  0.00    +0.001 A 
ATOM     30  C   UNL     1       6.479  -8.540  -0.365  0.00  0.00    +0.020 A 
ATOM     31  C   UNL     1       5.699  -7.402  -0.465  0.00  0.00    +0.045 A 
ATOM     32 CL   UNL     1       5.473  -6.637  -2.006  0.00  0.00    -0.083 Cl
ENDBRANCH  25  26
ENDBRANCH  24  25
ENDBRANCH   9  24
TORSDOF 5
