REMARK  Name = ZINC24952051
REMARK  14 active torsions:
REMARK  status: ('A' for Active; 'I' for Inactive)
REMARK    1  A    between atoms: C_1  and  C_2
REMARK    2  A    between atoms: C_2  and  C_3
REMARK    3  A    between atoms: C_3  and  C_5
REMARK    4  A    between atoms: C_3  and  N_32
REMARK    5  A    between atoms: C_8  and  S_17
REMARK    6  A    between atoms: N_9  and  C_10
REMARK    7  A    between atoms: C_10  and  C_11
REMARK    8  A    between atoms: S_17  and  C_18
REMARK    9  A    between atoms: C_18  and  C_19
REMARK   10  A    between atoms: N_21  and  C_22
REMARK   11  A    between atoms: C_27  and  S_28
REMARK   12  A    between atoms: S_28  and  C_29
REMARK   13  A    between atoms: N_32  and  C_33
REMARK   14  A    between atoms: N_32  and  C_34
REMARK                            x       y       z     vdW  Elec       q    Type
REMARK                         _______ _______ _______ _____ _____    ______ ____
ROOT
ATOM      1  C   UNL     1       0.017  -0.385   0.021  0.00  0.00    +0.121 A 
ATOM      2  N   UNL     1      -0.049   0.912  -0.081  0.00  0.00    -0.135 NA
ATOM      3  N   UNL     1       1.133   1.416  -0.072  0.00  0.00    -0.123 NA
ATOM      4  C   UNL     1       2.025   0.459   0.036  0.00  0.00    +0.192 A 
ATOM      5  N   UNL     1       1.340  -0.721   0.098  0.00  0.00    -0.303 N 
ENDROOT
BRANCH   1   6
ATOM      6  C   UNL     1      -1.150  -1.339   0.046  0.00  0.00    +0.000 C 
BRANCH   6   7
ATOM      7  N   UNL     1      -2.128  -0.890   1.046  0.00  0.00    +0.383 N 
ATOM      8  C   UNL     1      -1.524  -0.832   2.384  0.00  0.00    -0.096 C 
ATOM      9  C   UNL     1      -2.705   0.408   0.672  0.00  0.00    -0.096 C 
ATOM     10  H   UNL     1      -2.944  -1.627   1.076  0.00  0.00    -0.082 HD
ENDBRANCH   6   7
BRANCH   6  12
ATOM     11  C   UNL     1      -2.915  -2.433  -1.343  0.00  0.00    +0.002 C 
ATOM     12  C   UNL     1      -1.811  -1.374  -1.333  0.00  0.00    -0.011 C 
ENDBRANCH   6  12
ENDBRANCH   1   6
BRANCH   5  13
ATOM     13  C   UNL     1       1.905  -2.066   0.224  0.00  0.00    +0.160 C 
BRANCH  13  14
ATOM     14  C   UNL     1       2.155  -2.636  -1.149  0.00  0.00    -0.028 A 
ATOM     15  C   UNL     1       1.168  -3.366  -1.784  0.00  0.00    +0.005 A 
ATOM     16  C   UNL     1       1.395  -3.885  -3.046  0.00  0.00    +0.000 A 
ATOM     17  C   UNL     1       2.613  -3.682  -3.667  0.00  0.00    +0.000 A 
ATOM     18  C   UNL     1       3.602  -2.956  -3.030  0.00  0.00    +0.000 A 
ATOM     19  C   UNL     1       3.373  -2.433  -1.771  0.00  0.00    +0.005 A 
ENDBRANCH  13  14
ENDBRANCH   5  13
BRANCH   4  20
ATOM     20  S   UNL     1       3.775   0.658   0.089  0.00  0.00    -0.077 S 
BRANCH  20  21
ATOM     21  C   UNL     1       3.890   2.460  -0.043  0.00  0.00    +0.173 C 
BRANCH  21  22
ATOM     22  C   UNL     1       5.339   2.873  -0.018  0.00  0.00    +0.228 C 
ATOM     23  O   UNL     1       6.208   2.033   0.080  0.00  0.00    -0.275 OA
ATOM     24  N   UNL     1       5.669   4.177  -0.104  0.00  0.00    -0.284 N 
ATOM     25  H   UNL     1       4.886   4.934  -0.262  0.00  0.00    +0.155 HD
BRANCH  24  26
ATOM     26  C   UNL     1       7.010   4.570   0.008  0.00  0.00    +0.047 A 
ATOM     27  C   UNL     1       8.016   3.756  -0.490  0.00  0.00    +0.024 A 
ATOM     28  C   UNL     1       9.338   4.148  -0.383  0.00  0.00    +0.002 A 
ATOM     29  C   UNL     1       9.662   5.345   0.229  0.00  0.00    +0.001 A 
ATOM     30  C   UNL     1       8.666   6.159   0.734  0.00  0.00    +0.017 A 
ATOM     31  C   UNL     1       7.336   5.777   0.627  0.00  0.00    +0.034 A 
BRANCH  31  32
ATOM     32  S   UNL     1       6.064   6.813   1.270  0.00  0.00    -0.054 S 
BRANCH  32  33
ATOM     33  C   UNL     1       6.960   8.232   1.959  0.00  0.00    +0.404 C 
ATOM     34  F   UNL     1       7.835   7.790   2.957  0.00  0.00    -0.197 F 
ATOM     35  F   UNL     1       7.689   8.861   0.944  0.00  0.00    -0.197 F 
ENDBRANCH  32  33
ENDBRANCH  31  32
ENDBRANCH  24  26
ENDBRANCH  21  22
ENDBRANCH  20  21
ENDBRANCH   4  20
TORSDOF 11
