REMARK  Name = ZINC03455024
REMARK  9 active torsions:
REMARK  status: ('A' for Active; 'I' for Inactive)
REMARK    1  A    between atoms: N_9  and  C_28
REMARK    2  A    between atoms: C_10  and  S_12
REMARK    3  A    between atoms: S_12  and  C_13
REMARK    4  A    between atoms: C_13  and  C_14
REMARK    5  A    between atoms: N_16  and  C_17
REMARK    6  A    between atoms: C_18  and  C_25
REMARK    7  A    between atoms: C_28  and  C_29
REMARK    8  A    between atoms: C_29  and  C_30
REMARK    9  A    between atoms: C_30  and  O_31
REMARK                            x       y       z     vdW  Elec       q    Type
REMARK                         _______ _______ _______ _____ _____    ______ ____
ROOT
ATOM      1  C   UNL     1      -3.801  -1.496   0.033  0.00  0.00    +0.173 C 
ENDROOT
BRANCH   1   2
ATOM      2  C   UNL     1      -5.219  -2.005   0.045  0.00  0.00    +0.228 C 
ATOM      3  O   UNL     1      -5.434  -3.199   0.041  0.00  0.00    -0.275 OA
ATOM      4  N   UNL     1      -6.248  -1.135   0.060  0.00  0.00    -0.279 N 
ATOM      5  H   UNL     1      -6.076  -0.180   0.063  0.00  0.00    +0.155 HD
BRANCH   4   6
ATOM      6  C   UNL     1      -7.553  -1.604   0.070  0.00  0.00    +0.084 A 
ATOM      7  C   UNL     1      -8.729  -0.875   0.092  0.00  0.00    +0.068 A 
ATOM      8  C   UNL     1      -9.988  -1.619   0.095  0.00  0.00    -0.023 A 
ATOM      9  C   UNL     1      -9.859  -2.958   0.087  0.00  0.00    -0.004 A 
ATOM     10  S   UNL     1      -8.106  -3.244   0.068  0.00  0.00    -0.077 S 
ATOM     11  C   UNL     1     -11.194  -3.653   0.094  0.00  0.00    +0.043 C 
ATOM     12  C   UNL     1     -12.203  -2.563  -0.329  0.00  0.00    +0.010 C 
ATOM     13  C   UNL     1     -11.478  -1.276   0.114  0.00  0.00    +0.037 C 
BRANCH   7  14
ATOM     14  C   UNL     1      -8.714   0.591   0.106  0.00  0.00    +0.244 C 
ATOM     15  O   UNL     1      -8.720   1.210  -0.942  0.00  0.00    -0.270 OA
ATOM     16  N   UNL     1      -8.692   1.254   1.280  0.00  0.00    -0.325 N 
ATOM     17  H   UNL     1      -8.687   0.760   2.115  0.00  0.00    +0.145 HD
ATOM     18  H   UNL     1      -8.682   2.223   1.289  0.00  0.00    +0.145 HD
ENDBRANCH   7  14
ENDBRANCH   4   6
ENDBRANCH   1   2
BRANCH   1  19
ATOM     19  S   UNL     1      -2.656  -2.897   0.014  0.00  0.00    -0.078 S 
BRANCH  19  29
ATOM     20  C   UNL     1       2.381   1.422  -0.013  0.00  0.00    +0.001 A 
ATOM     21  C   UNL     1       1.161   2.086   0.002  0.00  0.00    +0.002 A 
ATOM     22  C   UNL     1      -0.017   1.394   0.010  0.00  0.00    +0.028 A 
ATOM     23  C   UNL     1       0.002  -0.004   0.002  0.00  0.00    +0.079 A 
ATOM     24  C   UNL     1       1.245  -0.677  -0.013  0.00  0.00    +0.065 A 
ATOM     25  C   UNL     1       2.432   0.055  -0.021  0.00  0.00    +0.015 A 
ATOM     26  C   UNL     1       1.239  -2.146  -0.021  0.00  0.00    +0.262 A 
ATOM     27  O   UNL     1       2.277  -2.782  -0.034  0.00  0.00    -0.267 OA
ATOM     28  N   UNL     1       0.036  -2.766  -0.012  0.00  0.00    -0.287 N 
ATOM     29  C   UNL     1      -1.119  -2.036   0.003  0.00  0.00    +0.173 A 
ATOM     30  N   UNL     1      -1.136  -0.726   0.009  0.00  0.00    -0.223 NA
BRANCH  28  31
ATOM     31  C   UNL     1      -0.028  -4.229  -0.019  0.00  0.00    +0.129 C 
BRANCH  31  32
ATOM     32  C   UNL     1      -0.037  -4.746   1.421  0.00  0.00    +0.049 C 
BRANCH  32  33
ATOM     33  C   UNL     1      -0.104  -6.275   1.414  0.00  0.00    +0.157 C 
BRANCH  33  34
ATOM     34  O   UNL     1      -0.112  -6.757   2.759  0.00  0.00    -0.395 OA
ATOM     35  H   UNL     1      -0.153  -7.721   2.831  0.00  0.00    +0.209 HD
ENDBRANCH  33  34
ENDBRANCH  32  33
ENDBRANCH  31  32
ENDBRANCH  28  31
ENDBRANCH  19  29
ENDBRANCH   1  19
TORSDOF 9
