REMARK  Name = ZINC66208468
REMARK  8 active torsions:
REMARK  status: ('A' for Active; 'I' for Inactive)
REMARK    1  A    between atoms: C_1  and  C_2
REMARK    2  A    between atoms: C_6  and  N_8
REMARK    3  A    between atoms: N_8  and  C_9
REMARK    4  A    between atoms: C_10  and  C_12
REMARK    5  A    between atoms: N_14  and  C_15
REMARK    6  A    between atoms: C_15  and  C_16
REMARK    7  A    between atoms: C_20  and  C_22
REMARK    8  A    between atoms: C_22  and  N_23
REMARK                            x       y       z     vdW  Elec       q    Type
REMARK                         _______ _______ _______ _____ _____    ______ ____
ROOT
ATOM      1  C   UNL     1      -0.180  -5.077   3.389  0.00  0.00    +0.300 C 
ATOM      2  O   UNL     1      -0.091  -4.634   4.516  0.00  0.00    -0.265 OA
ATOM      3  N   UNL     1      -0.389  -6.394   3.197  0.00  0.00    -0.303 N 
ATOM      4  H   UNL     1      -0.459  -6.747   2.296  0.00  0.00    +0.149 HD
ENDROOT
BRANCH   1   7
ATOM      5  N   UNL     1       0.067  -2.832   2.408  0.00  0.00    -0.267 N 
ATOM      6  C   UNL     1       0.213  -2.299   3.764  0.00  0.00    +0.139 C 
ATOM      7  C   UNL     1      -0.057  -4.161   2.216  0.00  0.00    +0.305 C 
ATOM      8  O   UNL     1      -0.069  -4.612   1.089  0.00  0.00    -0.265 OA
BRANCH   5  14
ATOM      9  C   UNL     1      -0.006   1.756   0.648  0.00  0.00    +0.044 C 
ATOM     10  C   UNL     1       0.020   0.265   0.430  0.00  0.00    -0.049 A 
ATOM     11  C   UNL     1       0.033  -0.245  -0.855  0.00  0.00    +0.003 A 
ATOM     12  C   UNL     1       0.057  -1.612  -1.059  0.00  0.00    +0.002 A 
ATOM     13  C   UNL     1       0.069  -2.473   0.021  0.00  0.00    +0.023 A 
ATOM     14  C   UNL     1       0.056  -1.964   1.313  0.00  0.00    +0.037 A 
ATOM     15  C   UNL     1       0.037  -0.590   1.514  0.00  0.00    +0.027 A 
ENDBRANCH   5  14
ENDBRANCH   1   7
BRANCH   3  16
ATOM     16  C   UNL     1      -0.509  -7.292   4.348  0.00  0.00    +0.140 C 
BRANCH  16  17
ATOM     17  C   UNL     1      -0.737  -8.701   3.863  0.00  0.00    -0.030 A 
ATOM     18  C   UNL     1      -2.024  -9.161   3.656  0.00  0.00    +0.005 A 
ATOM     19  C   UNL     1      -2.233 -10.453   3.212  0.00  0.00    +0.001 A 
ATOM     20  C   UNL     1      -1.155 -11.286   2.975  0.00  0.00    +0.005 A 
ATOM     21  C   UNL     1       0.132 -10.825   3.181  0.00  0.00    -0.027 A 
ATOM     22  C   UNL     1       0.341  -9.532   3.621  0.00  0.00    +0.010 A 
BRANCH  21  23
ATOM     23  C   UNL     1       1.307 -11.733   2.923  0.00  0.00    +0.157 C 
BRANCH  23  24
ATOM     24  N   UNL     1       1.740 -11.587   1.531  0.00  0.00    -0.332 N 
ATOM     25  C   UNL     1       1.287 -12.309   0.459  0.00  0.00    +0.107 A 
ATOM     26  C   UNL     1       1.945 -11.853  -0.624  0.00  0.00    +0.130 A 
ATOM     27  N   UNL     1       2.777 -10.879  -0.224  0.00  0.00    -0.244 NA
ATOM     28  C   UNL     1       2.656 -10.711   1.064  0.00  0.00    +0.199 A 
ENDBRANCH  23  24
ENDBRANCH  21  23
ENDBRANCH  16  17
ENDBRANCH   3  16
TORSDOF 6
