REMARK  Name = ZINC38692529
REMARK  9 active torsions:
REMARK  status: ('A' for Active; 'I' for Inactive)
REMARK    1  A    between atoms: C_1  and  C_2
REMARK    2  A    between atoms: C_2  and  C_3
REMARK    3  A    between atoms: C_2  and  C_4
REMARK    4  A    between atoms: C_13  and  N_16
REMARK    5  A    between atoms: N_19  and  C_20
REMARK    6  A    between atoms: C_23  and  C_26
REMARK    7  A    between atoms: C_26  and  C_27
REMARK    8  A    between atoms: C_26  and  C_28
REMARK    9  A    between atoms: C_26  and  C_29
REMARK                            x       y       z     vdW  Elec       q    Type
REMARK                         _______ _______ _______ _____ _____    ______ ____
ROOT
ATOM      1  N   UNL     1      -5.643  -2.835   1.556  0.00  0.00    -0.269 N 
ATOM      2  C   UNL     1      -6.824  -2.698   2.189  0.00  0.00    +0.308 C 
ATOM      3  O   UNL     1      -7.641  -1.893   1.786  0.00  0.00    -0.252 OA
ATOM      4  N   UNL     1      -7.100  -3.454   3.270  0.00  0.00    -0.269 N 
ATOM      5  H   UNL     1      -5.018  -3.522   1.837  0.00  0.00    +0.156 HD
ATOM      6  H   UNL     1      -6.422  -4.043   3.637  0.00  0.00    +0.156 HD
ENDROOT
BRANCH   1  16
ATOM      7  C   UNL     1      -1.450  -0.517   0.064  0.00  0.00    +0.222 C 
ATOM      8  O   UNL     1      -1.775  -1.084   1.086  0.00  0.00    -0.275 OA
ATOM      9  N   UNL     1      -2.353  -0.326  -0.918  0.00  0.00    -0.271 N 
ATOM     10  C   UNL     1      -1.958   0.307  -2.183  0.00  0.00    +0.114 C 
ATOM     11  C   UNL     1      -3.035   1.337  -2.548  0.00  0.00    +0.024 C 
ATOM     12  C   UNL     1      -4.358   0.607  -2.782  0.00  0.00    +0.038 C 
ATOM     13  C   UNL     1      -4.674  -0.298  -1.621  0.00  0.00    -0.026 A 
ATOM     14  C   UNL     1      -3.684  -0.732  -0.750  0.00  0.00    +0.041 A 
ATOM     15  C   UNL     1      -4.005  -1.575   0.307  0.00  0.00    +0.047 A 
ATOM     16  C   UNL     1      -5.316  -1.986   0.492  0.00  0.00    +0.037 A 
ATOM     17  C   UNL     1      -6.305  -1.552  -0.382  0.00  0.00    +0.024 A 
ATOM     18  C   UNL     1      -5.984  -0.706  -1.428  0.00  0.00    +0.007 A 
BRANCH   7  20
ATOM     19  C   UNL     1       0.010   1.487   0.107  0.00  0.00    +0.017 C 
ATOM     20  C   UNL     1      -0.035  -0.027  -0.108  0.00  0.00    +0.069 C 
ATOM     21  C   UNL     1       0.871  -0.715   0.914  0.00  0.00    +0.017 C 
ENDBRANCH   7  20
ENDBRANCH   1  16
BRANCH   4  22
ATOM     22  C   UNL     1      -8.366  -3.389   3.865  0.00  0.00    +0.035 A 
ATOM     23  C   UNL     1      -8.497  -3.533   5.240  0.00  0.00    +0.023 A 
ATOM     24  C   UNL     1      -9.747  -3.468   5.823  0.00  0.00    +0.006 A 
ATOM     25  C   UNL     1     -10.867  -3.260   5.040  0.00  0.00    -0.042 A 
ATOM     26  C   UNL     1     -10.740  -3.117   3.670  0.00  0.00    +0.006 A 
ATOM     27  C   UNL     1      -9.492  -3.176   3.081  0.00  0.00    +0.023 A 
BRANCH  25  28
ATOM     28  C   UNL     1     -12.230  -3.190   5.680  0.00  0.00    -0.013 C 
ATOM     29  C   UNL     1     -12.262  -2.038   6.686  0.00  0.00    +0.015 C 
ATOM     30  C   UNL     1     -13.289  -2.955   4.601  0.00  0.00    +0.015 C 
ATOM     31  C   UNL     1     -12.522  -4.506   6.403  0.00  0.00    +0.015 C 
ENDBRANCH  25  28
ENDBRANCH   4  22
TORSDOF 4
