REMARK  Name = ZINC12495486
REMARK  7 active torsions:
REMARK  status: ('A' for Active; 'I' for Inactive)
REMARK    1  A    between atoms: C_1  and  C_2
REMARK    2  A    between atoms: N_4  and  C_5
REMARK    3  A    between atoms: N_4  and  C_6
REMARK    4  A    between atoms: C_9  and  N_12
REMARK    5  A    between atoms: N_12  and  C_13
REMARK    6  A    between atoms: C_13  and  N_15
REMARK    7  A    between atoms: C_16  and  C_18
REMARK                            x       y       z     vdW  Elec       q    Type
REMARK                         _______ _______ _______ _____ _____    ______ ____
ROOT
ATOM      1  N   UNL     1      -1.139   2.234  -0.429  0.00  0.00    -0.297 N 
ATOM      2  H   UNL     1      -0.797   2.383  -1.325  0.00  0.00    +0.154 HD
ENDROOT
BRANCH   1   6
ATOM      3  C   UNL     1      -4.603  -0.017   0.133  0.00  0.00    +0.036 A 
ATOM      4  C   UNL     1      -4.460   1.209   0.770  0.00  0.00    +0.025 A 
ATOM      5  C   UNL     1      -3.313   1.954   0.584  0.00  0.00    +0.025 A 
ATOM      6  C   UNL     1      -2.302   1.478  -0.240  0.00  0.00    +0.033 A 
ATOM      7  C   UNL     1      -2.448   0.256  -0.883  0.00  0.00    +0.025 A 
ATOM      8  C   UNL     1      -3.592  -0.493  -0.691  0.00  0.00    +0.025 A 
BRANCH   3  12
ATOM      9  C   UNL     1      -6.920  -2.894   0.861  0.00  0.00    +0.109 C 
ATOM     10  C   UNL     1      -5.680  -2.101   0.537  0.00  0.00    +0.216 C 
ATOM     11  O   UNL     1      -4.604  -2.657   0.471  0.00  0.00    -0.276 OA
ATOM     12  N   UNL     1      -5.767  -0.773   0.322  0.00  0.00    -0.275 N 
ATOM     13  C   UNL     1      -7.079  -0.121   0.286  0.00  0.00    +0.138 C 
ENDBRANCH   3  12
ENDBRANCH   1   6
BRANCH   1  14
ATOM     14  C   UNL     1      -0.494   2.755   0.633  0.00  0.00    +0.141 C 
ATOM     15  S   UNL     1      -1.168   2.607   2.200  0.00  0.00    -0.018 S 
BRANCH  14  16
ATOM     16  N   UNL     1       0.684   3.387   0.463  0.00  0.00    -0.264 N 
ATOM     17  C   UNL     1       1.332   3.903   1.527  0.00  0.00    +0.251 C 
ATOM     18  O   UNL     1       0.853   3.799   2.639  0.00  0.00    -0.270 OA
ATOM     19  H   UNL     1       1.066   3.471  -0.424  0.00  0.00    +0.157 HD
BRANCH  17  20
ATOM     20  C   UNL     1       2.623   4.596   1.340  0.00  0.00    +0.050 A 
ATOM     21  C   UNL     1       3.178   4.714   0.064  0.00  0.00    +0.014 A 
ATOM     22  C   UNL     1       4.382   5.366  -0.103  0.00  0.00    +0.001 A 
ATOM     23  C   UNL     1       5.044   5.895   0.991  0.00  0.00    +0.001 A 
ATOM     24  C   UNL     1       4.503   5.779   2.258  0.00  0.00    +0.015 A 
ATOM     25  C   UNL     1       3.297   5.132   2.440  0.00  0.00    +0.025 A 
ATOM     26  I   UNL     1       2.479   4.955   4.361  0.00  0.00    -0.043 I 
ENDBRANCH  17  20
ENDBRANCH  14  16
ENDBRANCH   1  14
TORSDOF 5
