REMARK  Name = ZINC19646871
REMARK  9 active torsions:
REMARK  status: ('A' for Active; 'I' for Inactive)
REMARK    1  A    between atoms: C_1  and  C_2
REMARK    2  A    between atoms: C_2  and  C_3
REMARK    3  A    between atoms: C_2  and  C_4
REMARK    4  A    between atoms: C_4  and  C_5
REMARK    5  A    between atoms: N_7  and  C_8
REMARK    6  A    between atoms: C_8  and  N_10
REMARK    7  A    between atoms: N_10  and  C_11
REMARK    8  A    between atoms: C_18  and  C_20
REMARK    9  A    between atoms: C_23  and  O_27
REMARK                            x       y       z     vdW  Elec       q    Type
REMARK                         _______ _______ _______ _____ _____    ______ ____
ROOT
ATOM      1  C   UNL     1       6.464   0.031  -3.245  0.00  0.00    +0.035 A 
ATOM      2  C   UNL     1       7.032   0.728  -2.181  0.00  0.00    +0.027 A 
ATOM      3  C   UNL     1       8.354   1.118  -2.229  0.00  0.00    +0.050 A 
ATOM      4  C   UNL     1       9.126   0.816  -3.340  0.00  0.00    +0.156 A 
ATOM      5  C   UNL     1       8.560   0.113  -4.416  0.00  0.00    +0.112 A 
ATOM      6  C   UNL     1       7.222  -0.282  -4.358  0.00  0.00    +0.054 A 
ATOM      7  N   UNL     1       9.541  -0.034  -5.345  0.00  0.00    -0.209 NA
ATOM      8  C   UNL     1      10.635   0.528  -4.894  0.00  0.00    +0.228 A 
ATOM      9  O   UNL     1      10.414   1.055  -3.675  0.00  0.00    -0.435 OA
ENDROOT
BRANCH   8  10
ATOM     10  C   UNL     1      11.921   0.576  -5.618  0.00  0.00    +0.038 A 
ATOM     11  C   UNL     1      12.035  -0.002  -6.884  0.00  0.00    +0.017 A 
ATOM     12  C   UNL     1      13.236   0.045  -7.556  0.00  0.00    +0.047 A 
ATOM     13  C   UNL     1      14.335   0.666  -6.976  0.00  0.00    +0.131 A 
ATOM     14  C   UNL     1      14.227   1.242  -5.716  0.00  0.00    +0.060 A 
ATOM     15  C   UNL     1      13.027   1.204  -5.040  0.00  0.00    +0.032 A 
ATOM     16 BR   UNL     1      15.727   2.084  -4.931  0.00  0.00    -0.047 Br
BRANCH  13  17
ATOM     17  O   UNL     1      15.518   0.709  -7.642  0.00  0.00    -0.506 OA
ATOM     18  H   UNL     1      15.624   1.488  -8.205  0.00  0.00    +0.292 HD
ENDBRANCH  13  17
ENDBRANCH   8  10
BRANCH   1  19
ATOM     19  N   UNL     1       5.120  -0.359  -3.185  0.00  0.00    -0.297 N 
ATOM     20  H   UNL     1       4.864  -1.259  -3.441  0.00  0.00    +0.154 HD
BRANCH  19  21
ATOM     21  C   UNL     1       4.182   0.516  -2.771  0.00  0.00    +0.141 C 
ATOM     22  S   UNL     1       4.645   2.068  -2.216  0.00  0.00    -0.018 S 
BRANCH  21  25
ATOM     23  C   UNL     1       1.942   1.044  -2.380  0.00  0.00    +0.219 C 
ATOM     24  O   UNL     1       2.270   2.143  -1.987  0.00  0.00    -0.275 OA
ATOM     25  N   UNL     1       2.880   0.169  -2.793  0.00  0.00    -0.268 N 
ATOM     26  H   UNL     1       2.618  -0.710  -3.108  0.00  0.00    +0.156 HD
BRANCH  23  27
ATOM     27  C   UNL     1       0.486   0.656  -2.405  0.00  0.00    +0.099 C 
BRANCH  27  29
ATOM     28  C   UNL     1      -0.240   3.005  -2.849  0.00  0.00    +0.008 C 
ATOM     29  C   UNL     1      -0.361   1.821  -1.888  0.00  0.00    -0.008 C 
ATOM     30  C   UNL     1      -1.825   1.386  -1.796  0.00  0.00    +0.008 C 
ENDBRANCH  27  29
ENDBRANCH  23  27
ENDBRANCH  21  25
ENDBRANCH  19  21
ENDBRANCH   1  19
TORSDOF 7
