REMARK  Name = ZINC12151055
REMARK  12 active torsions:
REMARK  status: ('A' for Active; 'I' for Inactive)
REMARK    1  A    between atoms: C_1  and  C_2
REMARK    2  A    between atoms: C_2  and  C_4
REMARK    3  A    between atoms: C_2  and  N_62
REMARK    4  A    between atoms: C_6  and  C_10
REMARK    5  A    between atoms: C_16  and  N_62
REMARK    6  A    between atoms: C_17  and  C_18
REMARK    7  A    between atoms: C_17  and  N_62
REMARK    8  A    between atoms: C_22  and  N_31
REMARK    9  A    between atoms: C_23  and  C_27
REMARK   10  A    between atoms: C_27  and  O_29
REMARK   11  A    between atoms: O_29  and  C_30
REMARK   12  A    between atoms: C_32  and  C_34
REMARK                            x       y       z     vdW  Elec       q    Type
REMARK                         _______ _______ _______ _____ _____    ______ ____
ROOT
ATOM      1  C   UNL     1       3.227  -5.352   0.486  0.00  0.00    +0.026 A 
ATOM      2  C   UNL     1       3.934  -4.889  -0.614  0.00  0.00    +0.022 A 
ATOM      3  C   UNL     1       3.333  -4.053  -1.526  0.00  0.00    +0.014 A 
ATOM      4  C   UNL     1       1.983  -3.672  -1.322  0.00  0.00    +0.030 A 
ATOM      5  C   UNL     1       1.151  -2.806  -2.143  0.00  0.00    +0.064 A 
ATOM      6  C   UNL     1      -0.147  -2.576  -1.742  0.00  0.00    +0.120 A 
ATOM      7  S   UNL     1      -0.287  -3.517  -0.236  0.00  0.00    -0.060 S 
ATOM      8  C   UNL     1       1.352  -4.197  -0.172  0.00  0.00    +0.111 A 
ATOM      9  N   UNL     1       1.971  -4.995   0.672  0.00  0.00    -0.246 NA
ENDROOT
BRANCH   5  10
ATOM     10  N   UNL     1       1.653  -2.226  -3.303  0.00  0.00    -0.284 N 
ATOM     11  C   UNL     1       1.741  -2.951  -4.436  0.00  0.00    +0.220 C 
ATOM     12  O   UNL     1       1.288  -4.076  -4.472  0.00  0.00    -0.275 OA
ATOM     13  H   UNL     1       1.939  -1.299  -3.297  0.00  0.00    +0.155 HD
BRANCH  11  14
ATOM     14  C   UNL     1       2.402  -2.365  -5.656  0.00  0.00    +0.075 C 
ATOM     15  C   UNL     1       1.512  -2.048  -6.859  0.00  0.00    +0.013 C 
ATOM     16  C   UNL     1       2.471  -3.238  -6.910  0.00  0.00    +0.013 C 
ENDBRANCH  11  14
ENDBRANCH   5  10
BRANCH   6  17
ATOM     17  C   UNL     1      -1.133  -1.777  -2.374  0.00  0.00    +0.348 C 
ATOM     18  O   UNL     1      -0.881  -1.218  -3.425  0.00  0.00    -0.244 OA
BRANCH  17  19
ATOM     19  O   UNL     1      -2.351  -1.637  -1.811  0.00  0.00    -0.464 OA
ATOM     20  C   UNL     1      -3.295  -0.817  -2.502  0.00  0.00    +0.280 C 
ENDBRANCH  17  19
ENDBRANCH   6  17
BRANCH   1  21
ATOM     21  C   UNL     1       3.898  -6.269   1.476  0.00  0.00    -0.022 C 
BRANCH  21  23
ATOM     22  C   UNL     1       3.349  -4.860   3.367  0.00  0.00    -0.095 C 
ATOM     23  N   UNL     1       4.450  -5.456   2.580  0.00  0.00    +0.387 N 
ATOM     24  H   UNL     1       5.024  -4.702   2.185  0.00  0.00    -0.081 HD
BRANCH  23  26
ATOM     25  C   UNL     1       6.467  -6.842   2.631  0.00  0.00    -0.007 C 
ATOM     26  C   UNL     1       5.296  -6.297   3.452  0.00  0.00    -0.020 C 
BRANCH  26  27
ATOM     27  C   UNL     1       5.826  -5.453   4.583  0.00  0.00    +0.050 A 
ATOM     28  C   UNL     1       6.239  -5.926   5.828  0.00  0.00    +0.051 A 
ATOM     29  C   UNL     1       6.652  -4.854   6.568  0.00  0.00    +0.066 A 
ATOM     30  N   UNL     1       6.487  -3.742   5.797  0.00  0.00    -0.277 N 
ATOM     31  H   UNL     1       6.699  -2.802   6.066  0.00  0.00    +0.189 HD
ATOM     32  N   UNL     1       5.969  -4.152   4.562  0.00  0.00    -0.180 NA
BRANCH  29  33
ATOM     33  C   UNL     1       7.174  -4.893   7.952  0.00  0.00    -0.000 A 
ATOM     34  C   UNL     1       7.282  -6.109   8.626  0.00  0.00    +0.010 A 
ATOM     35  C   UNL     1       7.776  -6.139   9.914  0.00  0.00    +0.001 A 
ATOM     36  C   UNL     1       8.152  -4.965  10.541  0.00  0.00    +0.000 A 
ATOM     37  C   UNL     1       8.042  -3.755   9.880  0.00  0.00    +0.001 A 
ATOM     38  C   UNL     1       7.555  -3.712   8.590  0.00  0.00    +0.010 A 
ENDBRANCH  29  33
ENDBRANCH  26  27
ENDBRANCH  23  26
ENDBRANCH  21  23
ENDBRANCH   1  21
TORSDOF 9
