REMARK  Name = ZINC39582244
REMARK  9 active torsions:
REMARK  status: ('A' for Active; 'I' for Inactive)
REMARK    1  A    between atoms: C_1  and  O_2
REMARK    2  A    between atoms: O_2  and  C_3
REMARK    3  A    between atoms: C_3  and  C_5
REMARK    4  A    between atoms: C_7  and  N_15
REMARK    5  A    between atoms: C_16  and  C_18
REMARK    6  A    between atoms: C_18  and  N_19
REMARK    7  A    between atoms: N_22  and  C_25
REMARK    8  A    between atoms: C_25  and  C_26
REMARK    9  A    between atoms: C_25  and  C_32
REMARK                            x       y       z     vdW  Elec       q    Type
REMARK                         _______ _______ _______ _____ _____    ______ ____
ROOT
ATOM      1  C   UNL     1      -4.131  -2.987   0.748  0.00  0.00    +0.180 C 
ENDROOT
BRANCH   1   2
ATOM      2  N   UNL     1      -5.211  -3.521   1.589  0.00  0.00    -0.292 NA
ATOM      3  C   UNL     1      -5.450  -2.654   2.752  0.00  0.00    +0.100 C 
ATOM      4  C   UNL     1      -6.524  -3.284   3.642  0.00  0.00    +0.100 C 
ATOM      5  N   UNL     1      -7.757  -3.467   2.863  0.00  0.00    -0.289 NA
ATOM      6  C   UNL     1      -7.518  -4.333   1.700  0.00  0.00    +0.100 C 
ATOM      7  C   UNL     1      -6.444  -3.704   0.810  0.00  0.00    +0.100 C 
BRANCH   5   8
ATOM      8  C   UNL     1      -8.837  -4.000   3.704  0.00  0.00    +0.117 C 
BRANCH   8   9
ATOM      9  C   UNL     1      -9.033  -3.102   4.898  0.00  0.00    -0.026 A 
ATOM     10  C   UNL     1      -9.074  -1.730   4.732  0.00  0.00    +0.005 A 
ATOM     11  C   UNL     1      -9.254  -0.907   5.828  0.00  0.00    +0.000 A 
ATOM     12  C   UNL     1      -9.394  -1.455   7.089  0.00  0.00    +0.000 A 
ATOM     13  C   UNL     1      -9.354  -2.827   7.255  0.00  0.00    +0.000 A 
ATOM     14  C   UNL     1      -9.178  -3.651   6.159  0.00  0.00    +0.005 A 
ENDBRANCH   8   9
BRANCH   8  15
ATOM     15  C   UNL     1     -10.113  -4.059   2.905  0.00  0.00    -0.026 A 
ATOM     16  C   UNL     1     -10.384  -3.085   1.962  0.00  0.00    +0.005 A 
ATOM     17  C   UNL     1     -11.555  -3.140   1.229  0.00  0.00    +0.000 A 
ATOM     18  C   UNL     1     -12.454  -4.168   1.438  0.00  0.00    +0.000 A 
ATOM     19  C   UNL     1     -12.183  -5.143   2.381  0.00  0.00    +0.000 A 
ATOM     20  C   UNL     1     -11.010  -5.090   3.111  0.00  0.00    +0.005 A 
ENDBRANCH   8  15
ENDBRANCH   5   8
ENDBRANCH   1   2
BRANCH   1  22
ATOM     21  N   UNL     1      -1.694  -2.603   0.929  0.00  0.00    -0.285 N 
ATOM     22  C   UNL     1      -2.830  -3.043   1.506  0.00  0.00    +0.231 C 
ATOM     23  O   UNL     1      -2.805  -3.483   2.636  0.00  0.00    -0.274 OA
ATOM     24  H   UNL     1      -1.727  -2.174   0.060  0.00  0.00    +0.155 HD
BRANCH  21  26
ATOM     25  C   UNL     1      -0.237  -3.556   2.826  0.00  0.00    +0.234 C 
ATOM     26  C   UNL     1      -0.501  -2.762   1.566  0.00  0.00    +0.053 C 
ATOM     27  C   UNL     1       0.722  -2.229   1.195  0.00  0.00    +0.018 A 
ATOM     28  C   UNL     1       1.116  -1.405   0.114  0.00  0.00    +0.011 A 
ATOM     29  C   UNL     1       2.413  -1.027  -0.005  0.00  0.00    +0.001 A 
ATOM     30  C   UNL     1       3.381  -1.431   0.918  0.00  0.00    +0.002 A 
ATOM     31  C   UNL     1       3.077  -2.219   1.976  0.00  0.00    +0.026 A 
ATOM     32  C   UNL     1       1.740  -2.657   2.170  0.00  0.00    +0.045 A 
ATOM     33  N   UNL     1       1.196  -3.414   3.103  0.00  0.00    -0.367 N 
ATOM     34  H   UNL     1       1.667  -3.813   3.851  0.00  0.00    +0.161 HD
BRANCH  25  35
ATOM     35  C   UNL     1      -0.581  -5.007   2.607  0.00  0.00    +0.335 C 
ATOM     36  O   UNL     1       0.272  -5.783   2.246  0.00  0.00    -0.248 OA
BRANCH  35  38
ATOM     37  C   UNL     1      -2.092  -6.824   2.585  0.00  0.00    +0.280 C 
ATOM     38  O   UNL     1      -1.836  -5.437   2.812  0.00  0.00    -0.466 OA
ENDBRANCH  35  38
ENDBRANCH  25  35
ENDBRANCH  21  26
ENDBRANCH   1  22
TORSDOF 8
