REMARK  Name = ZINC06504627
REMARK  7 active torsions:
REMARK  status: ('A' for Active; 'I' for Inactive)
REMARK    1  A    between atoms: C_1  and  C_2
REMARK    2  A    between atoms: C_7  and  C_8
REMARK    3  A    between atoms: N_10  and  C_11
REMARK    4  A    between atoms: C_11  and  N_13
REMARK    5  A    between atoms: N_13  and  N_14
REMARK    6  A    between atoms: C_15  and  C_17
REMARK    7  A    between atoms: C_26  and  O_27
REMARK                            x       y       z     vdW  Elec       q    Type
REMARK                         _______ _______ _______ _____ _____    ______ ____
ROOT
ATOM      1  N   UNL     1      -3.775   3.542   1.192  0.00  0.00    -0.231 N 
ATOM      2  C   UNL     1      -3.751   2.210   1.398  0.00  0.00    +0.264 C 
ATOM      3  O   UNL     1      -4.785   1.609   1.615  0.00  0.00    -0.269 OA
ATOM      4  H   UNL     1      -2.950   4.021   1.020  0.00  0.00    +0.173 HD
ENDROOT
BRANCH   2   5
ATOM      5  C   UNL     1      -2.468   1.481   1.361  0.00  0.00    +0.080 A 
ATOM      6  C   UNL     1      -1.291   2.171   1.119  0.00  0.00    +0.025 A 
ATOM      7  C   UNL     1      -0.076   1.472   1.080  0.00  0.00    -0.017 A 
ATOM      8  C   UNL     1       1.137   2.140   0.832  0.00  0.00    +0.008 A 
ATOM      9  C   UNL     1       2.301   1.435   0.805  0.00  0.00    +0.001 A 
ATOM     10  C   UNL     1       2.310   0.057   1.020  0.00  0.00    +0.001 A 
ATOM     11  C   UNL     1       1.157  -0.623   1.263  0.00  0.00    +0.008 A 
ATOM     12  C   UNL     1      -0.066   0.070   1.298  0.00  0.00    -0.014 A 
ATOM     13  C   UNL     1      -1.273  -0.605   1.547  0.00  0.00    +0.054 A 
ATOM     14  C   UNL     1      -2.448   0.087   1.577  0.00  0.00    +0.130 A 
BRANCH  14  15
ATOM     15  O   UNL     1      -3.609  -0.572   1.818  0.00  0.00    -0.506 OA
ATOM     16  H   UNL     1      -3.843  -0.627   2.755  0.00  0.00    +0.292 HD
ENDBRANCH  14  15
ENDBRANCH   2   5
BRANCH   1  17
ATOM     17  N   UNL     1      -4.993   4.234   1.228  0.00  0.00    -0.245 N 
ATOM     18  H   UNL     1      -5.818   3.755   1.400  0.00  0.00    +0.172 HD
BRANCH  17  19
ATOM     19  C   UNL     1      -5.017   5.566   1.022  0.00  0.00    +0.153 C 
ATOM     20  S   UNL     1      -6.505   6.411   1.065  0.00  0.00    -0.017 S 
BRANCH  19  23
ATOM     21  C   UNL     1      -3.895   7.563   0.576  0.00  0.00    +0.250 C 
ATOM     22  O   UNL     1      -4.951   8.164   0.606  0.00  0.00    -0.270 OA
ATOM     23  N   UNL     1      -3.870   6.231   0.782  0.00  0.00    -0.263 N 
ATOM     24  H   UNL     1      -3.027   5.752   0.757  0.00  0.00    +0.157 HD
BRANCH  21  31
ATOM     25  C   UNL     1      -3.989  10.370  -0.121  0.00  0.00    +0.044 C 
ATOM     26  C   UNL     1      -2.670   9.648  -0.025  0.00  0.00    -0.038 A 
ATOM     27  C   UNL     1      -1.492  10.323  -0.269  0.00  0.00    +0.004 A 
ATOM     28  C   UNL     1      -0.281   9.662  -0.181  0.00  0.00    +0.000 A 
ATOM     29  C   UNL     1      -0.241   8.319   0.153  0.00  0.00    +0.001 A 
ATOM     30  C   UNL     1      -1.410   7.633   0.406  0.00  0.00    +0.013 A 
ATOM     31  C   UNL     1      -2.637   8.293   0.312  0.00  0.00    +0.040 A 
ENDBRANCH  21  31
ENDBRANCH  19  23
ENDBRANCH  17  19
ENDBRANCH   1  17
TORSDOF 6
