REMARK  Name = ZINC02982602
REMARK  11 active torsions:
REMARK  status: ('A' for Active; 'I' for Inactive)
REMARK    1  A    between atoms: C_1  and  C_2
REMARK    2  A    between atoms: C_5  and  S_8
REMARK    3  A    between atoms: S_8  and  C_9
REMARK    4  A    between atoms: C_9  and  C_10
REMARK    5  A    between atoms: C_10  and  N_11
REMARK    6  A    between atoms: C_12  and  C_14
REMARK    7  A    between atoms: C_14  and  N_15
REMARK    8  A    between atoms: N_15  and  C_16
REMARK    9  A    between atoms: N_15  and  S_25
REMARK   10  A    between atoms: C_20  and  N_22
REMARK   11  A    between atoms: S_25  and  C_28
REMARK                            x       y       z     vdW  Elec       q    Type
REMARK                         _______ _______ _______ _____ _____    ______ ____
ROOT
ATOM      1  N   UNL     1       4.278  -1.182  -1.624  0.00  0.00    -0.194 N 
ENDROOT
BRANCH   1   2
ATOM      2  C   UNL     1       5.097  -0.328  -2.366  0.00  0.00    +0.054 A 
ATOM      3  C   UNL     1       5.282   0.987  -1.959  0.00  0.00    +0.025 A 
ATOM      4  C   UNL     1       6.097   1.827  -2.692  0.00  0.00    +0.004 A 
ATOM      5  C   UNL     1       6.720   1.363  -3.837  0.00  0.00    +0.033 A 
ATOM      6  C   UNL     1       6.534   0.056  -4.247  0.00  0.00    +0.128 A 
ATOM      7  C   UNL     1       5.724  -0.791  -3.515  0.00  0.00    +0.057 A 
BRANCH   6   8
ATOM      8  N   UNL     1       7.202  -0.436  -5.473  0.00  0.00    +0.056 N 
ATOM      9  O   UNL     1       7.038  -1.587  -5.836  0.00  0.00    -0.126 OA
ATOM     10  O   UNL     1       7.916   0.310  -6.119  0.00  0.00    -0.126 OA
ENDBRANCH   6   8
ENDBRANCH   1   2
BRANCH   1  11
ATOM     11  S   UNL     1       4.652  -1.526  -0.048  0.00  0.00    +0.075 S 
ATOM     12  O   UNL     1       6.057  -1.357   0.082  0.00  0.00    -0.150 OA
ATOM     13  O   UNL     1       3.999  -2.748   0.268  0.00  0.00    -0.150 OA
BRANCH  11  14
ATOM     14  C   UNL     1       3.901  -0.282   0.949  0.00  0.00    +0.109 A 
ATOM     15  C   UNL     1       2.582  -0.413   1.341  0.00  0.00    +0.029 A 
ATOM     16  C   UNL     1       1.993   0.563   2.122  0.00  0.00    +0.002 A 
ATOM     17  C   UNL     1       2.723   1.670   2.513  0.00  0.00    +0.000 A 
ATOM     18  C   UNL     1       4.043   1.801   2.122  0.00  0.00    +0.002 A 
ATOM     19  C   UNL     1       4.631   0.825   1.340  0.00  0.00    +0.029 A 
ENDBRANCH  11  14
ENDBRANCH   1  11
BRANCH   1  20
ATOM     20  C   UNL     1       3.087  -1.773  -2.240  0.00  0.00    +0.227 C 
BRANCH  20  22
ATOM     21  N   UNL     1       0.729  -1.140  -2.634  0.00  0.00    -0.313 N 
ATOM     22  C   UNL     1       1.934  -0.808  -2.132  0.00  0.00    +0.232 C 
ATOM     23  O   UNL     1       2.092   0.267  -1.594  0.00  0.00    -0.274 OA
ATOM     24  H   UNL     1       0.603  -2.001  -3.064  0.00  0.00    +0.149 HD
BRANCH  21  25
ATOM     25  C   UNL     1      -0.392  -0.203  -2.529  0.00  0.00    +0.115 C 
BRANCH  25  26
ATOM     26  C   UNL     1      -1.635  -0.820  -3.173  0.00  0.00    +0.093 C 
BRANCH  26  27
ATOM     27  S   UNL     1      -3.023   0.342  -3.043  0.00  0.00    -0.124 S 
BRANCH  27  32
ATOM     28  C   UNL     1      -7.604  -2.555  -5.699  0.00  0.00    +0.044 C 
ATOM     29  C   UNL     1      -6.461  -1.832  -5.036  0.00  0.00    -0.050 A 
ATOM     30  C   UNL     1      -6.655  -0.567  -4.513  0.00  0.00    +0.004 A 
ATOM     31  C   UNL     1      -5.610   0.099  -3.904  0.00  0.00    +0.015 A 
ATOM     32  C   UNL     1      -4.361  -0.504  -3.818  0.00  0.00    +0.008 A 
ATOM     33  C   UNL     1      -4.167  -1.773  -4.350  0.00  0.00    +0.015 A 
ATOM     34  C   UNL     1      -5.219  -2.435  -4.952  0.00  0.00    +0.004 A 
ENDBRANCH  27  32
ENDBRANCH  26  27
ENDBRANCH  25  26
ENDBRANCH  21  25
ENDBRANCH  20  22
ENDBRANCH   1  20
TORSDOF 10
