REMARK  Name = ZINC25668426
REMARK  6 active torsions:
REMARK  status: ('A' for Active; 'I' for Inactive)
REMARK    1  A    between atoms: C_7  and  C_11
REMARK    2  A    between atoms: C_11  and  C_12
REMARK    3  A    between atoms: C_12  and  C_14
REMARK    4  A    between atoms: C_12  and  N_26
REMARK    5  A    between atoms: N_16  and  C_17
REMARK    6  A    between atoms: C_20  and  N_23
REMARK                            x       y       z     vdW  Elec       q    Type
REMARK                         _______ _______ _______ _____ _____    ______ ____
ROOT
ATOM      1  C   UNL     1       4.174   0.620   1.409  0.00  0.00    +0.017 C 
ENDROOT
BRANCH   1   2
ATOM      2  C   UNL     1       5.669   0.432   1.398  0.00  0.00    +0.203 C 
ATOM      3  O   UNL     1       6.403   1.396   1.454  0.00  0.00    -0.277 OA
ATOM      4  N   UNL     1       6.192  -0.809   1.326  0.00  0.00    -0.287 N 
ATOM      5  H   UNL     1       5.529  -1.687   1.353  0.00  0.00    +0.155 HD
BRANCH   4   6
ATOM      6  C   UNL     1       7.576  -0.980   1.218  0.00  0.00    +0.033 A 
ATOM      7  C   UNL     1       8.091  -2.026   0.464  0.00  0.00    +0.025 A 
ATOM      8  C   UNL     1       9.459  -2.189   0.355  0.00  0.00    +0.034 A 
ATOM      9  C   UNL     1      10.314  -1.318   1.006  0.00  0.00    +0.126 A 
ATOM     10  C   UNL     1       9.804  -0.279   1.762  0.00  0.00    +0.034 A 
ATOM     11  C   UNL     1       8.438  -0.107   1.870  0.00  0.00    +0.025 A 
BRANCH   9  12
ATOM     12  N   UNL     1      11.779  -1.499   0.891  0.00  0.00    +0.056 N 
ATOM     13  O   UNL     1      12.533  -0.733   1.463  0.00  0.00    -0.126 OA
ATOM     14  O   UNL     1      12.229  -2.414   0.226  0.00  0.00    -0.126 OA
ENDBRANCH   9  12
ENDBRANCH   4   6
ENDBRANCH   1   2
BRANCH   1  15
ATOM     15  N   UNL     1       3.852   1.943   1.961  0.00  0.00    +0.386 N 
ATOM     16  H   UNL     1       4.238   2.017   2.988  0.00  0.00    -0.089 HD
ATOM     17  H   UNL     1       2.760   2.081   1.969  0.00  0.00    -0.089 HD
ATOM     18  H   UNL     1       4.315   2.723   1.338  0.00  0.00    -0.089 HD
ENDBRANCH   1  15
BRANCH   1  19
ATOM     19  C   UNL     1       3.637   0.518  -0.019  0.00  0.00    +0.030 C 
BRANCH  19  26
ATOM     20  C   UNL     1       0.582   4.074   0.033  0.00  0.00    +0.001 A 
ATOM     21  C   UNL     1      -0.740   3.651   0.054  0.00  0.00    +0.002 A 
ATOM     22  C   UNL     1      -1.048   2.308   0.062  0.00  0.00    +0.026 A 
ATOM     23  C   UNL     1      -0.026   1.364   0.039  0.00  0.00    +0.047 A 
ATOM     24  C   UNL     1       1.312   1.798   0.019  0.00  0.00    +0.003 A 
ATOM     25  C   UNL     1       1.602   3.164   0.016  0.00  0.00    +0.010 A 
ATOM     26  C   UNL     1       2.131   0.584   0.004  0.00  0.00    -0.023 A 
ATOM     27  C   UNL     1       1.287  -0.459   0.016  0.00  0.00    +0.087 A 
ATOM     28  N   UNL     1      -0.006  -0.012   0.037  0.00  0.00    -0.360 N 
ATOM     29  H   UNL     1      -0.951  -0.576   0.051  0.00  0.00    +0.165 HD
ENDBRANCH  19  26
ENDBRANCH   1  19
TORSDOF 6
