REMARK  Name = ZINC11381887
REMARK  10 active torsions:
REMARK  status: ('A' for Active; 'I' for Inactive)
REMARK    1  A    between atoms: C_1  and  C_2
REMARK    2  A    between atoms: C_2  and  C_3
REMARK    3  A    between atoms: N_5  and  C_6
REMARK    4  A    between atoms: C_9  and  C_12
REMARK    5  A    between atoms: C_12  and  C_14
REMARK    6  A    between atoms: C_14  and  S_15
REMARK    7  A    between atoms: S_15  and  C_16
REMARK    8  A    between atoms: C_20  and  C_23
REMARK    9  A    between atoms: N_30  and  C_31
REMARK   10  A    between atoms: C_31  and  C_32
REMARK                            x       y       z     vdW  Elec       q    Type
REMARK                         _______ _______ _______ _____ _____    ______ ____
ROOT
ATOM      1  C   UNL     1       4.112   6.635   2.399  0.00  0.00    +0.173 A 
ATOM      2  N   UNL     1       3.638   7.315   1.375  0.00  0.00    -0.216 NA
ATOM      3  C   UNL     1       2.870   6.729   0.464  0.00  0.00    +0.117 A 
ATOM      4  C   UNL     1       2.520   5.370   0.547  0.00  0.00    +0.080 A 
ATOM      5  C   UNL     1       1.673   4.884  -0.539  0.00  0.00    +0.010 A 
ATOM      6  C   UNL     1       1.292   5.753  -1.507  0.00  0.00    +0.057 A 
ATOM      7  S   UNL     1       2.061   7.283  -1.015  0.00  0.00    -0.076 S 
ATOM      8  C   UNL     1       3.052   4.657   1.664  0.00  0.00    +0.264 A 
ATOM      9  O   UNL     1       2.805   3.472   1.814  0.00  0.00    -0.267 OA
ATOM     10  N   UNL     1       3.825   5.309   2.551  0.00  0.00    -0.283 N 
ENDROOT
BRANCH   5  11
ATOM     11  C   UNL     1       1.235   3.473  -0.579  0.00  0.00    +0.021 A 
ATOM     12  C   UNL     1      -0.026   2.965  -0.746  0.00  0.00    +0.016 A 
ATOM     13  C   UNL     1      -0.192   1.596  -0.754  0.00  0.00    +0.008 A 
ATOM     14  C   UNL     1       0.891   0.797  -0.586  0.00  0.00    +0.046 A 
ATOM     15  S   UNL     1       2.212   1.987  -0.421  0.00  0.00    -0.097 S 
ENDBRANCH   5  11
BRANCH   1  16
ATOM     16  S   UNL     1       5.128   7.447   3.587  0.00  0.00    -0.080 S 
BRANCH  16  17
ATOM     17  C   UNL     1       5.156   9.116   2.889  0.00  0.00    +0.157 C 
BRANCH  17  18
ATOM     18  C   UNL     1       5.992  10.014   3.764  0.00  0.00    +0.173 C 
ATOM     19  O   UNL     1       6.517   9.568   4.763  0.00  0.00    -0.291 OA
BRANCH  18  23
ATOM     20  C   UNL     1       6.508  14.091   2.740  0.00  0.00    +0.033 A 
ATOM     21  C   UNL     1       7.112  13.582   3.886  0.00  0.00    +0.024 A 
ATOM     22  C   UNL     1       6.948  12.263   4.221  0.00  0.00    +0.013 A 
ATOM     23  C   UNL     1       6.171  11.427   3.409  0.00  0.00    +0.018 A 
ATOM     24  C   UNL     1       5.571  11.942   2.253  0.00  0.00    +0.013 A 
ATOM     25  C   UNL     1       5.736  13.264   1.929  0.00  0.00    +0.024 A 
BRANCH  20  28
ATOM     26  C   UNL     1       7.838  16.056   2.684  0.00  0.00    +0.217 C 
ATOM     27  O   UNL     1       8.769  15.428   3.142  0.00  0.00    -0.275 OA
ATOM     28  N   UNL     1       6.677  15.432   2.403  0.00  0.00    -0.286 N 
ATOM     29  H   UNL     1       5.960  15.917   1.966  0.00  0.00    +0.155 HD
BRANCH  26  31
ATOM     30  C   UNL     1       9.384  17.989   2.831  0.00  0.00    +0.013 C 
ATOM     31  C   UNL     1       7.980  17.535   2.429  0.00  0.00    +0.093 C 
ENDBRANCH  26  31
ENDBRANCH  20  28
ENDBRANCH  18  23
ENDBRANCH  17  18
ENDBRANCH  16  17
ENDBRANCH   1  16
BRANCH  10  32
ATOM     32  C   UNL     1       4.368   4.583   3.702  0.00  0.00    +0.154 C 
BRANCH  32  33
ATOM     33  C   UNL     1       3.401   4.671   4.854  0.00  0.00    -0.013 C 
ATOM     34  C   UNL     1       2.965   3.578   5.429  0.00  0.00    +0.005 C 
ENDBRANCH  32  33
ENDBRANCH  10  32
TORSDOF 9
