REMARK  Name = ZINC33260535
REMARK  8 active torsions:
REMARK  status: ('A' for Active; 'I' for Inactive)
REMARK    1  A    between atoms: C_1  and  C_2
REMARK    2  A    between atoms: C_2  and  C_3
REMARK    3  A    between atoms: C_3  and  C_4
REMARK    4  A    between atoms: C_4  and  C_5
REMARK    5  A    between atoms: N_7  and  C_8
REMARK    6  A    between atoms: C_14  and  C_30
REMARK    7  A    between atoms: C_16  and  N_18
REMARK    8  A    between atoms: C_21  and  N_24
REMARK                            x       y       z     vdW  Elec       q    Type
REMARK                         _______ _______ _______ _____ _____    ______ ____
ROOT
ATOM      1  C   UNL     1      -2.366   1.110  -0.032  0.00  0.00    +0.034 A 
ATOM      2  C   UNL     1      -2.292  -0.288  -0.038  0.00  0.00    +0.025 A 
ATOM      3  C   UNL     1      -3.415  -1.048  -0.133  0.00  0.00    +0.028 A 
ATOM      4  C   UNL     1      -4.675  -0.431  -0.240  0.00  0.00    +0.049 A 
ATOM      5  C   UNL     1      -4.753   0.984  -0.240  0.00  0.00    +0.014 A 
ATOM      6  C   UNL     1      -3.586   1.747  -0.135  0.00  0.00    +0.034 A 
ATOM      7  C   UNL     1      -6.069   1.614  -0.351  0.00  0.00    +0.075 A 
ATOM      8  C   UNL     1      -7.171   0.775  -0.452  0.00  0.00    +0.057 A 
ATOM      9  C   UNL     1      -6.981  -0.613  -0.442  0.00  0.00    +0.100 A 
ATOM     10  N   UNL     1      -5.790  -1.159  -0.341  0.00  0.00    -0.343 N 
ATOM     11  H   UNL     1      -5.731  -2.258  -0.341  0.00  0.00    +0.167 HD
ENDROOT
BRANCH   9  12
ATOM     12  N   UNL     1      -8.091  -1.441  -0.543  0.00  0.00    -0.317 N 
ATOM     13  C   UNL     1      -8.870  -1.131  -1.748  0.00  0.00    +0.105 C 
ATOM     14  C   UNL     1     -10.158  -1.958  -1.752  0.00  0.00    +0.004 C 
ATOM     15  C   UNL     1      -9.801  -3.447  -1.721  0.00  0.00    -0.066 C 
ATOM     16  C   UNL     1      -8.948  -3.735  -0.482  0.00  0.00    +0.004 C 
ATOM     17  C   UNL     1      -7.696  -2.855  -0.516  0.00  0.00    +0.105 C 
BRANCH  15  18
ATOM     18  N   UNL     1     -11.032  -4.247  -1.666  0.00  0.00    +0.382 N 
ATOM     19  C   UNL     1     -10.725  -5.676  -1.528  0.00  0.00    -0.078 C 
ATOM     20  C   UNL     1     -12.023  -6.462  -1.328  0.00  0.00    -0.019 C 
ATOM     21  C   UNL     1     -12.944  -6.231  -2.530  0.00  0.00    -0.004 C 
ATOM     22  C   UNL     1     -13.209  -4.731  -2.680  0.00  0.00    -0.019 C 
ATOM     23  C   UNL     1     -11.876  -3.996  -2.841  0.00  0.00    -0.078 C 
ATOM     24  H   UNL     1     -11.598  -3.938  -0.775  0.00  0.00    -0.081 HD
ENDBRANCH  15  18
ENDBRANCH   9  12
BRANCH   1  27
ATOM     25  C   UNL     1      -0.159   1.407   0.803  0.00  0.00    +0.217 C 
ATOM     26  O   UNL     1      -0.276   0.384   1.444  0.00  0.00    -0.275 OA
ATOM     27  N   UNL     1      -1.195   1.866   0.073  0.00  0.00    -0.285 N 
ATOM     28  H   UNL     1      -1.119   2.837  -0.440  0.00  0.00    +0.155 HD
BRANCH  25  29
ATOM     29  C   UNL     1       1.145   2.161   0.818  0.00  0.00    +0.096 C 
BRANCH  29  30
ATOM     30  C   UNL     1       2.148   1.428   1.711  0.00  0.00    +0.009 C 
BRANCH  30  32
ATOM     31  C   UNL     1       4.475   1.461   2.620  0.00  0.00    +0.004 C 
ATOM     32  C   UNL     1       3.472   2.194   1.727  0.00  0.00    -0.003 C 
ENDBRANCH  30  32
ENDBRANCH  29  30
ENDBRANCH  25  29
ENDBRANCH   1  27
BRANCH   7  33
ATOM     33  C   UNL     1      -6.220   3.084  -0.357  0.00  0.00    +0.387 C 
ATOM     34  O   UNL     1      -5.236   3.796  -0.371  0.00  0.00    -0.241 OA
ATOM     35  O   UNL     1      -7.449   3.635  -0.346  0.00  0.00    -0.241 OA
ENDBRANCH   7  33
TORSDOF 7
