REMARK  Name = ZINC51328572
REMARK  9 active torsions:
REMARK  status: ('A' for Active; 'I' for Inactive)
REMARK    1  A    between atoms: C_3  and  O_8
REMARK    2  A    between atoms: C_6  and  N_7
REMARK    3  A    between atoms: O_8  and  C_9
REMARK    4  A    between atoms: C_9  and  C_10
REMARK    5  A    between atoms: C_10  and  C_12
REMARK    6  A    between atoms: C_10  and  O_23
REMARK    7  A    between atoms: C_12  and  S_13
REMARK    8  A    between atoms: S_13  and  C_14
REMARK    9  A    between atoms: C_20  and  N_22
REMARK                            x       y       z     vdW  Elec       q    Type
REMARK                         _______ _______ _______ _____ _____    ______ ____
ROOT
ATOM      1  C   UNL     1       5.958   2.297  -0.043  0.00  0.00    +0.162 C 
ENDROOT
BRANCH   1   2
ATOM      2  O   UNL     1       5.990   3.033   1.181  0.00  0.00    -0.388 OA
ATOM      3  H   UNL     1       6.069   2.480   1.970  0.00  0.00    +0.210 HD
ENDBRANCH   1   2
BRANCH   1   4
ATOM      4  C   UNL     1       4.758   1.349  -0.036  0.00  0.00    +0.261 C 
BRANCH   4   5
ATOM      5  O   UNL     1       3.549   2.110  -0.021  0.00  0.00    -0.489 OA
BRANCH   5   8
ATOM      6  C   UNL     1      -0.017   1.384   0.010  0.00  0.00    +0.026 A 
ATOM      7  C   UNL     1       1.170   2.091   0.002  0.00  0.00    +0.047 A 
ATOM      8  C   UNL     1       2.380   1.414  -0.013  0.00  0.00    +0.121 A 
ATOM      9  C   UNL     1       2.400   0.027  -0.021  0.00  0.00    +0.047 A 
ATOM     10  C   UNL     1       1.214  -0.681  -0.013  0.00  0.00    +0.026 A 
ATOM     11  C   UNL     1       0.002  -0.004   0.002  0.00  0.00    +0.025 A 
BRANCH  11  12
ATOM     12  N   UNL     1      -1.200  -0.721   0.010  0.00  0.00    -0.358 N 
ATOM     13  H   UNL     1      -2.047  -0.247   0.021  0.00  0.00    +0.142 HD
ATOM     14  H   UNL     1      -1.186  -1.690   0.005  0.00  0.00    +0.142 HD
ENDBRANCH  11  12
ENDBRANCH   5   8
ENDBRANCH   4   5
ENDBRANCH   1   4
BRANCH   1  15
ATOM     15  C   UNL     1       7.248   1.487  -0.186  0.00  0.00    +0.112 C 
BRANCH  15  16
ATOM     16  S   UNL     1       8.671   2.612  -0.194  0.00  0.00    -0.085 S 
BRANCH  16  17
ATOM     17  C   UNL     1      10.060   1.541  -0.362  0.00  0.00    +0.171 A 
ATOM     18  N   UNL     1      11.313   2.074  -0.397  0.00  0.00    -0.302 N 
ATOM     19  H   UNL     1      11.433   3.034  -0.330  0.00  0.00    +0.171 HD
ATOM     20  C   UNL     1      12.388   1.269  -0.525  0.00  0.00    +0.254 A 
ATOM     21  O   UNL     1      13.515   1.738  -0.558  0.00  0.00    -0.268 OA
ATOM     22  C   UNL     1      12.191  -0.112  -0.620  0.00  0.00    +0.113 A 
ATOM     23  C   UNL     1      10.894  -0.605  -0.579  0.00  0.00    +0.124 A 
ATOM     24  N   UNL     1       9.866   0.241  -0.445  0.00  0.00    -0.209 NA
BRANCH  23  25
ATOM     25  N   UNL     1      10.666  -1.963  -0.670  0.00  0.00    -0.343 N 
ATOM     26  H   UNL     1      11.412  -2.575  -0.764  0.00  0.00    +0.144 HD
ATOM     27  H   UNL     1       9.758  -2.306  -0.641  0.00  0.00    +0.144 HD
ENDBRANCH  23  25
ENDBRANCH  16  17
ENDBRANCH  15  16
ENDBRANCH   1  15
TORSDOF 9
