REMARK  Name = ZINC36427656
REMARK  9 active torsions:
REMARK  status: ('A' for Active; 'I' for Inactive)
REMARK    1  A    between atoms: C_1  and  C_2
REMARK    2  A    between atoms: C_2  and  C_3
REMARK    3  A    between atoms: C_3  and  C_4
REMARK    4  A    between atoms: C_3  and  C_5
REMARK    5  A    between atoms: C_5  and  C_6
REMARK    6  A    between atoms: C_5  and  N_21
REMARK    7  A    between atoms: N_8  and  C_9
REMARK    8  A    between atoms: C_9  and  C_10
REMARK    9  A    between atoms: C_9  and  C_11
REMARK                            x       y       z     vdW  Elec       q    Type
REMARK                         _______ _______ _______ _____ _____    ______ ____
ROOT
ATOM      1  C   UNL     1       1.601  -2.533   2.392  0.00  0.00    +0.234 C 
ATOM      2  O   UNL     1       2.781  -2.805   2.325  0.00  0.00    -0.274 OA
ATOM      3  N   UNL     1       0.941  -2.677   3.558  0.00  0.00    -0.311 N 
ATOM      4  H   UNL     1      -0.002  -2.459   3.612  0.00  0.00    +0.149 HD
ENDROOT
BRANCH   3   5
ATOM      5  C   UNL     1       1.650  -3.162   4.745  0.00  0.00    +0.076 C 
ATOM      6  C   UNL     1       1.671  -4.692   4.737  0.00  0.00    +0.028 C 
BRANCH   5   7
ATOM      7  C   UNL     1       0.934  -2.669   6.004  0.00  0.00    -0.010 C 
ATOM      8  C   UNL     1       0.913  -1.139   6.012  0.00  0.00    +0.012 C 
ATOM      9  C   UNL     1       0.197  -0.646   7.271  0.00  0.00    -0.010 C 
ATOM     10  C   UNL     1       0.937  -1.153   8.511  0.00  0.00    +0.007 C 
ATOM     11  C   UNL     1       0.958  -2.682   8.502  0.00  0.00    -0.010 C 
ATOM     12  C   UNL     1       1.674  -3.176   7.244  0.00  0.00    +0.012 C 
ATOM     13  C   UNL     1      -0.478  -3.212   8.513  0.00  0.00    +0.007 C 
ATOM     14  C   UNL     1      -1.218  -2.705   7.274  0.00  0.00    -0.010 C 
ATOM     15  C   UNL     1      -1.238  -1.175   7.282  0.00  0.00    +0.007 C 
ATOM     16  C   UNL     1      -0.502  -3.199   6.015  0.00  0.00    +0.012 C 
ENDBRANCH   5   7
ENDBRANCH   3   5
BRANCH   1  17
ATOM     17  C   UNL     1       0.872  -2.034   1.171  0.00  0.00    +0.163 C 
BRANCH  17  18
ATOM     18  N   UNL     1       1.622  -2.405  -0.032  0.00  0.00    -0.288 N 
ATOM     19  C   UNL     1       2.884  -1.962  -0.202  0.00  0.00    +0.298 C 
ATOM     20  O   UNL     1       3.399  -1.255   0.642  0.00  0.00    -0.253 OA
ATOM     21  N   UNL     1       3.574  -2.303  -1.308  0.00  0.00    -0.313 N 
ATOM     22  H   UNL     1       1.211  -2.969  -0.705  0.00  0.00    +0.151 HD
ATOM     23  H   UNL     1       3.163  -2.867  -1.982  0.00  0.00    +0.146 HD
ATOM     24  H   UNL     1       4.482  -1.984  -1.431  0.00  0.00    +0.146 HD
ENDBRANCH  17  18
BRANCH  17  25
ATOM     25  C   UNL     1       0.742  -0.511   1.242  0.00  0.00    +0.015 C 
ATOM     26  C   UNL     1      -0.042  -0.124   2.497  0.00  0.00    +0.010 C 
BRANCH  25  28
ATOM     27  C   UNL     1      -0.019   1.526   0.010  0.00  0.00    +0.004 C 
ATOM     28  C   UNL     1       0.002  -0.004   0.002  0.00  0.00    +0.002 C 
ENDBRANCH  25  28
ENDBRANCH  17  25
ENDBRANCH   1  17
TORSDOF 6
