REMARK  Name = ZINC09504706
REMARK  10 active torsions:
REMARK  status: ('A' for Active; 'I' for Inactive)
REMARK    1  A    between atoms: C_1  and  C_2
REMARK    2  A    between atoms: C_2  and  C_3
REMARK    3  A    between atoms: N_12  and  C_13
REMARK    4  A    between atoms: C_13  and  C_14
REMARK    5  A    between atoms: C_14  and  N_63
REMARK    6  A    between atoms: C_15  and  N_63
REMARK    7  A    between atoms: C_16  and  N_63
REMARK    8  A    between atoms: C_17  and  C_19
REMARK    9  A    between atoms: N_22  and  S_25
REMARK   10  A    between atoms: S_25  and  C_28
REMARK                            x       y       z     vdW  Elec       q    Type
REMARK                         _______ _______ _______ _____ _____    ______ ____
ROOT
ATOM      1  C   UNL     1       0.104   3.308  -0.089  0.00  0.00    -0.046 A 
ATOM      2  C   UNL     1      -0.710   4.061  -0.923  0.00  0.00    +0.006 A 
ATOM      3  C   UNL     1      -0.798   5.423  -0.798  0.00  0.00    +0.029 A 
ATOM      4  C   UNL     1      -0.056   6.108   0.192  0.00  0.00    +0.080 A 
ATOM      5  C   UNL     1       0.762   5.309   1.022  0.00  0.00    +0.041 A 
ATOM      6  C   UNL     1       0.840   3.945   0.893  0.00  0.00    +0.021 A 
ATOM      7  S   UNL     1       1.500   6.515   2.098  0.00  0.00    -0.052 S 
ATOM      8  C   UNL     1       0.704   7.955   1.401  0.00  0.00    +0.168 A 
ATOM      9  N   UNL     1      -0.031   7.434   0.447  0.00  0.00    -0.224 NA
ATOM     10  N   UNL     1       0.830   9.283   1.774  0.00  0.00    -0.252 N 
ATOM     11  C   UNL     1       1.746   9.640   2.696  0.00  0.00    +0.224 C 
ATOM     12  O   UNL     1       1.786  10.783   3.100  0.00  0.00    -0.275 OA
ENDROOT
BRANCH  11  13
ATOM     13  C   UNL     1       2.720   8.620   3.225  0.00  0.00    +0.078 C 
ATOM     14  C   UNL     1       2.087   7.870   4.399  0.00  0.00    +0.030 C 
ATOM     15  C   UNL     1       3.067   6.810   4.912  0.00  0.00    +0.110 C 
ATOM     16  N   UNL     1       4.344   7.462   5.231  0.00  0.00    -0.176 NA
ATOM     17  C   UNL     1       4.995   8.283   4.201  0.00  0.00    +0.110 C 
ATOM     18  C   UNL     1       3.994   9.326   3.696  0.00  0.00    +0.030 C 
BRANCH  16  19
ATOM     19  S   UNL     1       5.037   7.276   6.723  0.00  0.00    +0.067 S 
ATOM     20  O   UNL     1       4.529   6.061   7.258  0.00  0.00    -0.152 OA
ATOM     21  O   UNL     1       6.428   7.512   6.558  0.00  0.00    -0.152 OA
BRANCH  19  22
ATOM     22  C   UNL     1       4.425   8.572   7.748  0.00  0.00    +0.143 A 
ATOM     23  C   UNL     1       3.322   8.589   8.536  0.00  0.00    +0.036 A 
ATOM     24  C   UNL     1       3.035   9.729   9.263  0.00  0.00    +0.010 A 
ATOM     25  C   UNL     1       3.859  10.800   9.159  0.00  0.00    +0.047 A 
ATOM     26  S   UNL     1       5.091  10.207   8.011  0.00  0.00    -0.077 S 
ENDBRANCH  19  22
ENDBRANCH  16  19
ENDBRANCH  11  13
BRANCH   1  28
ATOM     27  C   UNL     1       1.300   1.461  -1.231  0.00  0.00    +0.009 C 
ATOM     28  C   UNL     1       0.181   1.812  -0.249  0.00  0.00    +0.032 C 
ENDBRANCH   1  28
BRANCH  10  29
ATOM     29  C   UNL     1      -0.032  10.300   1.166  0.00  0.00    +0.097 C 
BRANCH  29  30
ATOM     30  C   UNL     1      -1.347  10.384   1.943  0.00  0.00    -0.060 C 
BRANCH  30  33
ATOM     31  C   UNL     1      -3.567  11.350   1.897  0.00  0.00    -0.097 C 
ATOM     32  C   UNL     1      -1.631  12.744   1.483  0.00  0.00    -0.097 C 
ATOM     33  N   UNL     1      -2.214  11.398   1.305  0.00  0.00    +0.377 N 
ATOM     34  H   UNL     1      -2.282  11.194   0.301  0.00  0.00    -0.083 HD
ENDBRANCH  30  33
ENDBRANCH  29  30
ENDBRANCH  10  29
TORSDOF 7
