REMARK  Name = ZINC35673598
REMARK  7 active torsions:
REMARK  status: ('A' for Active; 'I' for Inactive)
REMARK    1  A    between atoms: C_4  and  C_7
REMARK    2  A    between atoms: N_9  and  C_34
REMARK    3  A    between atoms: C_13  and  C_15
REMARK    4  A    between atoms: C_15  and  N_16
REMARK    5  A    between atoms: N_16  and  C_17
REMARK    6  A    between atoms: C_17  and  C_18
REMARK    7  A    between atoms: C_23  and  C_25
REMARK                            x       y       z     vdW  Elec       q    Type
REMARK                         _______ _______ _______ _____ _____    ______ ____
ROOT
ATOM      1  C   UNL     1       5.123  -1.951   1.725  0.00  0.00    +0.091 A 
ATOM      2  C   UNL     1       5.578  -3.226   1.633  0.00  0.00    +0.122 A 
ATOM      3  N   UNL     1       6.875  -3.154   1.186  0.00  0.00    -0.287 N 
ATOM      4  C   UNL     1       7.171  -1.833   1.019  0.00  0.00    +0.207 A 
ATOM      5  N   UNL     1       6.117  -1.123   1.338  0.00  0.00    -0.214 NA
ATOM      6  N   UNL     1       8.386  -1.325   0.578  0.00  0.00    -0.254 N 
ATOM      7  C   UNL     1       8.554   0.006   0.453  0.00  0.00    +0.237 C 
ATOM      8  O   UNL     1       7.645   0.761   0.727  0.00  0.00    -0.274 OA
ATOM      9  H   UNL     1       9.113  -1.928   0.359  0.00  0.00    +0.158 HD
ENDROOT
BRANCH   1  13
ATOM     10  C   UNL     1       1.240  -0.770   2.993  0.00  0.00    +0.000 A 
ATOM     11  C   UNL     1       2.166   0.189   2.623  0.00  0.00    +0.001 A 
ATOM     12  C   UNL     1       3.427  -0.188   2.211  0.00  0.00    +0.010 A 
ATOM     13  C   UNL     1       3.769  -1.539   2.168  0.00  0.00    +0.002 A 
ATOM     14  C   UNL     1       2.832  -2.501   2.542  0.00  0.00    +0.010 A 
ATOM     15  C   UNL     1       1.573  -2.112   2.952  0.00  0.00    +0.001 A 
ENDBRANCH   1  13
BRANCH   3  16
ATOM     16  C   UNL     1       7.734  -4.235   0.946  0.00  0.00    +0.049 A 
ATOM     17  C   UNL     1       8.424  -4.322  -0.255  0.00  0.00    +0.026 A 
ATOM     18  C   UNL     1       9.270  -5.389  -0.488  0.00  0.00    +0.002 A 
ATOM     19  C   UNL     1       9.430  -6.369   0.474  0.00  0.00    +0.000 A 
ATOM     20  C   UNL     1       8.744  -6.285   1.671  0.00  0.00    +0.002 A 
ATOM     21  C   UNL     1       7.901  -5.218   1.912  0.00  0.00    +0.026 A 
ENDBRANCH   3  16
BRANCH   7  22
ATOM     22  C   UNL     1       9.872   0.558  -0.025  0.00  0.00    +0.204 C 
BRANCH  22  23
ATOM     23  N   UNL     1       9.801   2.020  -0.074  0.00  0.00    -0.281 N 
ATOM     24  C   UNL     1       9.603   2.646  -1.251  0.00  0.00    +0.248 C 
ATOM     25  O   UNL     1       9.571   3.861  -1.295  0.00  0.00    -0.270 OA
BRANCH  24  26
ATOM     26  C   UNL     1       9.426   1.858  -2.486  0.00  0.00    +0.041 A 
ATOM     27  C   UNL     1       8.980   0.536  -2.415  0.00  0.00    +0.017 A 
ATOM     28  C   UNL     1       8.814  -0.199  -3.568  0.00  0.00    +0.050 A 
ATOM     29  C   UNL     1       9.089   0.370  -4.805  0.00  0.00    +0.166 A 
ATOM     30  C   UNL     1       9.536   1.690  -4.883  0.00  0.00    +0.167 A 
ATOM     31  C   UNL     1       9.698   2.433  -3.730  0.00  0.00    +0.062 A 
ATOM     32  O   UNL     1       9.732   2.006  -6.197  0.00  0.00    -0.453 OA
ATOM     33  C   UNL     1       9.794   0.746  -6.889  0.00  0.00    +0.466 C 
ATOM     34  O   UNL     1       9.006  -0.136  -6.068  0.00  0.00    -0.453 OA
ENDBRANCH  24  26
BRANCH  23  35
ATOM     35  C   UNL     1       9.946   2.802   1.156  0.00  0.00    +0.182 C 
BRANCH  35  36
ATOM     36  C   UNL     1      11.384   3.219   1.321  0.00  0.00    +0.122 A 
ATOM     37  C   UNL     1      11.954   4.311   0.780  0.00  0.00    +0.046 A 
ATOM     38  C   UNL     1      13.307   4.313   1.190  0.00  0.00    +0.041 A 
ATOM     39  C   UNL     1      13.484   3.222   1.956  0.00  0.00    +0.195 A 
ATOM     40  O   UNL     1      12.315   2.566   2.037  0.00  0.00    -0.466 OA
ENDBRANCH  35  36
ENDBRANCH  23  35
ENDBRANCH  22  23
ENDBRANCH   7  22
TORSDOF 7
