REMARK  Name = ZINC33517201
REMARK  6 active torsions:
REMARK  status: ('A' for Active; 'I' for Inactive)
REMARK    1  A    between atoms: C_4  and  C_7
REMARK    2  A    between atoms: C_7  and  C_8
REMARK    3  A    between atoms: C_7  and  C_14
REMARK    4  A    between atoms: N_16  and  N_17
REMARK    5  A    between atoms: C_18  and  C_19
REMARK    6  A    between atoms: C_21  and  N_26
REMARK                            x       y       z     vdW  Elec       q    Type
REMARK                         _______ _______ _______ _____ _____    ______ ____
ROOT
ATOM      1  C   UNL     1      -1.855   4.186  -1.249  0.00  0.00    +0.244 C 
ATOM      2  O   UNL     1      -2.986   3.809  -1.024  0.00  0.00    -0.273 OA
ATOM      3  N   UNL     1      -0.808   3.396  -0.943  0.00  0.00    -0.206 N 
ATOM      4  H   UNL     1       0.212   3.701  -1.220  0.00  0.00    +0.177 HD
ENDROOT
BRANCH   3   5
ATOM      5  N   UNL     1      -1.017   2.185  -0.270  0.00  0.00    -0.188 NA
ATOM      6  C   UNL     1      -0.003   1.491   0.148  0.00  0.00    +0.139 C 
BRANCH   6   7
ATOM      7  C   UNL     1       1.284   2.158   0.421  0.00  0.00    +0.015 A 
ATOM      8  C   UNL     1       1.330   3.539   0.625  0.00  0.00    +0.043 A 
ATOM      9  C   UNL     1       2.536   4.155   0.885  0.00  0.00    +0.127 A 
ATOM     10  C   UNL     1       3.701   3.410   0.933  0.00  0.00    +0.034 A 
ATOM     11  C   UNL     1       3.666   2.042   0.728  0.00  0.00    +0.023 A 
ATOM     12  C   UNL     1       2.464   1.411   0.472  0.00  0.00    +0.050 A 
ATOM     13 CL   UNL     1       2.421  -0.305   0.213  0.00  0.00    -0.083 Cl
BRANCH   9  14
ATOM     14  N   UNL     1       2.585   5.617   1.107  0.00  0.00    +0.056 N 
ATOM     15  O   UNL     1       3.650   6.164   1.331  0.00  0.00    -0.126 OA
ATOM     16  O   UNL     1       1.560   6.275   1.065  0.00  0.00    -0.126 OA
ENDBRANCH   9  14
ENDBRANCH   6   7
ENDBRANCH   3   5
BRANCH   1  17
ATOM     17  C   UNL     1      -1.622   5.539  -1.871  0.00  0.00    +0.136 C 
BRANCH  17  21
ATOM     18  C   UNL     1       0.433   5.064  -5.585  0.00  0.00    +0.000 A 
ATOM     19  C   UNL     1      -0.531   4.149  -5.207  0.00  0.00    +0.000 A 
ATOM     20  C   UNL     1      -1.196   4.303  -4.005  0.00  0.00    +0.005 A 
ATOM     21  C   UNL     1      -0.897   5.372  -3.181  0.00  0.00    -0.031 A 
ATOM     22  C   UNL     1       0.064   6.290  -3.562  0.00  0.00    +0.005 A 
ATOM     23  C   UNL     1       0.732   6.133  -4.761  0.00  0.00    +0.000 A 
ENDBRANCH  17  21
BRANCH  17  24
ATOM     24  C   UNL     1      -2.947   6.216  -2.112  0.00  0.00    -0.031 A 
ATOM     25  C   UNL     1      -3.914   5.590  -2.876  0.00  0.00    +0.005 A 
ATOM     26  C   UNL     1      -5.130   6.208  -3.094  0.00  0.00    +0.000 A 
ATOM     27  C   UNL     1      -5.377   7.458  -2.556  0.00  0.00    +0.000 A 
ATOM     28  C   UNL     1      -4.407   8.087  -1.797  0.00  0.00    +0.000 A 
ATOM     29  C   UNL     1      -3.193   7.466  -1.575  0.00  0.00    +0.005 A 
ENDBRANCH  17  24
ENDBRANCH   1  17
TORSDOF 6
