REMARK  Name = ZINC35357438
REMARK  15 active torsions:
REMARK  status: ('A' for Active; 'I' for Inactive)
REMARK    1  A    between atoms: C_1  and  C_2
REMARK    2  A    between atoms: C_2  and  C_3
REMARK    3  A    between atoms: C_2  and  N_4
REMARK    4  A    between atoms: N_4  and  C_5
REMARK    5  A    between atoms: N_4  and  S_25
REMARK    6  A    between atoms: C_5  and  C_6
REMARK    7  A    between atoms: N_8  and  C_9
REMARK    8  A    between atoms: N_8  and  C_19
REMARK    9  A    between atoms: C_9  and  C_10
REMARK   10  A    between atoms: C_19  and  C_20
REMARK   11  A    between atoms: S_25  and  C_28
REMARK   12  A    between atoms: C_31  and  C_34
REMARK   13  A    between atoms: C_34  and  C_35
REMARK   14  A    between atoms: C_34  and  C_36
REMARK   15  A    between atoms: C_34  and  C_37
REMARK                            x       y       z     vdW  Elec       q    Type
REMARK                         _______ _______ _______ _____ _____    ______ ____
ROOT
ATOM      1  C   UNL     1      -2.916   1.159   0.858  0.00  0.00    +0.232 C 
ATOM      2  O   UNL     1      -2.655   1.770  -0.157  0.00  0.00    -0.274 OA
ATOM      3  N   UNL     1      -3.786   1.674   1.749  0.00  0.00    -0.289 N 
ENDROOT
BRANCH   1   4
ATOM      4  C   UNL     1      -2.269  -0.175   1.122  0.00  0.00    +0.205 C 
BRANCH   4   5
ATOM      5  N   UNL     1      -1.372  -0.511   0.012  0.00  0.00    -0.165 NA
BRANCH   5   7
ATOM      6  C   UNL     1      -0.019   1.526   0.010  0.00  0.00    +0.025 C 
ATOM      7  C   UNL     1       0.002  -0.004   0.002  0.00  0.00    +0.074 C 
ATOM      8  C   UNL     1       0.742  -0.511   1.242  0.00  0.00    +0.025 C 
ENDBRANCH   5   7
BRANCH   5   9
ATOM      9  S   UNL     1      -1.913  -1.464  -1.230  0.00  0.00    +0.061 S 
ATOM     10  O   UNL     1      -3.328  -1.333  -1.256  0.00  0.00    -0.153 OA
ATOM     11  O   UNL     1      -1.099  -1.164  -2.355  0.00  0.00    -0.153 OA
BRANCH   9  12
ATOM     12  C   UNL     1      -1.570  -3.136  -0.791  0.00  0.00    +0.106 A 
ATOM     13  C   UNL     1      -0.362  -3.709  -1.142  0.00  0.00    +0.029 A 
ATOM     14  C   UNL     1      -0.094  -5.020  -0.798  0.00  0.00    +0.006 A 
ATOM     15  C   UNL     1      -1.033  -5.759  -0.102  0.00  0.00    -0.042 A 
ATOM     16  C   UNL     1      -2.240  -5.185   0.250  0.00  0.00    +0.006 A 
ATOM     17  C   UNL     1      -2.507  -3.872  -0.091  0.00  0.00    +0.029 A 
BRANCH  15  18
ATOM     18  C   UNL     1      -0.740  -7.189   0.272  0.00  0.00    -0.013 C 
ATOM     19  C   UNL     1       0.503  -7.239   1.162  0.00  0.00    +0.015 C 
ATOM     20  C   UNL     1      -1.934  -7.772   1.030  0.00  0.00    +0.015 C 
ATOM     21  C   UNL     1      -0.492  -8.008  -0.997  0.00  0.00    +0.015 C 
ENDBRANCH  15  18
ENDBRANCH   9  12
ENDBRANCH   5   9
ENDBRANCH   4   5
ENDBRANCH   1   4
BRANCH   3  22
ATOM     22  C   UNL     1      -4.416   2.972   1.492  0.00  0.00    +0.143 C 
BRANCH  22  23
ATOM     23  C   UNL     1      -5.703   2.765   0.736  0.00  0.00    -0.026 A 
ATOM     24  C   UNL     1      -5.696   2.748  -0.646  0.00  0.00    +0.009 A 
ATOM     25  C   UNL     1      -6.874   2.558  -1.344  0.00  0.00    +0.050 A 
ATOM     26  C   UNL     1      -8.065   2.384  -0.659  0.00  0.00    +0.166 A 
ATOM     27  C   UNL     1      -8.072   2.401   0.734  0.00  0.00    +0.167 A 
ATOM     28  C   UNL     1      -6.887   2.586   1.427  0.00  0.00    +0.054 A 
ATOM     29  O   UNL     1      -9.353   2.210   1.165  0.00  0.00    -0.453 OA
ATOM     30  C   UNL     1     -10.188   2.484   0.025  0.00  0.00    +0.466 C 
ATOM     31  O   UNL     1      -9.341   2.183  -1.099  0.00  0.00    -0.453 OA
ENDBRANCH  22  23
ENDBRANCH   3  22
BRANCH   3  32
ATOM     32  C   UNL     1      -4.102   0.937   2.975  0.00  0.00    +0.182 C 
BRANCH  32  33
ATOM     33  C   UNL     1      -3.139   1.336   4.063  0.00  0.00    +0.122 A 
ATOM     34  C   UNL     1      -3.316   2.339   4.941  0.00  0.00    +0.046 A 
ATOM     35  C   UNL     1      -2.175   2.359   5.777  0.00  0.00    +0.041 A 
ATOM     36  C   UNL     1      -1.370   1.366   5.359  0.00  0.00    +0.195 A 
ATOM     37  O   UNL     1      -1.961   0.746   4.325  0.00  0.00    -0.466 OA
ENDBRANCH  32  33
ENDBRANCH   3  32
TORSDOF 10
