REMARK  Name = ZINC58914320
REMARK  13 active torsions:
REMARK  status: ('A' for Active; 'I' for Inactive)
REMARK    1  A    between atoms: C_1  and  C_2
REMARK    2  A    between atoms: C_6  and  C_37
REMARK    3  A    between atoms: C_7  and  N_8
REMARK    4  A    between atoms: C_9  and  C_36
REMARK    5  A    between atoms: C_11  and  C_14
REMARK    6  A    between atoms: C_12  and  C_13
REMARK    7  A    between atoms: N_15  and  N_16
REMARK    8  A    between atoms: C_17  and  C_19
REMARK    9  A    between atoms: C_19  and  N_20
REMARK   10  A    between atoms: N_20  and  C_21
REMARK   11  A    between atoms: N_20  and  S_27
REMARK   12  A    between atoms: C_21  and  C_22
REMARK   13  A    between atoms: S_27  and  C_30
REMARK                            x       y       z     vdW  Elec       q    Type
REMARK                         _______ _______ _______ _____ _____    ______ ____
ROOT
ATOM      1  N   UNL     1      -3.276   0.589   3.833  0.00  0.00    -0.206 N 
ATOM      2  C   UNL     1      -4.602   0.395   3.686  0.00  0.00    +0.248 C 
ATOM      3  O   UNL     1      -5.375   0.835   4.511  0.00  0.00    -0.273 OA
ATOM      4  H   UNL     1      -2.659   0.237   3.173  0.00  0.00    +0.177 HD
ENDROOT
BRANCH   1   6
ATOM      5  C   UNL     1      -1.512   1.380   5.148  0.00  0.00    +0.140 C 
ATOM      6  N   UNL     1      -2.791   1.297   4.940  0.00  0.00    -0.188 NA
BRANCH   5  10
ATOM      7  N   UNL     1       1.239  -0.176   3.337  0.00  0.00    -0.317 N 
ATOM      8  C   UNL     1       0.248  -1.060   3.021  0.00  0.00    +0.022 A 
ATOM      9  C   UNL     1      -0.895  -0.660   3.608  0.00  0.00    +0.032 A 
ATOM     10  C   UNL     1      -0.581   0.568   4.344  0.00  0.00    +0.016 A 
ATOM     11  C   UNL     1       0.748   0.807   4.140  0.00  0.00    +0.030 A 
ATOM     12  C   UNL     1       1.534   1.962   4.704  0.00  0.00    +0.064 C 
ATOM     13  C   UNL     1       0.408  -2.283   2.155  0.00  0.00    +0.064 C 
BRANCH   7  20
ATOM     14  C   UNL     1       3.078  -1.638   4.945  0.00  0.00    +0.046 C 
ATOM     15  C   UNL     1       3.498  -0.974   3.659  0.00  0.00    -0.026 A 
ATOM     16  C   UNL     1       4.806  -1.069   3.226  0.00  0.00    +0.005 A 
ATOM     17  C   UNL     1       5.192  -0.460   2.046  0.00  0.00    +0.001 A 
ATOM     18  C   UNL     1       4.271   0.246   1.296  0.00  0.00    +0.005 A 
ATOM     19  C   UNL     1       2.961   0.345   1.722  0.00  0.00    -0.026 A 
ATOM     20  C   UNL     1       2.569  -0.270   2.904  0.00  0.00    +0.052 A 
ATOM     21  C   UNL     1       1.957   1.115   0.904  0.00  0.00    +0.046 C 
ENDBRANCH   7  20
ENDBRANCH   5  10
ENDBRANCH   1   6
BRANCH   2  22
ATOM     22  C   UNL     1      -5.124  -0.367   2.495  0.00  0.00    +0.207 C 
BRANCH  22  23
ATOM     23  N   UNL     1      -6.586  -0.439   2.565  0.00  0.00    -0.160 NA
BRANCH  23  24
ATOM     24  S   UNL     1      -7.318  -1.764   3.236  0.00  0.00    +0.062 S 
ATOM     25  O   UNL     1      -8.626  -1.829   2.683  0.00  0.00    -0.153 OA
ATOM     26  O   UNL     1      -6.393  -2.837   3.130  0.00  0.00    -0.153 OA
BRANCH  24  27
ATOM     27  C   UNL     1      -7.514  -1.436   4.956  0.00  0.00    +0.106 A 
ATOM     28  C   UNL     1      -6.515  -1.787   5.844  0.00  0.00    +0.028 A 
ATOM     29  C   UNL     1      -6.668  -1.529   7.194  0.00  0.00    +0.002 A 
ATOM     30  C   UNL     1      -7.821  -0.920   7.654  0.00  0.00    +0.000 A 
ATOM     31  C   UNL     1      -8.820  -0.569   6.766  0.00  0.00    +0.002 A 
ATOM     32  C   UNL     1      -8.664  -0.823   5.416  0.00  0.00    +0.028 A 
ENDBRANCH  24  27
ENDBRANCH  23  24
BRANCH  23  33
ATOM     33  C   UNL     1      -7.400   0.660   2.040  0.00  0.00    +0.184 C 
BRANCH  33  34
ATOM     34  C   UNL     1      -7.605   0.472   0.559  0.00  0.00    +0.120 A 
ATOM     35  C   UNL     1      -8.620  -0.197  -0.015  0.00  0.00    +0.046 A 
ATOM     36  C   UNL     1      -8.420  -0.125  -1.413  0.00  0.00    +0.041 A 
ATOM     37  C   UNL     1      -7.294   0.585  -1.609  0.00  0.00    +0.195 A 
ATOM     38  O   UNL     1      -6.808   0.948  -0.411  0.00  0.00    -0.466 OA
ENDBRANCH  33  34
ENDBRANCH  23  33
ENDBRANCH  22  23
ENDBRANCH   2  22
TORSDOF 9
