REMARK  Name = ZINC39623241
REMARK  4 active torsions:
REMARK  status: ('A' for Active; 'I' for Inactive)
REMARK    1  A    between atoms: C_5  and  C_7
REMARK    2  A    between atoms: C_7  and  N_8
REMARK    3  A    between atoms: C_9  and  C_11
REMARK    4  A    between atoms: C_22  and  C_24
REMARK                            x       y       z     vdW  Elec       q    Type
REMARK                         _______ _______ _______ _____ _____    ______ ____
ROOT
ATOM      1  C   UNL     1       1.402  -4.350   2.131  0.00  0.00    +0.100 C 
ATOM      2  C   UNL     1       0.678  -4.009   3.452  0.00  0.00    +0.121 C 
ATOM      3  N   UNL     1      -0.340  -5.075   3.607  0.00  0.00    -0.300 N 
ATOM      4  C   UNL     1       0.345  -6.308   3.153  0.00  0.00    +0.115 C 
ATOM      5  C   UNL     1       1.185  -5.861   1.940  0.00  0.00    -0.004 C 
ATOM      6  C   UNL     1       2.525  -6.590   1.926  0.00  0.00    -0.010 C 
ATOM      7  C   UNL     1       2.286  -8.082   1.677  0.00  0.00    -0.082 C 
ATOM      8  N   UNL     1       1.596  -8.261   0.394  0.00  0.00    +0.379 N 
ATOM      9  C   UNL     1       0.269  -7.636   0.448  0.00  0.00    -0.082 C 
ATOM     10  C   UNL     1       0.422  -6.125   0.645  0.00  0.00    -0.010 C 
ATOM     11  C   UNL     1      -1.603  -4.950   4.060  0.00  0.00    +0.219 C 
ATOM     12  O   UNL     1      -2.048  -3.853   4.323  0.00  0.00    -0.275 OA
ATOM     13  H   UNL     1       2.138  -7.833  -0.341  0.00  0.00    -0.086 HD
ATOM     14  H   UNL     1       1.494  -9.247   0.203  0.00  0.00    -0.086 HD
ENDROOT
BRANCH  11  15
ATOM     15  C   UNL     1      -2.464  -6.175   4.238  0.00  0.00    +0.079 C 
ATOM     16  C   UNL     1      -3.944  -5.782   4.151  0.00  0.00    +0.017 C 
ATOM     17  C   UNL     1      -4.785  -7.061   4.156  0.00  0.00    +0.027 C 
ATOM     18  C   UNL     1      -4.357  -7.956   5.282  0.00  0.00    -0.031 C 
ATOM     19  C   UNL     1      -3.234  -7.840   5.915  0.00  0.00    -0.030 C 
ATOM     20  C   UNL     1      -2.202  -6.791   5.615  0.00  0.00    +0.039 C 
ENDBRANCH  11  15
BRANCH   1  22
ATOM     21  N   UNL     1       1.548  -3.249  -0.079  0.00  0.00    -0.311 N 
ATOM     22  C   UNL     1       0.792  -3.584   0.985  0.00  0.00    +0.218 C 
ATOM     23  O   UNL     1      -0.378  -3.268   1.022  0.00  0.00    -0.275 OA
ATOM     24  H   UNL     1       2.484  -3.501  -0.108  0.00  0.00    +0.149 HD
BRANCH  21  25
ATOM     25  C   UNL     1       0.956  -2.503  -1.193  0.00  0.00    +0.141 C 
BRANCH  25  30
ATOM     26  C   UNL     1       3.595  -0.803  -3.289  0.00  0.00    +0.000 A 
ATOM     27  C   UNL     1       3.927  -1.805  -4.182  0.00  0.00    +0.001 A 
ATOM     28  C   UNL     1       3.298  -3.033  -4.108  0.00  0.00    +0.020 A 
ATOM     29  C   UNL     1       2.336  -3.260  -3.140  0.00  0.00    +0.046 A 
ATOM     30  C   UNL     1       2.004  -2.257  -2.247  0.00  0.00    -0.012 A 
ATOM     31  C   UNL     1       2.634  -1.029  -2.322  0.00  0.00    +0.006 A 
ATOM     32 CL   UNL     1       1.544  -4.803  -3.047  0.00  0.00    -0.083 Cl
ENDBRANCH  25  30
ENDBRANCH  21  25
ENDBRANCH   1  22
TORSDOF 4
