REMARK  Name = ZINC55334112
REMARK  5 active torsions:
REMARK  status: ('A' for Active; 'I' for Inactive)
REMARK    1  A    between atoms: C_3  and  N_21
REMARK    2  A    between atoms: C_6  and  C_7
REMARK    3  A    between atoms: C_7  and  N_8
REMARK    4  A    between atoms: C_9  and  C_11
REMARK    5  A    between atoms: C_11  and  C_12
REMARK                            x       y       z     vdW  Elec       q    Type
REMARK                         _______ _______ _______ _____ _____    ______ ____
ROOT
ATOM      1  C   UNL     1      -1.300  -0.764  -0.014  0.00  0.00    +0.139 C 
ENDROOT
BRANCH   1   7
ATOM      2  C   UNL     1      -0.013   1.376  -0.181  0.00  0.00    +0.007 A 
ATOM      3  C   UNL     1       1.175   2.082  -0.183  0.00  0.00    +0.023 A 
ATOM      4  C   UNL     1       2.379   1.411  -0.019  0.00  0.00    +0.035 A 
ATOM      5  C   UNL     1       2.386   0.033   0.147  0.00  0.00    +0.023 A 
ATOM      6  C   UNL     1       1.196  -0.667   0.148  0.00  0.00    +0.007 A 
ATOM      7  C   UNL     1      -0.002   0.003  -0.016  0.00  0.00    -0.030 A 
BRANCH   4   8
ATOM      8  N   UNL     1       3.584   2.124  -0.021  0.00  0.00    -0.270 N 
ATOM      9  C   UNL     1       3.628   3.375   0.478  0.00  0.00    +0.301 C 
ATOM     10  O   UNL     1       2.647   3.849   1.017  0.00  0.00    -0.253 OA
ATOM     11  N   UNL     1       4.760   4.100   0.379  0.00  0.00    -0.313 N 
ATOM     12  H   UNL     1       4.387   1.717  -0.382  0.00  0.00    +0.156 HD
ATOM     13  H   UNL     1       5.542   3.722  -0.051  0.00  0.00    +0.146 HD
ATOM     14  H   UNL     1       4.791   5.001   0.739  0.00  0.00    +0.146 HD
ENDBRANCH   4   8
ENDBRANCH   1   7
BRANCH   1  15
ATOM     15  N   UNL     1      -1.625  -1.176  -1.381  0.00  0.00    -0.311 N 
ATOM     16  C   UNL     1      -2.749  -1.880  -1.623  0.00  0.00    +0.218 C 
ATOM     17  O   UNL     1      -3.491  -2.172  -0.709  0.00  0.00    -0.275 OA
ATOM     18  H   UNL     1      -1.032  -0.943  -2.112  0.00  0.00    +0.149 HD
BRANCH  16  19
ATOM     19  C   UNL     1      -3.084  -2.304  -3.030  0.00  0.00    +0.130 C 
BRANCH  19  20
ATOM     20  C   UNL     1      -4.381  -3.071  -3.028  0.00  0.00    -0.038 A 
ATOM     21  C   UNL     1      -4.374  -4.443  -2.857  0.00  0.00    +0.004 A 
ATOM     22  C   UNL     1      -5.564  -5.144  -2.855  0.00  0.00    +0.004 A 
ATOM     23  C   UNL     1      -6.766  -4.477  -3.024  0.00  0.00    -0.044 A 
ATOM     24  C   UNL     1      -6.773  -3.105  -3.195  0.00  0.00    -0.044 A 
ATOM     25  C   UNL     1      -5.579  -2.404  -3.191  0.00  0.00    +0.008 A 
ATOM     26  C   UNL     1      -8.197  -2.618  -3.358  0.00  0.00    +0.036 C 
ATOM     27  C   UNL     1      -9.018  -3.878  -3.705  0.00  0.00    +0.009 C 
ATOM     28  C   UNL     1      -8.184  -5.005  -3.061  0.00  0.00    +0.036 C 
ENDBRANCH  19  20
ENDBRANCH  16  19
ENDBRANCH   1  15
TORSDOF 5
