REMARK  Name = ZINC38705369
REMARK  12 active torsions:
REMARK  status: ('A' for Active; 'I' for Inactive)
REMARK    1  A    between atoms: C_1  and  C_2
REMARK    2  A    between atoms: C_4  and  C_34
REMARK    3  A    between atoms: C_5  and  C_9
REMARK    4  A    between atoms: C_6  and  O_8
REMARK    5  A    between atoms: N_17  and  C_30
REMARK    6  A    between atoms: C_18  and  C_20
REMARK    7  A    between atoms: C_22  and  O_28
REMARK    8  A    between atoms: C_23  and  O_27
REMARK    9  A    between atoms: O_28  and  C_29
REMARK   10  A    between atoms: C_30  and  C_31
REMARK   11  A    between atoms: C_31  and  C_32
REMARK   12  A    between atoms: C_32  and  O_33
REMARK                            x       y       z     vdW  Elec       q    Type
REMARK                         _______ _______ _______ _____ _____    ______ ____
ROOT
ATOM      1  C   UNL     1      -0.182  -4.632  -0.104  0.00  0.00    +0.102 A 
ATOM      2  C   UNL     1       0.064  -5.304   1.099  0.00  0.00    +0.035 A 
ATOM      3  C   UNL     1       0.107  -6.647   0.777  0.00  0.00    +0.126 A 
ATOM      4  N   UNL     1      -0.110  -6.722  -0.569  0.00  0.00    -0.272 N 
ATOM      5  H   UNL     1      -0.136  -7.544  -1.084  0.00  0.00    +0.189 HD
ATOM      6  N   UNL     1      -0.279  -5.543  -1.052  0.00  0.00    -0.173 NA
ATOM      7  C   UNL     1       0.363  -7.412   2.003  0.00  0.00    +0.265 C 
ATOM      8  O   UNL     1       0.458  -8.623   2.059  0.00  0.00    -0.268 OA
ATOM      9  N   UNL     1       0.476  -6.583   3.057  0.00  0.00    -0.285 N 
ATOM     10  C   UNL     1       0.301  -5.205   2.581  0.00  0.00    +0.141 C 
ENDROOT
BRANCH   1  15
ATOM     11  C   UNL     1      -0.708   1.067  -0.785  0.00  0.00    +0.044 C 
ATOM     12  C   UNL     1      -0.568  -0.423  -0.605  0.00  0.00    -0.047 A 
ATOM     13  C   UNL     1      -1.510  -1.275  -1.154  0.00  0.00    +0.007 A 
ATOM     14  C   UNL     1      -1.390  -2.640  -0.994  0.00  0.00    -0.037 A 
ATOM     15  C   UNL     1      -0.316  -3.164  -0.279  0.00  0.00    +0.047 A 
ATOM     16  C   UNL     1       0.634  -2.302   0.274  0.00  0.00    +0.127 A 
ATOM     17  C   UNL     1       0.504  -0.933   0.102  0.00  0.00    +0.049 A 
ATOM     18  C   UNL     1      -2.419  -3.563  -1.594  0.00  0.00    +0.044 C 
BRANCH  16  19
ATOM     19  O   UNL     1       1.685  -2.804   0.974  0.00  0.00    -0.506 OA
ATOM     20  H   UNL     1       2.487  -2.923   0.448  0.00  0.00    +0.292 HD
ENDBRANCH  16  19
ENDBRANCH   1  15
BRANCH  10  21
ATOM     21  C   UNL     1      -0.889  -4.572   3.255  0.00  0.00    -0.018 A 
ATOM     22  C   UNL     1      -0.813  -3.267   3.705  0.00  0.00    +0.055 A 
ATOM     23  C   UNL     1      -1.906  -2.683   4.325  0.00  0.00    +0.163 A 
ATOM     24  C   UNL     1      -3.079  -3.413   4.494  0.00  0.00    +0.173 A 
ATOM     25  C   UNL     1      -3.148  -4.721   4.041  0.00  0.00    +0.063 A 
ATOM     26  C   UNL     1      -2.055  -5.296   3.418  0.00  0.00    +0.025 A 
ATOM     27 BR   UNL     1      -4.740  -5.716   4.269  0.00  0.00    -0.046 Br
BRANCH  24  28
ATOM     28  O   UNL     1      -4.154  -2.844   5.103  0.00  0.00    -0.503 OA
ATOM     29  H   UNL     1      -4.756  -2.392   4.496  0.00  0.00    +0.292 HD
ENDBRANCH  24  28
BRANCH  23  30
ATOM     30  O   UNL     1      -1.832  -1.399   4.768  0.00  0.00    -0.491 OA
ATOM     31  C   UNL     1      -0.597  -0.711   4.561  0.00  0.00    +0.277 C 
ENDBRANCH  23  30
ENDBRANCH  10  21
BRANCH   9  32
ATOM     32  C   UNL     1       0.732  -6.987   4.442  0.00  0.00    +0.111 C 
BRANCH  32  33
ATOM     33  C   UNL     1       2.241  -7.026   4.692  0.00  0.00    +0.047 C 
BRANCH  33  34
ATOM     34  C   UNL     1       2.507  -7.447   6.138  0.00  0.00    +0.157 C 
BRANCH  34  35
ATOM     35  O   UNL     1       3.917  -7.484   6.372  0.00  0.00    -0.395 OA
ATOM     36  H   UNL     1       4.160  -7.744   7.271  0.00  0.00    +0.209 HD
ENDBRANCH  34  35
ENDBRANCH  33  34
ENDBRANCH  32  33
ENDBRANCH   9  32
TORSDOF 9
