REMARK  Name = ZINC31057674
REMARK  9 active torsions:
REMARK  status: ('A' for Active; 'I' for Inactive)
REMARK    1  A    between atoms: C_1  and  C_2
REMARK    2  A    between atoms: C_2  and  C_4
REMARK    3  A    between atoms: C_2  and  C_15
REMARK    4  A    between atoms: C_4  and  C_5
REMARK    5  A    between atoms: C_15  and  N_16
REMARK    6  A    between atoms: C_17  and  C_19
REMARK    7  A    between atoms: N_24  and  C_26
REMARK    8  A    between atoms: C_26  and  C_27
REMARK    9  A    between atoms: C_29  and  C_32
REMARK                            x       y       z     vdW  Elec       q    Type
REMARK                         _______ _______ _______ _____ _____    ______ ____
ROOT
ATOM      1  N   UNL     1      -0.011   0.966   0.007  0.00  0.00    -0.315 N 
ATOM      2  C   UNL     1       1.147   1.655   0.000  0.00  0.00    +0.214 C 
ATOM      3  O   UNL     1       1.130   2.868   0.007  0.00  0.00    -0.276 OA
ATOM      4  H   UNL     1       0.004  -0.134   0.006  0.00  0.00    +0.149 HD
ENDROOT
BRANCH   2   5
ATOM      5  C   UNL     1       2.462   0.920  -0.017  0.00  0.00    +0.058 C 
ATOM      6  C   UNL     1       2.544   0.047  -1.272  0.00  0.00    +0.009 C 
ATOM      7  C   UNL     1       3.907  -0.650  -1.312  0.00  0.00    -0.018 C 
ATOM      8  C   UNL     1       5.015   0.405  -1.284  0.00  0.00    -0.078 C 
ATOM      9  N   UNL     1       4.893   1.213  -0.064  0.00  0.00    +0.386 N 
ATOM     10  C   UNL     1       3.612   1.929  -0.027  0.00  0.00    -0.065 C 
ATOM     11  H   UNL     1       4.919   0.528   0.795  0.00  0.00    -0.081 HD
BRANCH   9  12
ATOM     12  C   UNL     1       6.021   2.145   0.064  0.00  0.00    +0.022 C 
BRANCH  12  13
ATOM     13  C   UNL     1       5.962   3.162  -1.047  0.00  0.00    +0.211 A 
ATOM     14  N   UNL     1       5.338   4.313  -1.014  0.00  0.00    -0.192 NA
ATOM     15  C   UNL     1       5.561   4.882  -2.222  0.00  0.00    +0.209 A 
ATOM     16  N   UNL     1       6.295   4.044  -2.913  0.00  0.00    -0.056 NA
ATOM     17  O   UNL     1       6.531   3.055  -2.251  0.00  0.00    -0.340 OA
BRANCH  15  18
ATOM     18  C   UNL     1       5.065   6.197  -2.678  0.00  0.00    +0.060 A 
ATOM     19  C   UNL     1       5.253   6.819  -3.884  0.00  0.00    +0.019 A 
ATOM     20  C   UNL     1       4.688   8.058  -4.084  0.00  0.00    +0.008 A 
ATOM     21  C   UNL     1       3.964   8.625  -3.084  0.00  0.00    +0.046 A 
ATOM     22  S   UNL     1       4.059   7.385  -1.804  0.00  0.00    -0.093 S 
ENDBRANCH  15  18
ENDBRANCH  12  13
ENDBRANCH   9  12
ENDBRANCH   2   5
BRANCH   1  23
ATOM     23  C   UNL     1      -1.290   1.681   0.017  0.00  0.00    +0.107 C 
BRANCH  23  25
ATOM     24  C   UNL     1      -2.426  -0.116  -1.294  0.00  0.00    +0.009 C 
ATOM     25  C   UNL     1      -2.439   0.671   0.017  0.00  0.00    +0.007 C 
BRANCH  25  26
ATOM     26  C   UNL     1      -3.770   1.413   0.153  0.00  0.00    +0.040 C 
BRANCH  26  27
ATOM     27  C   UNL     1      -4.892   0.414   0.277  0.00  0.00    -0.039 A 
ATOM     28  C   UNL     1      -5.595   0.036  -0.826  0.00  0.00    +0.004 A 
ATOM     29  C   UNL     1      -6.632  -0.890  -0.732  0.00  0.00    +0.001 A 
ATOM     30  C   UNL     1      -6.979  -1.435   0.466  0.00  0.00    +0.008 A 
ATOM     31  C   UNL     1      -6.279  -1.065   1.627  0.00  0.00    -0.018 A 
ATOM     32  C   UNL     1      -5.221  -0.127   1.531  0.00  0.00    -0.015 A 
ATOM     33  C   UNL     1      -4.521   0.244   2.692  0.00  0.00    +0.009 A 
ATOM     34  C   UNL     1      -4.867  -0.302   3.890  0.00  0.00    +0.001 A 
ATOM     35  C   UNL     1      -5.908  -1.224   3.984  0.00  0.00    +0.001 A 
ATOM     36  C   UNL     1      -6.608  -1.607   2.881  0.00  0.00    +0.008 A 
ENDBRANCH  26  27
ENDBRANCH  25  26
ENDBRANCH  23  25
ENDBRANCH   1  23
TORSDOF 8
