REMARK  Name = ZINC13625432
REMARK  4 active torsions:
REMARK  status: ('A' for Active; 'I' for Inactive)
REMARK    1  A    between atoms: C_4  and  C_7
REMARK    2  A    between atoms: C_7  and  S_8
REMARK    3  A    between atoms: S_8  and  C_9
REMARK    4  A    between atoms: C_20  and  C_22
REMARK                            x       y       z     vdW  Elec       q    Type
REMARK                         _______ _______ _______ _____ _____    ______ ____
ROOT
ATOM      1  C   UNL     1       5.740  -1.842  -1.483  0.00  0.00    +0.192 A 
ATOM      2  N   UNL     1       6.127  -2.058  -0.252  0.00  0.00    -0.222 NA
ATOM      3  C   UNL     1       7.282  -2.705   0.034  0.00  0.00    +0.077 A 
ATOM      4  C   UNL     1       7.684  -2.930   1.354  0.00  0.00    +0.028 A 
ATOM      5  C   UNL     1       8.864  -3.592   1.606  0.00  0.00    +0.002 A 
ATOM      6  C   UNL     1       9.664  -4.041   0.563  0.00  0.00    +0.001 A 
ATOM      7  C   UNL     1       9.291  -3.831  -0.746  0.00  0.00    +0.014 A 
ATOM      8  C   UNL     1       8.100  -3.163  -1.024  0.00  0.00    +0.045 A 
ATOM      9  C   UNL     1       7.652  -2.912  -2.399  0.00  0.00    +0.168 A 
ATOM     10  N   UNL     1       6.463  -2.253  -2.570  0.00  0.00    -0.188 N 
ATOM     11  N   UNL     1       6.277  -2.142  -3.955  0.00  0.00    -0.143 NA
ATOM     12  C   UNL     1       7.310  -2.721  -4.531  0.00  0.00    +0.182 A 
ATOM     13  N   UNL     1       8.139  -3.185  -3.589  0.00  0.00    -0.206 NA
ENDROOT
BRANCH  12  14
ATOM     14  C   UNL     1       7.522  -2.841  -5.995  0.00  0.00    +0.024 A 
ATOM     15  C   UNL     1       8.658  -3.472  -6.507  0.00  0.00    +0.031 A 
ATOM     16  C   UNL     1       8.813  -3.566  -7.875  0.00  0.00    +0.111 A 
ATOM     17  N   UNL     1       7.912  -3.061  -8.695  0.00  0.00    -0.263 NA
ATOM     18  C   UNL     1       6.827  -2.453  -8.253  0.00  0.00    +0.111 A 
ATOM     19  C   UNL     1       6.592  -2.320  -6.899  0.00  0.00    +0.031 A 
ENDBRANCH  12  14
BRANCH   1  20
ATOM     20  S   UNL     1       4.220  -0.992  -1.753  0.00  0.00    -0.081 S 
BRANCH  20  21
ATOM     21  C   UNL     1       3.711  -0.707  -0.039  0.00  0.00    +0.112 C 
BRANCH  21  25
ATOM     22  C   UNL     1      -0.017   1.378   0.010  0.00  0.00    +0.000 A 
ATOM     23  C   UNL     1       1.171   2.086   0.002  0.00  0.00    +0.000 A 
ATOM     24  C   UNL     1       2.377   1.411  -0.014  0.00  0.00    +0.004 A 
ATOM     25  C   UNL     1       2.396   0.029  -0.022  0.00  0.00    -0.037 A 
ATOM     26  C   UNL     1       1.208  -0.679  -0.014  0.00  0.00    +0.004 A 
ATOM     27  C   UNL     1       0.002  -0.004   0.002  0.00  0.00    +0.000 A 
ENDBRANCH  21  25
ENDBRANCH  20  21
ENDBRANCH   1  20
TORSDOF 4
