REMARK  Name = ZINC45991950
REMARK  10 active torsions:
REMARK  status: ('A' for Active; 'I' for Inactive)
REMARK    1  A    between atoms: C_1  and  C_2
REMARK    2  A    between atoms: C_6  and  N_9
REMARK    3  A    between atoms: C_7  and  C_8
REMARK    4  A    between atoms: C_10  and  C_12
REMARK    5  A    between atoms: C_12  and  C_14
REMARK    6  A    between atoms: C_12  and  O_15
REMARK    7  A    between atoms: O_15  and  C_16
REMARK    8  A    between atoms: C_18  and  C_27
REMARK    9  A    between atoms: C_20  and  C_26
REMARK   10  A    between atoms: N_22  and  C_25
REMARK                            x       y       z     vdW  Elec       q    Type
REMARK                         _______ _______ _______ _____ _____    ______ ____
ROOT
ATOM      1  C   UNL     1       0.449  -7.093   4.387  0.00  0.00    +0.218 A 
ATOM      2  C   UNL     1       0.517  -8.468   4.179  0.00  0.00    +0.076 A 
ATOM      3  C   UNL     1       1.068  -9.280   5.163  0.00  0.00    -0.000 A 
ATOM      4  C   UNL     1       1.538  -8.662   6.344  0.00  0.00    +0.049 A 
ATOM      5  C   UNL     1       2.140  -9.146   7.527  0.00  0.00    +0.070 A 
ATOM      6  N   UNL     1       2.382  -8.136   8.312  0.00  0.00    -0.174 NA
ATOM      7  N   UNL     1       1.958  -6.951   7.699  0.00  0.00    -0.249 N 
ATOM      8  C   UNL     1       1.432  -7.266   6.475  0.00  0.00    +0.163 A 
ATOM      9  N   UNL     1       0.901  -6.541   5.497  0.00  0.00    -0.193 NA
ATOM     10  C   UNL     1       2.060  -5.605   8.270  0.00  0.00    +0.174 C 
ATOM     11  C   UNL     1       2.451 -10.590   7.829  0.00  0.00    +0.068 C 
ENDROOT
BRANCH   3  12
ATOM     12  C   UNL     1       1.158 -10.747   4.981  0.00  0.00    -0.017 A 
ATOM     13  C   UNL     1       2.363 -11.409   5.214  0.00  0.00    +0.008 A 
ATOM     14  C   UNL     1       2.441 -12.776   5.042  0.00  0.00    +0.001 A 
ATOM     15  C   UNL     1       1.327 -13.490   4.639  0.00  0.00    +0.000 A 
ATOM     16  C   UNL     1       0.129 -12.839   4.406  0.00  0.00    +0.001 A 
ATOM     17  C   UNL     1       0.036 -11.473   4.581  0.00  0.00    +0.008 A 
ENDBRANCH   3  12
BRANCH   1  18
ATOM     18  O   UNL     1      -0.088  -6.303   3.424  0.00  0.00    -0.464 OA
BRANCH  18  19
ATOM     19  C   UNL     1      -0.129  -4.898   3.686  0.00  0.00    +0.257 C 
ATOM     20  C   UNL     1      -1.444  -4.547   4.383  0.00  0.00    +0.062 C 
BRANCH  19  22
ATOM     21  N   UNL     1       0.052  -2.797   2.393  0.00  0.00    -0.282 N 
ATOM     22  C   UNL     1      -0.031  -4.143   2.385  0.00  0.00    +0.258 C 
ATOM     23  O   UNL     1      -0.028  -4.745   1.333  0.00  0.00    -0.271 OA
ATOM     24  H   UNL     1       0.130  -2.321   3.234  0.00  0.00    +0.155 HD
BRANCH  21  30
ATOM     25  C   UNL     1       1.206   1.236  -0.172  0.00  0.00    +0.044 C 
ATOM     26  C   UNL     1       0.577  -0.131  -0.084  0.00  0.00    -0.046 A 
ATOM     27  C   UNL     1      -0.027  -0.686  -1.198  0.00  0.00    +0.004 A 
ATOM     28  C   UNL     1      -0.605  -1.940  -1.122  0.00  0.00    +0.002 A 
ATOM     29  C   UNL     1      -0.580  -2.642   0.067  0.00  0.00    +0.023 A 
ATOM     30  C   UNL     1       0.026  -2.088   1.187  0.00  0.00    +0.037 A 
ATOM     31  C   UNL     1       0.610  -0.831   1.106  0.00  0.00    -0.026 A 
ATOM     32  C   UNL     1       1.274  -0.228   2.317  0.00  0.00    +0.046 C 
ENDBRANCH  21  30
ENDBRANCH  19  22
ENDBRANCH  18  19
ENDBRANCH   1  18
TORSDOF 5
