REMARK  Name = ZINC23262696
REMARK  13 active torsions:
REMARK  status: ('A' for Active; 'I' for Inactive)
REMARK    1  A    between atoms: C_1  and  C_2
REMARK    2  A    between atoms: C_2  and  C_3
REMARK    3  A    between atoms: C_2  and  C_4
REMARK    4  A    between atoms: C_2  and  C_5
REMARK    5  A    between atoms: C_8  and  O_11
REMARK    6  A    between atoms: O_11  and  C_12
REMARK    7  A    between atoms: C_12  and  C_13
REMARK    8  A    between atoms: C_16  and  S_19
REMARK    9  A    between atoms: N_17  and  N_18
REMARK   10  A    between atoms: S_19  and  C_20
REMARK   11  A    between atoms: C_20  and  C_21
REMARK   12  A    between atoms: N_23  and  C_24
REMARK   13  A    between atoms: N_23  and  C_25
REMARK                            x       y       z     vdW  Elec       q    Type
REMARK                         _______ _______ _______ _____ _____    ______ ____
ROOT
ATOM      1  C   UNL     1       0.024  -0.836   1.088  0.00  0.00    +0.189 A 
ATOM      2  N   UNL     1       0.035  -2.059   0.639  0.00  0.00    -0.128 NA
ATOM      3  N   UNL     1       0.023  -2.058  -0.646  0.00  0.00    -0.121 NA
ATOM      4  C   UNL     1      -0.003  -0.823  -1.091  0.00  0.00    +0.209 A 
ATOM      5  N   UNL     1       0.002  -0.004   0.002  0.00  0.00    -0.225 N 
ENDROOT
BRANCH   5   6
ATOM      6  N   UNL     1      -0.016   1.362   0.009  0.00  0.00    -0.295 N 
ATOM      7  H   UNL     1      -0.033   1.917  -0.940  0.00  0.00    +0.163 HD
ATOM      8  H   UNL     1      -0.015   1.907   0.965  0.00  0.00    +0.163 HD
ENDBRANCH   5   6
BRANCH   1   9
ATOM      9  C   UNL     1       0.033  -0.415   2.535  0.00  0.00    +0.306 C 
BRANCH   9  10
ATOM     10  O   UNL     1      -1.311  -0.299   3.006  0.00  0.00    -0.484 OA
BRANCH  10  14
ATOM     11  C   UNL     1      -1.827   0.836   6.938  0.00  0.00    -0.042 A 
ATOM     12  C   UNL     1      -2.929   0.587   6.142  0.00  0.00    +0.008 A 
ATOM     13  C   UNL     1      -2.759   0.206   4.824  0.00  0.00    +0.046 A 
ATOM     14  C   UNL     1      -1.481   0.074   4.301  0.00  0.00    +0.121 A 
ATOM     15  C   UNL     1      -0.377   0.319   5.104  0.00  0.00    +0.046 A 
ATOM     16  C   UNL     1      -0.552   0.705   6.419  0.00  0.00    +0.008 A 
BRANCH  11  18
ATOM     17  C   UNL     1      -2.776   0.155   9.126  0.00  0.00    +0.015 C 
ATOM     18  C   UNL     1      -2.015   1.250   8.375  0.00  0.00    -0.013 C 
ATOM     19  C   UNL     1      -0.648   1.461   9.028  0.00  0.00    +0.015 C 
ATOM     20  C   UNL     1      -2.813   2.554   8.429  0.00  0.00    +0.015 C 
ENDBRANCH  11  18
ENDBRANCH  10  14
ENDBRANCH   9  10
ENDBRANCH   1   9
BRANCH   4  21
ATOM     21  S   UNL     1      -0.035  -0.317  -2.778  0.00  0.00    -0.075 S 
BRANCH  21  22
ATOM     22  C   UNL     1      -0.025  -1.934  -3.591  0.00  0.00    +0.173 C 
BRANCH  22  23
ATOM     23  C   UNL     1      -0.050  -1.745  -5.086  0.00  0.00    +0.226 C 
ATOM     24  O   UNL     1      -0.072  -0.627  -5.556  0.00  0.00    -0.275 OA
ATOM     25  N   UNL     1      -0.048  -2.819  -5.901  0.00  0.00    -0.297 N 
ATOM     26  C   UNL     1      -0.021  -4.169  -5.334  0.00  0.00    +0.132 C 
BRANCH  25  27
ATOM     27  C   UNL     1      -0.072  -2.635  -7.354  0.00  0.00    +0.106 C 
ATOM     28  C   UNL     1       1.190  -3.246  -7.960  0.00  0.00    +0.027 C 
ATOM     29  C   UNL     1       1.046  -3.239  -9.487  0.00  0.00    +0.007 C 
ATOM     30  C   UNL     1      -0.022  -4.259  -9.874  0.00  0.00    +0.035 C 
ATOM     31  C   UNL     1      -1.282  -4.034  -9.079  0.00  0.00    -0.042 A 
ATOM     32  C   UNL     1      -1.303  -3.294  -7.918  0.00  0.00    -0.024 A 
ATOM     33  C   UNL     1      -2.496  -3.137  -7.225  0.00  0.00    +0.006 A 
ATOM     34  C   UNL     1      -3.660  -3.712  -7.692  0.00  0.00    +0.000 A 
ATOM     35  C   UNL     1      -3.639  -4.451  -8.861  0.00  0.00    +0.000 A 
ATOM     36  C   UNL     1      -2.455  -4.610  -9.550  0.00  0.00    +0.004 A 
ENDBRANCH  25  27
ENDBRANCH  22  23
ENDBRANCH  21  22
ENDBRANCH   4  21
TORSDOF 9
