REMARK  Name = ZINC28928259
REMARK  8 active torsions:
REMARK  status: ('A' for Active; 'I' for Inactive)
REMARK    1  A    between atoms: C_4  and  C_7
REMARK    2  A    between atoms: C_7  and  C_8
REMARK    3  A    between atoms: C_7  and  C_28
REMARK    4  A    between atoms: C_8  and  N_9
REMARK    5  A    between atoms: C_10  and  C_12
REMARK    6  A    between atoms: C_12  and  N_13
REMARK    7  A    between atoms: N_16  and  C_19
REMARK    8  A    between atoms: C_22  and  N_25
REMARK                            x       y       z     vdW  Elec       q    Type
REMARK                         _______ _______ _______ _____ _____    ______ ____
ROOT
ATOM      1  N   UNL     1       0.153   1.988   4.816  0.00  0.00    -0.316 N 
ATOM      2  C   UNL     1      -0.217   2.508   3.629  0.00  0.00    +0.196 C 
ATOM      3  O   UNL     1      -0.896   3.512   3.591  0.00  0.00    -0.278 OA
ATOM      4  H   UNL     1       0.769   1.078   4.850  0.00  0.00    +0.149 HD
ENDROOT
BRANCH   1   5
ATOM      5  C   UNL     1      -0.267   2.636   6.061  0.00  0.00    +0.117 C 
BRANCH   5   6
ATOM      6  C   UNL     1       0.282   1.851   7.255  0.00  0.00    +0.066 C 
BRANCH   6  10
ATOM      7  C   UNL     1      -0.643   3.927  10.872  0.00  0.00    +0.000 A 
ATOM      8  C   UNL     1      -1.637   3.680   9.943  0.00  0.00    +0.000 A 
ATOM      9  C   UNL     1      -1.337   3.009   8.772  0.00  0.00    +0.004 A 
ATOM     10  C   UNL     1      -0.044   2.583   8.531  0.00  0.00    -0.038 A 
ATOM     11  C   UNL     1       0.948   2.825   9.462  0.00  0.00    +0.004 A 
ATOM     12  C   UNL     1       0.649   3.501  10.631  0.00  0.00    +0.000 A 
ENDBRANCH   6  10
BRANCH   6  13
ATOM     13  C   UNL     1      -0.346   0.482   7.287  0.00  0.00    -0.038 A 
ATOM     14  C   UNL     1      -1.718   0.353   7.397  0.00  0.00    +0.004 A 
ATOM     15  C   UNL     1      -2.294  -0.903   7.421  0.00  0.00    +0.000 A 
ATOM     16  C   UNL     1      -1.498  -2.031   7.346  0.00  0.00    +0.000 A 
ATOM     17  C   UNL     1      -0.125  -1.902   7.241  0.00  0.00    +0.000 A 
ATOM     18  C   UNL     1       0.451  -0.646   7.212  0.00  0.00    +0.004 A 
ENDBRANCH   6  13
ENDBRANCH   5   6
ENDBRANCH   1   5
BRANCH   2  19
ATOM     19  C   UNL     1       0.215   1.841   2.348  0.00  0.00    +0.019 C 
BRANCH  19  20
ATOM     20  N   UNL     1      -0.448   2.492   1.210  0.00  0.00    +0.387 N 
ATOM     21  C   UNL     1      -1.900   2.266   1.246  0.00  0.00    -0.059 C 
ATOM     22  C   UNL     1      -2.561   3.024   0.093  0.00  0.00    +0.086 C 
ATOM     23  N   UNL     1      -1.991   2.565  -1.182  0.00  0.00    -0.333 N 
ATOM     24  C   UNL     1      -0.540   2.791  -1.219  0.00  0.00    +0.086 C 
ATOM     25  C   UNL     1       0.121   2.033  -0.065  0.00  0.00    -0.059 C 
ATOM     26  H   UNL     1      -0.270   3.575   1.291  0.00  0.00    -0.081 HD
BRANCH  23  27
ATOM     27  C   UNL     1      -2.622   3.183  -2.264  0.00  0.00    +0.030 A 
ATOM     28  C   UNL     1      -3.647   4.094  -2.044  0.00  0.00    +0.025 A 
ATOM     29  C   UNL     1      -4.265   4.708  -3.116  0.00  0.00    +0.034 A 
ATOM     30  C   UNL     1      -3.871   4.409  -4.407  0.00  0.00    +0.126 A 
ATOM     31  C   UNL     1      -2.854   3.498  -4.630  0.00  0.00    +0.034 A 
ATOM     32  C   UNL     1      -2.229   2.885  -3.562  0.00  0.00    +0.025 A 
BRANCH  30  33
ATOM     33  N   UNL     1      -4.539   5.064  -5.554  0.00  0.00    +0.056 N 
ATOM     34  O   UNL     1      -4.193   4.802  -6.692  0.00  0.00    -0.126 OA
ATOM     35  O   UNL     1      -5.435   5.866  -5.359  0.00  0.00    -0.126 OA
ENDBRANCH  30  33
ENDBRANCH  23  27
ENDBRANCH  19  20
ENDBRANCH   2  19
TORSDOF 8
