REMARK  Name = ZINC02367265
REMARK  10 active torsions:
REMARK  status: ('A' for Active; 'I' for Inactive)
REMARK    1  A    between atoms: C_1  and  C_2
REMARK    2  A    between atoms: C_2  and  O_3
REMARK    3  A    between atoms: O_3  and  C_4
REMARK    4  A    between atoms: C_9  and  O_10
REMARK    5  A    between atoms: O_10  and  C_11
REMARK    6  A    between atoms: C_17  and  O_35
REMARK    7  A    between atoms: C_18  and  C_26
REMARK    8  A    between atoms: C_21  and  C_22
REMARK    9  A    between atoms: C_26  and  N_27
REMARK   10  A    between atoms: C_32  and  C_34
REMARK                            x       y       z     vdW  Elec       q    Type
REMARK                         _______ _______ _______ _____ _____    ______ ____
ROOT
ATOM      1  C   UNL     1       2.608  -2.182   4.375  0.00  0.00    +0.222 A 
ATOM      2  C   UNL     1       3.183  -1.447   5.451  0.00  0.00    +0.235 A 
ATOM      3  O   UNL     1       3.069  -0.235   5.524  0.00  0.00    -0.283 OA
ATOM      4  C   UNL     1       3.921  -2.211   6.471  0.00  0.00    +0.068 A 
ATOM      5  C   UNL     1       4.519  -1.579   7.562  0.00  0.00    +0.019 A 
ATOM      6  C   UNL     1       5.195  -2.321   8.488  0.00  0.00    +0.046 A 
ATOM      7  C   UNL     1       5.290  -3.704   8.348  0.00  0.00    +0.122 A 
ATOM      8  C   UNL     1       4.703  -4.346   7.272  0.00  0.00    +0.020 A 
ATOM      9  C   UNL     1       4.012  -3.607   6.322  0.00  0.00    +0.144 A 
ATOM     10  O   UNL     1       3.430  -4.207   5.265  0.00  0.00    -0.447 OA
ATOM     11  C   UNL     1       2.752  -3.522   4.334  0.00  0.00    +0.254 A 
ENDROOT
BRANCH  11  12
ATOM     12  C   UNL     1       2.130  -4.280   3.189  0.00  0.00    +0.454 C 
ATOM     13  F   UNL     1       1.629  -3.375   2.248  0.00  0.00    -0.163 F 
ATOM     14  F   UNL     1       3.098  -5.091   2.587  0.00  0.00    -0.163 F 
ATOM     15  F   UNL     1       1.087  -5.078   3.671  0.00  0.00    -0.163 F 
ENDBRANCH  11  12
BRANCH   7  16
ATOM     16  O   UNL     1       5.966  -4.429   9.277  0.00  0.00    -0.506 OA
ATOM     17  H   UNL     1       5.418  -4.737  10.011  0.00  0.00    +0.292 HD
ENDBRANCH   7  16
BRANCH   1  18
ATOM     18  O   UNL     1       1.912  -1.538   3.399  0.00  0.00    -0.445 OA
BRANCH  18  24
ATOM     19  C   UNL     1       1.911   0.072   1.640  0.00  0.00    +0.163 A 
ATOM     20  C   UNL     1       2.611   0.933   0.811  0.00  0.00    +0.049 A 
ATOM     21  C   UNL     1       3.986   1.025   0.912  0.00  0.00    +0.004 A 
ATOM     22  C   UNL     1       4.667   0.259   1.841  0.00  0.00    +0.004 A 
ATOM     23  C   UNL     1       3.975  -0.602   2.672  0.00  0.00    +0.050 A 
ATOM     24  C   UNL     1       2.595  -0.695   2.579  0.00  0.00    +0.170 A 
BRANCH  19  25
ATOM     25  O   UNL     1       0.558  -0.020   1.541  0.00  0.00    -0.489 OA
BRANCH  25  27
ATOM     26  C   UNL     1      -1.589   0.558   0.593  0.00  0.00    +0.048 C 
ATOM     27  C   UNL     1      -0.078   0.796   0.555  0.00  0.00    +0.226 C 
ENDBRANCH  25  27
ENDBRANCH  19  25
ENDBRANCH  18  24
ENDBRANCH   1  18
BRANCH   8  28
ATOM     28  C   UNL     1       4.813  -5.843   7.131  0.00  0.00    -0.035 C 
BRANCH  28  29
ATOM     29  N   UNL     1       3.682  -6.484   7.815  0.00  0.00    +0.384 N 
ATOM     30  C   UNL     1       2.432  -6.113   7.141  0.00  0.00    -0.078 C 
ATOM     31  C   UNL     1       1.244  -6.712   7.897  0.00  0.00    -0.019 C 
ATOM     32  C   UNL     1       1.379  -8.237   7.923  0.00  0.00    -0.003 C 
ATOM     33  C   UNL     1       2.720  -8.611   8.560  0.00  0.00    -0.016 C 
ATOM     34  C   UNL     1       3.853  -7.941   7.780  0.00  0.00    -0.071 C 
ATOM     35  C   UNL     1       5.196  -8.311   8.413  0.00  0.00    -0.013 C 
ATOM     36  H   UNL     1       3.650  -6.173   8.774  0.00  0.00    -0.081 HD
ENDBRANCH  28  29
ENDBRANCH   8  28
TORSDOF 8
