REMARK  Name = ZINC50599224
REMARK  2 active torsions:
REMARK  status: ('A' for Active; 'I' for Inactive)
REMARK    1  A    between atoms: C_4  and  C_7
REMARK    2  A    between atoms: C_14  and  N_20
REMARK                            x       y       z     vdW  Elec       q    Type
REMARK                         _______ _______ _______ _____ _____    ______ ____
ROOT
ATOM      1  C   UNL     1       3.651  -0.692  -0.099  0.00  0.00    +0.038 C 
ATOM      2  C   UNL     1       3.800  -1.644   1.118  0.00  0.00    +0.028 C 
ATOM      3  C   UNL     1       4.798  -2.695   0.570  0.00  0.00    +0.107 C 
ATOM      4  N   UNL     1       4.425  -2.868  -0.845  0.00  0.00    -0.313 N 
ATOM      5  C   UNL     1       3.734  -1.651  -1.305  0.00  0.00    +0.114 C 
ATOM      6  C   UNL     1       4.686  -3.995  -1.622  0.00  0.00    +0.142 A 
ATOM      7  C   UNL     1       5.854  -4.055  -2.387  0.00  0.00    +0.066 A 
ATOM      8  C   UNL     1       6.098  -5.185  -3.154  0.00  0.00    +0.043 A 
ATOM      9  C   UNL     1       5.166  -6.215  -3.130  0.00  0.00    +0.038 A 
ATOM     10  C   UNL     1       4.035  -6.086  -2.350  0.00  0.00    +0.128 A 
ATOM     11  N   UNL     1       3.829  -5.002  -1.625  0.00  0.00    -0.237 NA
ATOM     12 BR   UNL     1       5.446  -7.779  -4.156  0.00  0.00    -0.049 Br
ENDROOT
BRANCH   1  16
ATOM     13  C   UNL     1      -0.126   1.300  -0.009  0.00  0.00    +0.000 A 
ATOM     14  C   UNL     1       1.042   2.036  -0.057  0.00  0.00    +0.000 A 
ATOM     15  C   UNL     1       2.265   1.392  -0.086  0.00  0.00    +0.004 A 
ATOM     16  C   UNL     1       2.319   0.011  -0.066  0.00  0.00    -0.043 A 
ATOM     17  C   UNL     1       1.150  -0.726  -0.017  0.00  0.00    +0.004 A 
ATOM     18  C   UNL     1      -0.073  -0.082   0.011  0.00  0.00    +0.000 A 
ENDBRANCH   1  16
BRANCH   7  19
ATOM     19  N   UNL     1       6.763  -2.990  -2.379  0.00  0.00    -0.355 N 
ATOM     20  H   UNL     1       6.630  -2.243  -1.775  0.00  0.00    +0.142 HD
ATOM     21  H   UNL     1       7.526  -3.000  -2.978  0.00  0.00    +0.142 HD
ENDBRANCH   7  19
TORSDOF 2
