REMARK  Name = ZINC36593856
REMARK  6 active torsions:
REMARK  status: ('A' for Active; 'I' for Inactive)
REMARK    1  A    between atoms: C_4  and  C_7
REMARK    2  A    between atoms: C_7  and  N_8
REMARK    3  A    between atoms: C_11  and  N_14
REMARK    4  A    between atoms: C_15  and  C_17
REMARK    5  A    between atoms: C_17  and  C_18
REMARK    6  A    between atoms: C_20  and  O_31
REMARK                            x       y       z     vdW  Elec       q    Type
REMARK                         _______ _______ _______ _____ _____    ______ ____
ROOT
ATOM      1  N   UNL     1       5.449  -2.776   4.914  0.00  0.00    -0.313 N 
ATOM      2  C   UNL     1       6.370  -3.698   5.258  0.00  0.00    +0.215 C 
ATOM      3  O   UNL     1       6.842  -4.429   4.414  0.00  0.00    -0.276 OA
ATOM      4  H   UNL     1       5.071  -2.192   5.589  0.00  0.00    +0.149 HD
ENDROOT
BRANCH   1   8
ATOM      5  N   UNL     1       4.153  -0.953   1.342  0.00  0.00    +0.382 N 
ATOM      6  C   UNL     1       3.203  -1.854   2.005  0.00  0.00    -0.077 C 
ATOM      7  C   UNL     1       3.614  -2.050   3.466  0.00  0.00    +0.003 C 
ATOM      8  C   UNL     1       5.019  -2.657   3.518  0.00  0.00    +0.069 C 
ATOM      9  C   UNL     1       5.987  -1.746   2.760  0.00  0.00    +0.003 C 
ATOM     10  C   UNL     1       5.489  -1.562   1.325  0.00  0.00    -0.077 C 
ATOM     11  H   UNL     1       4.190  -0.078   1.843  0.00  0.00    -0.081 HD
BRANCH   5  12
ATOM     12  C   UNL     1       3.711  -0.707  -0.038  0.00  0.00    -0.043 C 
BRANCH  12  16
ATOM     13  C   UNL     1      -0.017   1.378   0.010  0.00  0.00    +0.000 A 
ATOM     14  C   UNL     1       1.171   2.086   0.002  0.00  0.00    +0.000 A 
ATOM     15  C   UNL     1       2.377   1.411  -0.013  0.00  0.00    +0.002 A 
ATOM     16  C   UNL     1       2.396   0.029  -0.020  0.00  0.00    -0.064 A 
ATOM     17  C   UNL     1       1.208  -0.679  -0.012  0.00  0.00    +0.002 A 
ATOM     18  C   UNL     1       0.002  -0.004   0.002  0.00  0.00    +0.000 A 
ENDBRANCH  12  16
ENDBRANCH   5  12
ENDBRANCH   1   8
BRANCH   2  19
ATOM     19  C   UNL     1       6.813  -3.821   6.694  0.00  0.00    +0.127 C 
BRANCH  19  20
ATOM     20  C   UNL     1       7.856  -4.934   6.812  0.00  0.00    +0.167 C 
ATOM     21  C   UNL     1       8.214  -5.136   8.258  0.00  0.00    +0.209 C 
ATOM     22  N   UNL     1       8.624  -4.183   9.008  0.00  0.00    -0.215 NA
ATOM     23  C   UNL     1       8.771  -2.884   8.642  0.00  0.00    +0.079 A 
ATOM     24  C   UNL     1       8.366  -1.905   9.562  0.00  0.00    +0.028 A 
ATOM     25  C   UNL     1       8.496  -0.568   9.265  0.00  0.00    +0.002 A 
ATOM     26  C   UNL     1       9.033  -0.172   8.049  0.00  0.00    +0.001 A 
ATOM     27  C   UNL     1       9.432  -1.114   7.130  0.00  0.00    +0.015 A 
ATOM     28  C   UNL     1       9.301  -2.484   7.409  0.00  0.00    +0.062 A 
ATOM     29  C   UNL     1       9.724  -3.433   6.373  0.00  0.00    +0.247 C 
ATOM     30  O   UNL     1      10.736  -3.183   5.747  0.00  0.00    -0.270 OA
ATOM     31  N   UNL     1       9.062  -4.557   6.074  0.00  0.00    -0.299 N 
ATOM     32  H   UNL     1       9.386  -5.130   5.362  0.00  0.00    +0.150 HD
BRANCH  21  33
ATOM     33  O   UNL     1       8.100  -6.371   8.785  0.00  0.00    -0.494 OA
ATOM     34  H   UNL     1       8.347  -6.424   9.719  0.00  0.00    +0.293 HD
ENDBRANCH  21  33
ENDBRANCH  19  20
ENDBRANCH   2  19
TORSDOF 6
