REMARK  Name = ZINC33274282
REMARK  7 active torsions:
REMARK  status: ('A' for Active; 'I' for Inactive)
REMARK    1  A    between atoms: C_1  and  C_2
REMARK    2  A    between atoms: C_5  and  C_8
REMARK    3  A    between atoms: C_8  and  N_9
REMARK    4  A    between atoms: C_12  and  C_34
REMARK    5  A    between atoms: C_21  and  C_23
REMARK    6  A    between atoms: N_25  and  C_26
REMARK    7  A    between atoms: C_26  and  C_27
REMARK                            x       y       z     vdW  Elec       q    Type
REMARK                         _______ _______ _______ _____ _____    ______ ____
ROOT
ATOM      1  N   UNL     1      -5.444  -2.486   0.040  0.00  0.00    -0.299 N 
ATOM      2  C   UNL     1      -4.694  -3.659   0.027  0.00  0.00    +0.071 A 
ATOM      3  C   UNL     1      -5.341  -4.891   0.027  0.00  0.00    +0.031 A 
ATOM      4  C   UNL     1      -4.605  -6.057   0.013  0.00  0.00    -0.048 A 
ATOM      5  C   UNL     1      -3.221  -6.009   0.001  0.00  0.00    +0.005 A 
ATOM      6  C   UNL     1      -2.568  -4.794   0.002  0.00  0.00    +0.030 A 
ATOM      7  C   UNL     1      -3.300  -3.612   0.015  0.00  0.00    +0.091 A 
ATOM      8  N   UNL     1      -2.635  -2.386   0.015  0.00  0.00    -0.206 N 
ATOM      9  C   UNL     1      -3.355  -1.228   0.027  0.00  0.00    +0.222 A 
ATOM     10  C   UNL     1      -4.828  -1.286   0.041  0.00  0.00    +0.297 A 
ATOM     11  O   UNL     1      -5.483  -0.261   0.053  0.00  0.00    -0.264 OA
ATOM     12  N   UNL     1      -2.497  -0.230   0.024  0.00  0.00    -0.198 NA
ATOM     13  C   UNL     1      -1.269  -0.761   0.010  0.00  0.00    +0.237 A 
ATOM     14  N   UNL     1      -1.385  -2.076  -0.001  0.00  0.00    -0.139 NA
ATOM     15  C   UNL     1      -5.310  -7.389   0.012  0.00  0.00    +0.044 C 
ENDROOT
BRANCH  13  16
ATOM     16  C   UNL     1       0.002  -0.004   0.002  0.00  0.00    +0.283 C 
ATOM     17  O   UNL     1       1.063  -0.597  -0.011  0.00  0.00    -0.267 OA
ATOM     18  N   UNL     1      -0.016   1.344   0.009  0.00  0.00    -0.305 N 
ATOM     19  H   UNL     1      -0.976   1.881   0.021  0.00  0.00    +0.149 HD
BRANCH  18  20
ATOM     20  C   UNL     1       1.242   2.093   0.001  0.00  0.00    +0.140 C 
BRANCH  20  21
ATOM     21  C   UNL     1       0.947   3.571   0.012  0.00  0.00    -0.030 A 
ATOM     22  C   UNL     1       0.806   4.256  -1.180  0.00  0.00    +0.006 A 
ATOM     23  C   UNL     1       0.529   5.610  -1.171  0.00  0.00    +0.020 A 
ATOM     24  C   UNL     1       0.405   6.282   0.032  0.00  0.00    +0.041 A 
ATOM     25  C   UNL     1       0.552   5.597   1.225  0.00  0.00    +0.020 A 
ATOM     26  C   UNL     1       0.823   4.242   1.214  0.00  0.00    +0.006 A 
ATOM     27 CL   UNL     1       0.064   7.984   0.044  0.00  0.00    -0.084 Cl
ENDBRANCH  20  21
ENDBRANCH  18  20
ENDBRANCH  13  16
BRANCH   1  28
ATOM     28  C   UNL     1      -6.907  -2.556   0.052  0.00  0.00    +0.160 C 
BRANCH  28  33
ATOM     29  C   UNL     1      -8.783  -2.675   5.516  0.00  0.00    +0.044 C 
ATOM     30  C   UNL     1      -8.294  -2.644   4.091  0.00  0.00    -0.050 A 
ATOM     31  C   UNL     1      -8.126  -1.434   3.444  0.00  0.00    +0.004 A 
ATOM     32  C   UNL     1      -7.678  -1.405   2.137  0.00  0.00    +0.005 A 
ATOM     33  C   UNL     1      -7.396  -2.587   1.477  0.00  0.00    -0.028 A 
ATOM     34  C   UNL     1      -7.569  -3.797   2.122  0.00  0.00    +0.005 A 
ATOM     35  C   UNL     1      -8.014  -3.826   3.431  0.00  0.00    +0.004 A 
ENDBRANCH  28  33
ENDBRANCH   1  28
TORSDOF 5
