REMARK  Name = ZINC64002447
REMARK  10 active torsions:
REMARK  status: ('A' for Active; 'I' for Inactive)
REMARK    1  A    between atoms: C_1  and  C_2
REMARK    2  A    between atoms: C_10  and  C_12
REMARK    3  A    between atoms: C_18  and  C_21
REMARK    4  A    between atoms: C_21  and  O_22
REMARK    5  A    between atoms: O_22  and  C_23
REMARK    6  A    between atoms: C_26  and  C_29
REMARK    7  A    between atoms: C_29  and  N_30
REMARK    8  A    between atoms: N_30  and  C_31
REMARK    9  A    between atoms: N_30  and  C_32
REMARK   10  A    between atoms: C_32  and  C_33
REMARK                            x       y       z     vdW  Elec       q    Type
REMARK                         _______ _______ _______ _____ _____    ______ ____
ROOT
ATOM      1  C   UNL     1      -1.038  -0.588   2.092  0.00  0.00    +0.242 C 
ATOM      2  O   UNL     1      -1.979  -1.352   2.148  0.00  0.00    -0.273 OA
ATOM      3  N   UNL     1      -1.042   0.540   2.831  0.00  0.00    -0.299 N 
ATOM      4  C   UNL     1       0.021   1.542   2.672  0.00  0.00    +0.108 C 
ATOM      5  C   UNL     1      -0.624   2.905   2.398  0.00  0.00    +0.019 C 
ATOM      6  C   UNL     1      -1.626   3.223   3.510  0.00  0.00    +0.010 C 
ATOM      7  C   UNL     1      -2.729   2.161   3.524  0.00  0.00    +0.044 C 
ATOM      8  C   UNL     1      -2.111   0.793   3.806  0.00  0.00    +0.114 C 
ENDROOT
BRANCH   1  18
ATOM      9  C   UNL     1      -0.344   1.069  -0.590  0.00  0.00    +0.042 C 
ATOM     10  C   UNL     1      -0.118  -0.367  -0.196  0.00  0.00    -0.033 C 
ATOM     11  C   UNL     1      -0.095  -1.442  -1.016  0.00  0.00    +0.001 A 
ATOM     12  C   UNL     1      -0.266  -1.589  -2.467  0.00  0.00    +0.030 A 
ATOM     13  C   UNL     1      -0.188  -2.824  -3.015  0.00  0.00    +0.042 A 
ATOM     14  C   UNL     1       0.051  -3.964  -2.233  0.00  0.00    +0.022 A 
ATOM     15  C   UNL     1       0.218  -3.908  -0.895  0.00  0.00    +0.027 A 
ATOM     16  C   UNL     1       0.157  -2.660  -0.214  0.00  0.00    +0.043 A 
ATOM     17  N   UNL     1       0.284  -2.351   1.053  0.00  0.00    -0.370 N 
ATOM     18  C   UNL     1       0.134  -0.899   1.198  0.00  0.00    +0.193 C 
ATOM     19 CL   UNL     1      -0.390  -3.002  -4.730  0.00  0.00    -0.084 Cl
ATOM     20  H   UNL     1       0.453  -2.977   1.775  0.00  0.00    +0.161 HD
ENDBRANCH   1  18
BRANCH   7  21
ATOM     21  C   UNL     1      -3.749   2.498   4.613  0.00  0.00    +0.234 C 
BRANCH  21  22
ATOM     22  O   UNL     1      -4.408   3.723   4.286  0.00  0.00    -0.492 OA
BRANCH  22  23
ATOM     23  C   UNL     1      -5.351   4.168   5.157  0.00  0.00    +0.121 A 
ATOM     24  C   UNL     1      -5.632   3.444   6.306  0.00  0.00    +0.046 A 
ATOM     25  C   UNL     1      -6.591   3.898   7.191  0.00  0.00    +0.005 A 
ATOM     26  C   UNL     1      -7.271   5.074   6.931  0.00  0.00    -0.064 A 
ATOM     27  C   UNL     1      -6.993   5.798   5.786  0.00  0.00    +0.005 A 
ATOM     28  C   UNL     1      -6.030   5.351   4.902  0.00  0.00    +0.046 A 
BRANCH  26  29
ATOM     29  C   UNL     1      -8.317   5.568   7.897  0.00  0.00    -0.043 C 
BRANCH  29  30
ATOM     30  N   UNL     1      -7.687   6.440   8.897  0.00  0.00    +0.384 N 
ATOM     31  C   UNL     1      -6.747   5.655   9.709  0.00  0.00    -0.095 C 
ATOM     32  H   UNL     1      -7.189   7.183   8.430  0.00  0.00    -0.081 HD
BRANCH  30  33
ATOM     33  C   UNL     1      -8.722   7.016   9.766  0.00  0.00    -0.019 C 
BRANCH  33  34
ATOM     34  C   UNL     1      -8.091   8.005  10.712  0.00  0.00    +0.067 A 
ATOM     35  C   UNL     1      -8.010   9.396  10.520  0.00  0.00    +0.065 A 
ATOM     36  C   UNL     1      -7.377   9.929  11.582  0.00  0.00    +0.230 A 
ATOM     37  O   UNL     1      -7.064   8.931  12.422  0.00  0.00    -0.363 OA
ATOM     38  N   UNL     1      -7.531   7.721  11.853  0.00  0.00    -0.085 NA
ENDBRANCH  33  34
ENDBRANCH  30  33
ENDBRANCH  29  30
ENDBRANCH  26  29
ENDBRANCH  22  23
ENDBRANCH  21  22
ENDBRANCH   7  21
TORSDOF 8
