REMARK  Name = ZINC22313692
REMARK  10 active torsions:
REMARK  status: ('A' for Active; 'I' for Inactive)
REMARK    1  A    between atoms: C_4  and  S_7
REMARK    2  A    between atoms: S_7  and  N_10
REMARK    3  A    between atoms: N_10  and  C_11
REMARK    4  A    between atoms: N_10  and  C_25
REMARK    5  A    between atoms: C_11  and  C_12
REMARK    6  A    between atoms: N_14  and  C_15
REMARK    7  A    between atoms: C_15  and  C_16
REMARK    8  A    between atoms: C_16  and  C_17
REMARK    9  A    between atoms: C_17  and  C_18
REMARK   10  A    between atoms: C_28  and  N_31
REMARK                            x       y       z     vdW  Elec       q    Type
REMARK                         _______ _______ _______ _____ _____    ______ ____
ROOT
ATOM      1  N   UNL     1      -1.096   3.508   0.017  0.00  0.00    -0.194 N 
ENDROOT
BRANCH   1   2
ATOM      2  C   UNL     1      -0.877   4.158   1.233  0.00  0.00    +0.052 A 
ATOM      3  C   UNL     1      -1.241   5.490   1.385  0.00  0.00    +0.027 A 
ATOM      4  C   UNL     1      -1.028   6.129   2.591  0.00  0.00    +0.034 A 
ATOM      5  C   UNL     1      -0.443   5.447   3.643  0.00  0.00    +0.126 A 
ATOM      6  C   UNL     1      -0.075   4.122   3.493  0.00  0.00    +0.034 A 
ATOM      7  C   UNL     1      -0.290   3.476   2.291  0.00  0.00    +0.027 A 
BRANCH   5   8
ATOM      8  N   UNL     1      -0.212   6.136   4.932  0.00  0.00    +0.056 N 
ATOM      9  O   UNL     1       0.303   5.537   5.859  0.00  0.00    -0.126 OA
ATOM     10  O   UNL     1      -0.536   7.303   5.066  0.00  0.00    -0.126 OA
ENDBRANCH   5   8
ENDBRANCH   1   2
BRANCH   1  11
ATOM     11  S   UNL     1      -0.430   4.109  -1.375  0.00  0.00    +0.075 S 
ATOM     12  O   UNL     1       0.613   4.989  -0.980  0.00  0.00    -0.150 OA
ATOM     13  O   UNL     1      -0.204   2.997  -2.231  0.00  0.00    -0.150 OA
BRANCH  11  17
ATOM     14  C   UNL     1      -3.588   6.660  -3.377  0.00  0.00    +0.000 A 
ATOM     15  C   UNL     1      -2.638   7.248  -2.563  0.00  0.00    +0.002 A 
ATOM     16  C   UNL     1      -1.674   6.469  -1.952  0.00  0.00    +0.029 A 
ATOM     17  C   UNL     1      -1.659   5.102  -2.154  0.00  0.00    +0.109 A 
ATOM     18  C   UNL     1      -2.606   4.514  -2.973  0.00  0.00    +0.029 A 
ATOM     19  C   UNL     1      -3.574   5.293  -3.580  0.00  0.00    +0.002 A 
ENDBRANCH  11  17
ENDBRANCH   1  11
BRANCH   1  20
ATOM     20  C   UNL     1      -1.914   2.293  -0.028  0.00  0.00    +0.227 C 
BRANCH  20  21
ATOM     21  C   UNL     1      -1.056   1.097   0.292  0.00  0.00    +0.232 C 
ATOM     22  O   UNL     1       0.124   1.243   0.529  0.00  0.00    -0.274 OA
ATOM     23  N   UNL     1      -1.599  -0.137   0.310  0.00  0.00    -0.314 N 
ATOM     24  H   UNL     1      -2.670  -0.269   0.096  0.00  0.00    +0.149 HD
BRANCH  23  25
ATOM     25  C   UNL     1      -0.763  -1.300   0.616  0.00  0.00    +0.104 C 
BRANCH  25  26
ATOM     26  C   UNL     1      -1.619  -2.568   0.571  0.00  0.00    +0.023 C 
BRANCH  26  27
ATOM     27  C   UNL     1      -0.746  -3.784   0.889  0.00  0.00    +0.036 C 
BRANCH  27  28
ATOM     28  C   UNL     1      -1.588  -5.033   0.845  0.00  0.00    -0.047 A 
ATOM     29  C   UNL     1      -2.219  -5.482   1.990  0.00  0.00    +0.005 A 
ATOM     30  C   UNL     1      -2.996  -6.624   1.949  0.00  0.00    +0.020 A 
ATOM     31  C   UNL     1      -3.134  -7.324   0.764  0.00  0.00    +0.041 A 
ATOM     32  C   UNL     1      -2.498  -6.877  -0.381  0.00  0.00    +0.020 A 
ATOM     33  C   UNL     1      -1.725  -5.732  -0.340  0.00  0.00    +0.005 A 
ATOM     34 CL   UNL     1      -4.105  -8.762   0.712  0.00  0.00    -0.084 Cl
ENDBRANCH  27  28
ENDBRANCH  26  27
ENDBRANCH  25  26
ENDBRANCH  23  25
ENDBRANCH  20  21
ENDBRANCH   1  20
TORSDOF 10
