REMARK  Name = ZINC03352851
REMARK  10 active torsions:
REMARK  status: ('A' for Active; 'I' for Inactive)
REMARK    1  A    between atoms: C_1  and  O_2
REMARK    2  A    between atoms: O_2  and  C_3
REMARK    3  A    between atoms: C_3  and  C_4
REMARK    4  A    between atoms: C_4  and  N_5
REMARK    5  A    between atoms: N_5  and  C_6
REMARK    6  A    between atoms: C_7  and  N_22
REMARK    7  A    between atoms: N_8  and  C_15
REMARK    8  A    between atoms: C_15  and  C_16
REMARK    9  A    between atoms: C_23  and  C_25
REMARK   10  A    between atoms: C_25  and  N_56
REMARK                            x       y       z     vdW  Elec       q    Type
REMARK                         _______ _______ _______ _____ _____    ______ ____
ROOT
ATOM      1  C   UNL     1       2.365   1.216  -0.048  0.00  0.00    +0.140 A 
ATOM      2  C   UNL     1       2.720   0.310   0.931  0.00  0.00    +0.128 A 
ATOM      3  N   UNL     1       3.967  -0.269   0.888  0.00  0.00    -0.276 N 
ATOM      4  C   UNL     1       4.834   0.052  -0.089  0.00  0.00    +0.331 A 
ATOM      5  O   UNL     1       5.933  -0.468  -0.106  0.00  0.00    -0.246 OA
ATOM      6  N   UNL     1       4.507   0.936  -1.048  0.00  0.00    -0.273 N 
ATOM      7  H   UNL     1       5.170   1.157  -1.763  0.00  0.00    +0.173 HD
ATOM      8  C   UNL     1       3.296   1.528  -1.055  0.00  0.00    +0.277 A 
ATOM      9  O   UNL     1       3.010   2.329  -1.929  0.00  0.00    -0.266 OA
ENDROOT
BRANCH   1  10
ATOM     10  N   UNL     1       1.091   1.824  -0.035  0.00  0.00    -0.264 N 
ATOM     11  C   UNL     1      -0.018   1.069  -0.170  0.00  0.00    +0.203 C 
ATOM     12  O   UNL     1       0.081  -0.121  -0.386  0.00  0.00    -0.277 OA
BRANCH  10  13
ATOM     13  C   UNL     1       0.974   3.276   0.126  0.00  0.00    +0.142 C 
BRANCH  13  14
ATOM     14  C   UNL     1       0.847   3.616   1.612  0.00  0.00    +0.178 C 
BRANCH  14  16
ATOM     15  C   UNL     1       2.041   3.536   3.689  0.00  0.00    +0.194 C 
ATOM     16  O   UNL     1       2.054   3.258   2.287  0.00  0.00    -0.381 OA
ENDBRANCH  14  16
ENDBRANCH  13  14
ENDBRANCH  10  13
BRANCH  11  17
ATOM     17  C   UNL     1      -1.380   1.703  -0.057  0.00  0.00    +0.019 C 
BRANCH  17  22
ATOM     18  C   UNL     1      -2.196  -0.475   0.663  0.00  0.00    -0.078 C 
ATOM     19  C   UNL     1      -3.587  -1.155   0.716  0.00  0.00    -0.020 C 
ATOM     20  C   UNL     1      -4.560   0.047   0.701  0.00  0.00    -0.020 C 
ATOM     21  C   UNL     1      -3.755   1.208   0.090  0.00  0.00    -0.078 C 
ATOM     22  N   UNL     1      -2.437   0.663  -0.239  0.00  0.00    +0.385 N 
ATOM     23  H   UNL     1      -2.428   0.341  -1.213  0.00  0.00    -0.081 HD
ENDBRANCH  17  22
ENDBRANCH  11  17
ENDBRANCH   1  10
BRANCH   2  24
ATOM     24  N   UNL     1       1.837  -0.013   1.933  0.00  0.00    -0.343 N 
ATOM     25  H   UNL     1       1.001   0.472   2.018  0.00  0.00    +0.144 HD
ATOM     26  H   UNL     1       2.049  -0.726   2.555  0.00  0.00    +0.144 HD
ENDBRANCH   2  24
BRANCH   3  27
ATOM     27  C   UNL     1       4.355  -1.237   1.917  0.00  0.00    +0.163 C 
BRANCH  27  28
ATOM     28  C   UNL     1       5.000  -0.513   3.071  0.00  0.00    -0.028 A 
ATOM     29  C   UNL     1       6.367  -0.310   3.082  0.00  0.00    +0.005 A 
ATOM     30  C   UNL     1       6.958   0.358   4.137  0.00  0.00    +0.000 A 
ATOM     31  C   UNL     1       6.183   0.815   5.187  0.00  0.00    +0.000 A 
ATOM     32  C   UNL     1       4.816   0.607   5.179  0.00  0.00    +0.000 A 
ATOM     33  C   UNL     1       4.225  -0.057   4.120  0.00  0.00    +0.005 A 
ENDBRANCH  27  28
ENDBRANCH   3  27
TORSDOF 9
