REMARK  Name = ZINC24143612
REMARK  11 active torsions:
REMARK  status: ('A' for Active; 'I' for Inactive)
REMARK    1  A    between atoms: C_1  and  C_2
REMARK    2  A    between atoms: C_7  and  C_8
REMARK    3  A    between atoms: C_8  and  C_9
REMARK    4  A    between atoms: C_9  and  N_10
REMARK    5  A    between atoms: C_11  and  C_13
REMARK    6  A    between atoms: C_13  and  S_14
REMARK    7  A    between atoms: S_14  and  C_15
REMARK    8  A    between atoms: C_18  and  C_27
REMARK    9  A    between atoms: N_19  and  C_20
REMARK   10  A    between atoms: C_27  and  C_29
REMARK   11  A    between atoms: C_27  and  N_30
REMARK                            x       y       z     vdW  Elec       q    Type
REMARK                         _______ _______ _______ _____ _____    ______ ____
ROOT
ATOM      1  C   UNL     1      -0.016   1.309   0.009  0.00  0.00    +0.197 A 
ATOM      2  N   UNL     1       0.002  -0.004   0.002  0.00  0.00    -0.122 NA
ATOM      3  N   UNL     1       1.216  -0.425  -0.012  0.00  0.00    -0.135 NA
ATOM      4  C   UNL     1       2.041   0.584  -0.014  0.00  0.00    +0.125 A 
ATOM      5  N   UNL     1       1.287   1.726  -0.001  0.00  0.00    -0.275 N 
ENDROOT
BRANCH   5   6
ATOM      6  C   UNL     1       1.753   3.050   0.001  0.00  0.00    +0.050 A 
ATOM      7  C   UNL     1       2.457   3.541  -1.090  0.00  0.00    +0.029 A 
ATOM      8  C   UNL     1       2.911   4.845  -1.088  0.00  0.00    +0.040 A 
ATOM      9  C   UNL     1       2.673   5.660   0.006  0.00  0.00    +0.124 A 
ATOM     10  C   UNL     1       1.975   5.171   1.098  0.00  0.00    +0.040 A 
ATOM     11  C   UNL     1       1.515   3.869   1.097  0.00  0.00    +0.029 A 
ATOM     12  F   UNL     1       3.122   6.934   0.009  0.00  0.00    -0.205 F 
ENDBRANCH   5   6
BRANCH   4  13
ATOM     13  C   UNL     1       3.546   0.507  -0.030  0.00  0.00    -0.002 C 
ATOM     14  C   UNL     1       4.022   0.115  -1.431  0.00  0.00    -0.005 C 
BRANCH  13  15
ATOM     15  N   UNL     1       3.995  -0.502   0.939  0.00  0.00    +0.386 N 
ATOM     16  C   UNL     1       3.472  -0.212   2.280  0.00  0.00    -0.078 C 
ATOM     17  C   UNL     1       3.837  -1.356   3.230  0.00  0.00    -0.019 C 
ATOM     18  C   UNL     1       5.360  -1.507   3.277  0.00  0.00    -0.004 C 
ATOM     19  C   UNL     1       5.884  -1.760   1.861  0.00  0.00    -0.019 C 
ATOM     20  C   UNL     1       5.460  -0.604   0.952  0.00  0.00    -0.078 C 
ATOM     21  H   UNL     1       3.593  -1.476   0.626  0.00  0.00    -0.081 HD
ENDBRANCH  13  15
ENDBRANCH   4  13
BRANCH   1  22
ATOM     22  S   UNL     1      -1.446   2.337   0.022  0.00  0.00    -0.076 S 
BRANCH  22  23
ATOM     23  C   UNL     1      -2.742   1.074   0.022  0.00  0.00    +0.173 C 
BRANCH  23  25
ATOM     24  N   UNL     1      -5.214   0.992   0.035  0.00  0.00    -0.314 N 
ATOM     25  C   UNL     1      -4.094   1.740   0.033  0.00  0.00    +0.223 C 
ATOM     26  O   UNL     1      -4.173   2.950   0.039  0.00  0.00    -0.275 OA
ATOM     27  H   UNL     1      -5.142  -0.106   0.029  0.00  0.00    +0.149 HD
BRANCH  24  28
ATOM     28  C   UNL     1      -6.528   1.639   0.045  0.00  0.00    +0.109 C 
BRANCH  28  29
ATOM     29  C   UNL     1      -7.624   0.571   0.045  0.00  0.00    +0.054 C 
BRANCH  29  36
ATOM     30  C   UNL     1      -8.836   1.418  -2.437  0.00  0.00    +0.044 C 
ATOM     31  C   UNL     1      -9.555   1.643  -1.132  0.00  0.00    -0.047 A 
ATOM     32  C   UNL     1     -10.795   2.254  -1.123  0.00  0.00    +0.003 A 
ATOM     33  C   UNL     1     -11.455   2.460   0.074  0.00  0.00    +0.000 A 
ATOM     34  C   UNL     1     -10.875   2.054   1.262  0.00  0.00    +0.000 A 
ATOM     35  C   UNL     1      -9.638   1.439   1.252  0.00  0.00    +0.004 A 
ATOM     36  C   UNL     1      -8.975   1.238   0.055  0.00  0.00    -0.043 A 
ENDBRANCH  29  36
ENDBRANCH  28  29
ENDBRANCH  24  28
ENDBRANCH  23  25
ENDBRANCH  22  23
ENDBRANCH   1  22
TORSDOF 9
