REMARK  Name = ZINC45024721
REMARK  4 active torsions:
REMARK  status: ('A' for Active; 'I' for Inactive)
REMARK    1  A    between atoms: C_1  and  C_2
REMARK    2  A    between atoms: C_2  and  N_8
REMARK    3  A    between atoms: C_9  and  C_11
REMARK    4  A    between atoms: C_19  and  N_21
REMARK                            x       y       z     vdW  Elec       q    Type
REMARK                         _______ _______ _______ _____ _____    ______ ____
ROOT
ATOM      1  C   UNL     1       0.899  -0.624  -3.630  0.00  0.00    +0.062 A 
ATOM      2  C   UNL     1       2.018  -1.401  -3.680  0.00  0.00    +0.096 A 
ATOM      3  N   UNL     1       2.357  -1.633  -4.972  0.00  0.00    -0.360 N 
ATOM      4  H   UNL     1       3.119  -2.162  -5.258  0.00  0.00    +0.165 HD
ATOM      5  C   UNL     1       1.466  -1.013  -5.823  0.00  0.00    +0.049 A 
ATOM      6  C   UNL     1       0.510  -0.359  -5.028  0.00  0.00    +0.012 A 
ATOM      7  C   UNL     1      -0.527   0.354  -5.624  0.00  0.00    +0.012 A 
ATOM      8  C   UNL     1      -0.617   0.414  -6.986  0.00  0.00    +0.023 A 
ATOM      9  C   UNL     1       0.323  -0.234  -7.784  0.00  0.00    +0.027 A 
ATOM     10  C   UNL     1       1.365  -0.941  -7.208  0.00  0.00    +0.049 A 
ENDROOT
BRANCH   1  12
ATOM     11  N   UNL     1       0.688  -0.476  -1.203  0.00  0.00    -0.306 N 
ATOM     12  C   UNL     1       0.211  -0.151  -2.421  0.00  0.00    +0.247 C 
ATOM     13  O   UNL     1      -0.788   0.536  -2.520  0.00  0.00    -0.270 OA
ATOM     14  H   UNL     1       1.485  -1.024  -1.125  0.00  0.00    +0.150 HD
BRANCH  11  16
ATOM     15  C   UNL     1      -0.019   1.526   0.010  0.00  0.00    +0.031 C 
ATOM     16  C   UNL     1       0.002  -0.004   0.002  0.00  0.00    +0.032 C 
ATOM     17  C   UNL     1      -1.433  -0.534   0.013  0.00  0.00    +0.025 C 
ATOM     18  C   UNL     1      -1.413  -2.063   0.004  0.00  0.00    +0.002 C 
ATOM     19  C   UNL     1      -0.673  -2.570   1.244  0.00  0.00    +0.000 C 
ATOM     20  C   UNL     1       0.763  -2.041   1.233  0.00  0.00    +0.002 C 
ATOM     21  C   UNL     1       0.742  -0.511   1.242  0.00  0.00    +0.025 C 
ENDBRANCH  11  16
ENDBRANCH   1  12
BRANCH   9  22
ATOM     22  N   UNL     1       0.218  -0.164  -9.176  0.00  0.00    -0.358 N 
ATOM     23  H   UNL     1      -0.507   0.335  -9.584  0.00  0.00    +0.142 HD
ATOM     24  H   UNL     1       0.871  -0.614  -9.735  0.00  0.00    +0.142 HD
ENDBRANCH   9  22
TORSDOF 3
