REMARK  Name = ZINC18247568
REMARK  6 active torsions:
REMARK  status: ('A' for Active; 'I' for Inactive)
REMARK    1  A    between atoms: C_3  and  S_24
REMARK    2  A    between atoms: C_6  and  N_7
REMARK    3  A    between atoms: C_8  and  C_10
REMARK    4  A    between atoms: C_10  and  S_11
REMARK    5  A    between atoms: S_11  and  C_12
REMARK    6  A    between atoms: S_24  and  N_27
REMARK                            x       y       z     vdW  Elec       q    Type
REMARK                         _______ _______ _______ _____ _____    ______ ____
ROOT
ATOM      1  N   UNL     1      -1.199  -0.722   0.010  0.00  0.00    -0.285 N 
ATOM      2  C   UNL     1      -1.183  -2.065  -0.099  0.00  0.00    +0.227 C 
ATOM      3  O   UNL     1      -0.125  -2.659  -0.113  0.00  0.00    -0.275 OA
ATOM      4  H   UNL     1      -2.044  -0.253   0.098  0.00  0.00    +0.155 HD
ENDROOT
BRANCH   1  10
ATOM      5  C   UNL     1       1.072  -0.453  -0.766  0.00  0.00    +0.025 A 
ATOM      6  C   UNL     1       2.256   0.259  -0.778  0.00  0.00    +0.030 A 
ATOM      7  C   UNL     1       2.376   1.416  -0.032  0.00  0.00    +0.105 A 
ATOM      8  C   UNL     1       1.312   1.866   0.729  0.00  0.00    +0.030 A 
ATOM      9  C   UNL     1       0.126   1.160   0.744  0.00  0.00    +0.025 A 
ATOM     10  C   UNL     1       0.002  -0.004  -0.004  0.00  0.00    +0.034 A 
BRANCH   7  11
ATOM     11  S   UNL     1       3.889   2.320  -0.048  0.00  0.00    +0.056 S 
ATOM     12  O   UNL     1       3.928   3.069   1.159  0.00  0.00    -0.153 OA
ATOM     13  O   UNL     1       4.909   1.398  -0.406  0.00  0.00    -0.153 OA
BRANCH  11  14
ATOM     14  N   UNL     1       3.789   3.419  -1.284  0.00  0.00    -0.204 NA
ATOM     15  H   UNL     1       4.261   4.263  -1.221  0.00  0.00    +0.144 HD
ATOM     16  H   UNL     1       3.258   3.217  -2.070  0.00  0.00    +0.144 HD
ENDBRANCH  11  14
ENDBRANCH   7  11
ENDBRANCH   1  10
BRANCH   2  17
ATOM     17  C   UNL     1      -2.478  -2.828  -0.204  0.00  0.00    +0.173 C 
BRANCH  17  18
ATOM     18  S   UNL     1      -2.124  -4.603  -0.337  0.00  0.00    -0.078 S 
BRANCH  18  19
ATOM     19  C   UNL     1      -3.717  -5.347  -0.450  0.00  0.00    +0.170 A 
ATOM     20  N   UNL     1      -3.819  -6.701  -0.558  0.00  0.00    -0.302 N 
ATOM     21  H   UNL     1      -3.021  -7.252  -0.567  0.00  0.00    +0.171 HD
ATOM     22  C   UNL     1      -5.038  -7.269  -0.652  0.00  0.00    +0.255 A 
ATOM     23  O   UNL     1      -5.149  -8.479  -0.756  0.00  0.00    -0.267 OA
ATOM     24  C   UNL     1      -6.184  -6.445  -0.629  0.00  0.00    +0.038 A 
ATOM     25  C   UNL     1      -6.024  -5.101  -0.512  0.00  0.00    +0.052 A 
ATOM     26  N   UNL     1      -4.792  -4.587  -0.423  0.00  0.00    -0.228 NA
ATOM     27  C   UNL     1      -7.187  -4.147  -0.460  0.00  0.00    +0.056 C 
ATOM     28  C   UNL     1      -8.455  -4.813  -0.991  0.00  0.00    +0.006 C 
ATOM     29  C   UNL     1      -8.633  -6.156  -0.272  0.00  0.00    +0.005 C 
ATOM     30  C   UNL     1      -7.532  -7.103  -0.743  0.00  0.00    +0.042 C 
ENDBRANCH  18  19
ENDBRANCH  17  18
ENDBRANCH   2  17
TORSDOF 6
