REMARK  Name = ZINC13498549
REMARK  11 active torsions:
REMARK  status: ('A' for Active; 'I' for Inactive)
REMARK    1  A    between atoms: C_1  and  C_2
REMARK    2  A    between atoms: C_7  and  C_14
REMARK    3  A    between atoms: C_14  and  N_72
REMARK    4  A    between atoms: C_15  and  N_72
REMARK    5  A    between atoms: C_21  and  C_23
REMARK    6  A    between atoms: C_21  and  C_35
REMARK    7  A    between atoms: C_21  and  N_72
REMARK    8  A    between atoms: N_27  and  C_28
REMARK    9  A    between atoms: C_28  and  C_29
REMARK   10  A    between atoms: C_35  and  C_36
REMARK   11  A    between atoms: C_35  and  C_37
REMARK                            x       y       z     vdW  Elec       q    Type
REMARK                         _______ _______ _______ _____ _____    ______ ____
ROOT
ATOM      1  N   UNL     1       1.200   1.075   7.118  0.00  0.00    +0.391 N 
ATOM      2  H   UNL     1       0.517   0.315   7.220  0.00  0.00    -0.080 HD
ENDROOT
BRANCH   1   3
ATOM      3  C   UNL     1       0.524   2.365   7.369  0.00  0.00    -0.067 C 
ATOM      4  C   UNL     1       1.523   3.521   7.277  0.00  0.00    -0.015 C 
ATOM      5  C   UNL     1       0.799   4.842   7.541  0.00  0.00    -0.002 C 
ATOM      6  C   UNL     1       0.180   4.814   8.940  0.00  0.00    -0.000 C 
ATOM      7  C   UNL     1      -0.819   3.658   9.032  0.00  0.00    -0.002 C 
ATOM      8  C   UNL     1      -0.095   2.336   8.768  0.00  0.00    -0.015 C 
ENDBRANCH   1   3
BRANCH   1   9
ATOM      9  C   UNL     1       2.289   0.876   8.098  0.00  0.00    -0.036 C 
BRANCH   9  16
ATOM     10  C   UNL     1       4.971  -6.620   7.611  0.00  0.00    +0.044 C 
ATOM     11  C   UNL     1       4.640  -5.151   7.558  0.00  0.00    -0.048 A 
ATOM     12  C   UNL     1       5.421  -4.298   6.790  0.00  0.00    +0.004 A 
ATOM     13  C   UNL     1       5.138  -2.963   6.729  0.00  0.00    +0.010 A 
ATOM     14  C   UNL     1       4.053  -2.450   7.447  0.00  0.00    -0.001 A 
ATOM     15  C   UNL     1       3.718  -1.026   7.399  0.00  0.00    +0.017 A 
ATOM     16  C   UNL     1       2.657  -0.586   8.120  0.00  0.00    +0.001 A 
ATOM     17  C   UNL     1       1.894  -1.491   8.887  0.00  0.00    +0.251 A 
ATOM     18  O   UNL     1       0.941  -1.075   9.524  0.00  0.00    -0.268 OA
ATOM     19  N   UNL     1       2.191  -2.802   8.933  0.00  0.00    -0.322 N 
ATOM     20  H   UNL     1       1.645  -3.397   9.471  0.00  0.00    +0.169 HD
ATOM     21  C   UNL     1       3.260  -3.312   8.228  0.00  0.00    +0.049 A 
ATOM     22  C   UNL     1       3.567  -4.668   8.275  0.00  0.00    +0.029 A 
ENDBRANCH   9  16
ENDBRANCH   1   9
BRANCH   1  23
ATOM     23  C   UNL     1       1.746   1.049   5.745  0.00  0.00    +0.006 C 
BRANCH  23  24
ATOM     24  C   UNL     1       0.889   1.905   4.848  0.00  0.00    +0.139 A 
ATOM     25  N   UNL     1      -0.400   1.783   4.648  0.00  0.00    -0.115 NA
ATOM     26  N   UNL     1      -0.763   2.698   3.818  0.00  0.00    -0.023 NA
ATOM     27  N   UNL     1       0.262   3.402   3.482  0.00  0.00    -0.044 NA
ATOM     28  N   UNL     1       1.299   2.947   4.101  0.00  0.00    -0.226 N 
BRANCH  28  29
ATOM     29  C   UNL     1       2.666   3.465   4.005  0.00  0.00    +0.182 C 
BRANCH  29  30
ATOM     30  C   UNL     1       2.659   4.763   3.240  0.00  0.00    -0.026 A 
ATOM     31  C   UNL     1       2.572   4.753   1.860  0.00  0.00    +0.005 A 
ATOM     32  C   UNL     1       2.560   5.944   1.159  0.00  0.00    +0.000 A 
ATOM     33  C   UNL     1       2.646   7.146   1.837  0.00  0.00    +0.000 A 
ATOM     34  C   UNL     1       2.738   7.156   3.216  0.00  0.00    +0.000 A 
ATOM     35  C   UNL     1       2.744   5.965   3.918  0.00  0.00    +0.005 A 
ENDBRANCH  29  30
ENDBRANCH  28  29
ENDBRANCH  23  24
BRANCH  23  36
ATOM     36  C   UNL     1       1.728  -0.396   5.240  0.00  0.00    -0.024 C 
ATOM     37  C   UNL     1       2.385  -0.462   3.860  0.00  0.00    +0.006 C 
ATOM     38  C   UNL     1       0.281  -0.883   5.141  0.00  0.00    +0.006 C 
ENDBRANCH  23  36
ENDBRANCH   1  23
TORSDOF 8
