REMARK  Name = ZINC02619543
REMARK  8 active torsions:
REMARK  status: ('A' for Active; 'I' for Inactive)
REMARK    1  A    between atoms: C_4  and  C_7
REMARK    2  A    between atoms: C_7  and  N_8
REMARK    3  A    between atoms: N_8  and  C_9
REMARK    4  A    between atoms: C_9  and  N_11
REMARK    5  A    between atoms: N_11  and  N_12
REMARK    6  A    between atoms: C_13  and  C_15
REMARK    7  A    between atoms: C_15  and  C_16
REMARK    8  A    between atoms: C_16  and  C_17
REMARK                            x       y       z     vdW  Elec       q    Type
REMARK                         _______ _______ _______ _____ _____    ______ ____
ROOT
ATOM      1  N   UNL     1      -0.288   1.272  -2.443  0.00  0.00    -0.235 N 
ATOM      2  C   UNL     1      -0.742   1.585  -1.213  0.00  0.00    +0.229 C 
ATOM      3  O   UNL     1      -1.736   2.268  -1.088  0.00  0.00    -0.274 OA
ATOM      4  H   UNL     1       0.507   0.726  -2.543  0.00  0.00    +0.173 HD
ENDROOT
BRANCH   1   5
ATOM      5  N   UNL     1      -0.966   1.736  -3.578  0.00  0.00    -0.246 N 
ATOM      6  H   UNL     1      -1.761   2.283  -3.479  0.00  0.00    +0.172 HD
BRANCH   5   7
ATOM      7  C   UNL     1      -0.513   1.424  -4.808  0.00  0.00    +0.147 C 
ATOM      8  S   UNL     1      -1.341   1.991  -6.195  0.00  0.00    -0.017 S 
BRANCH   7   9
ATOM      9  N   UNL     1       0.592   0.664  -4.947  0.00  0.00    -0.321 N 
ATOM     10  H   UNL     1       1.061   0.343  -4.161  0.00  0.00    +0.148 HD
BRANCH   9  11
ATOM     11  C   UNL     1       1.085   0.325  -6.284  0.00  0.00    +0.138 C 
BRANCH  11  15
ATOM     12  C   UNL     1       4.594  -2.086  -5.939  0.00  0.00    +0.000 A 
ATOM     13  C   UNL     1       3.349  -2.683  -5.993  0.00  0.00    +0.000 A 
ATOM     14  C   UNL     1       2.213  -1.903  -6.105  0.00  0.00    +0.005 A 
ATOM     15  C   UNL     1       2.323  -0.526  -6.162  0.00  0.00    -0.030 A 
ATOM     16  C   UNL     1       3.569   0.071  -6.113  0.00  0.00    +0.005 A 
ATOM     17  C   UNL     1       4.704  -0.709  -5.996  0.00  0.00    +0.000 A 
ENDBRANCH  11  15
ENDBRANCH   9  11
ENDBRANCH   7   9
ENDBRANCH   5   7
ENDBRANCH   1   5
BRANCH   2  18
ATOM     18  C   UNL     1      -0.013   1.086   0.008  0.00  0.00    +0.102 C 
BRANCH  18  19
ATOM     19  C   UNL     1      -0.729   1.579   1.267  0.00  0.00    +0.046 C 
BRANCH  19  20
ATOM     20  C   UNL     1       0.000   1.080   2.488  0.00  0.00    -0.022 A 
ATOM     21  C   UNL     1      -0.289  -0.024   3.194  0.00  0.00    +0.087 A 
ATOM     22  N   UNL     1       0.591  -0.156   4.234  0.00  0.00    -0.360 N 
ATOM     23  H   UNL     1       0.584  -0.878   4.882  0.00  0.00    +0.165 HD
ATOM     24  C   UNL     1       1.485   0.891   4.226  0.00  0.00    +0.047 A 
ATOM     25  C   UNL     1       1.154   1.711   3.132  0.00  0.00    +0.003 A 
ATOM     26  C   UNL     1       1.901   2.862   2.874  0.00  0.00    +0.010 A 
ATOM     27  C   UNL     1       2.951   3.186   3.686  0.00  0.00    +0.001 A 
ATOM     28  C   UNL     1       3.281   2.381   4.767  0.00  0.00    +0.002 A 
ATOM     29  C   UNL     1       2.558   1.240   5.040  0.00  0.00    +0.026 A 
ENDBRANCH  19  20
ENDBRANCH  18  19
ENDBRANCH   2  18
TORSDOF 8
