REMARK  Name = ZINC01375632
REMARK  14 active torsions:
REMARK  status: ('A' for Active; 'I' for Inactive)
REMARK    1  A    between atoms: C_1  and  C_2
REMARK    2  A    between atoms: C_2  and  C_3
REMARK    3  A    between atoms: C_3  and  C_5
REMARK    4  A    between atoms: C_3  and  N_16
REMARK    5  A    between atoms: N_9  and  C_10
REMARK    6  A    between atoms: C_10  and  C_11
REMARK    7  A    between atoms: N_16  and  C_17
REMARK    8  A    between atoms: N_16  and  C_26
REMARK    9  A    between atoms: C_17  and  C_18
REMARK   10  A    between atoms: C_21  and  O_24
REMARK   11  A    between atoms: O_24  and  C_25
REMARK   12  A    between atoms: C_26  and  C_27
REMARK   13  A    between atoms: C_30  and  C_40
REMARK   14  A    between atoms: C_33  and  C_39
REMARK                            x       y       z     vdW  Elec       q    Type
REMARK                         _______ _______ _______ _____ _____    ______ ____
ROOT
ATOM      1  N   UNL     1      -0.569  -1.576   0.664  0.00  0.00    -0.284 NA
ENDROOT
BRANCH   1   2
ATOM      2  C   UNL     1       0.853  -1.745   0.338  0.00  0.00    +0.127 C 
BRANCH   2   3
ATOM      3  C   UNL     1       1.689  -0.962   1.317  0.00  0.00    +0.169 A 
ATOM      4  N   UNL     1       2.122  -1.376   2.483  0.00  0.00    -0.112 NA
ATOM      5  N   UNL     1       2.800  -0.421   3.019  0.00  0.00    -0.023 NA
ATOM      6  N   UNL     1       2.811   0.593   2.225  0.00  0.00    -0.043 NA
ATOM      7  N   UNL     1       2.142   0.296   1.162  0.00  0.00    -0.220 N 
BRANCH   7   8
ATOM      8  C   UNL     1       1.914   1.167   0.006  0.00  0.00    +0.221 C 
BRANCH   8   9
ATOM      9  C   UNL     1       1.157   2.394   0.443  0.00  0.00    +0.126 A 
ATOM     10  C   UNL     1       1.702   3.582   0.761  0.00  0.00    +0.046 A 
ATOM     11  C   UNL     1       0.634   4.441   1.111  0.00  0.00    +0.041 A 
ATOM     12  C   UNL     1      -0.498   3.727   0.986  0.00  0.00    +0.195 A 
ATOM     13  O   UNL     1      -0.176   2.489   0.576  0.00  0.00    -0.466 OA
ENDBRANCH   8   9
ENDBRANCH   7   8
ENDBRANCH   2   3
BRANCH   2  15
ATOM     14  C   UNL     1       0.497  -3.997  -0.684  0.00  0.00    +0.006 C 
ATOM     15  C   UNL     1       1.224  -3.227   0.421  0.00  0.00    +0.023 C 
ENDBRANCH   2  15
ENDBRANCH   1   2
BRANCH   1  16
ATOM     16  C   UNL     1      -0.777  -1.558   2.118  0.00  0.00    +0.120 C 
BRANCH  16  17
ATOM     17  C   UNL     1      -0.745  -2.968   2.648  0.00  0.00    -0.033 A 
ATOM     18  C   UNL     1      -1.757  -3.852   2.323  0.00  0.00    +0.008 A 
ATOM     19  C   UNL     1      -1.730  -5.145   2.808  0.00  0.00    +0.046 A 
ATOM     20  C   UNL     1      -0.685  -5.557   3.621  0.00  0.00    +0.120 A 
ATOM     21  C   UNL     1       0.331  -4.669   3.946  0.00  0.00    +0.046 A 
ATOM     22  C   UNL     1       0.301  -3.379   3.454  0.00  0.00    +0.008 A 
BRANCH  20  23
ATOM     23  O   UNL     1      -0.656  -6.829   4.100  0.00  0.00    -0.495 OA
ATOM     24  C   UNL     1       0.451  -7.184   4.932  0.00  0.00    +0.277 C 
ENDBRANCH  20  23
ENDBRANCH  16  17
ENDBRANCH   1  16
BRANCH   1  25
ATOM     25  C   UNL     1      -1.113  -0.363   0.039  0.00  0.00    +0.126 C 
BRANCH  25  26
ATOM     26  C   UNL     1      -1.953  -0.745  -1.152  0.00  0.00    +0.032 A 
ATOM     27  C   UNL     1      -3.305  -0.751  -1.050  0.00  0.00    +0.020 A 
ATOM     28  C   UNL     1      -4.093  -1.126  -2.226  0.00  0.00    +0.002 A 
ATOM     29  C   UNL     1      -5.491  -1.151  -2.183  0.00  0.00    -0.041 A 
ATOM     30  C   UNL     1      -6.197  -1.504  -3.297  0.00  0.00    +0.004 A 
ATOM     31  C   UNL     1      -5.540  -1.841  -4.473  0.00  0.00    +0.005 A 
ATOM     32  C   UNL     1      -4.163  -1.824  -4.538  0.00  0.00    -0.026 A 
ATOM     33  C   UNL     1      -3.423  -1.466  -3.416  0.00  0.00    +0.052 A 
ATOM     34  N   UNL     1      -2.045  -1.440  -3.454  0.00  0.00    -0.322 N 
ATOM     35  H   UNL     1      -1.585  -1.674  -4.275  0.00  0.00    +0.169 HD
ATOM     36  C   UNL     1      -1.331  -1.089  -2.371  0.00  0.00    +0.254 A 
ATOM     37  O   UNL     1      -0.114  -1.072  -2.442  0.00  0.00    -0.268 OA
ATOM     38  C   UNL     1      -3.463  -2.193  -5.821  0.00  0.00    +0.046 C 
ATOM     39  C   UNL     1      -6.215  -0.788  -0.911  0.00  0.00    +0.044 C 
ENDBRANCH  25  26
ENDBRANCH   1  25
TORSDOF 10
