REMARK  Name = ZINC51095272
REMARK  6 active torsions:
REMARK  status: ('A' for Active; 'I' for Inactive)
REMARK    1  A    between atoms: C_1  and  C_2
REMARK    2  A    between atoms: C_2  and  C_4
REMARK    3  A    between atoms: C_2  and  N_10
REMARK    4  A    between atoms: C_11  and  C_13
REMARK    5  A    between atoms: C_17  and  N_19
REMARK    6  A    between atoms: N_19  and  N_20
REMARK                            x       y       z     vdW  Elec       q    Type
REMARK                         _______ _______ _______ _____ _____    ______ ____
ROOT
ATOM      1  N   UNL     1       0.711  -0.489   1.189  0.00  0.00    -0.303 N 
ATOM      2  C   UNL     1       0.051  -0.633   2.355  0.00  0.00    +0.264 C 
ATOM      3  O   UNL     1      -1.131  -0.361   2.423  0.00  0.00    -0.268 OA
ATOM      4  H   UNL     1       1.654  -0.707   1.135  0.00  0.00    +0.150 HD
ENDROOT
BRANCH   2   5
ATOM      5  C   UNL     1       0.767  -1.124   3.555  0.00  0.00    +0.146 A 
ATOM      6  C   UNL     1       0.078  -1.276   4.756  0.00  0.00    +0.072 A 
ATOM      7  C   UNL     1       0.760  -1.737   5.875  0.00  0.00    +0.026 A 
ATOM      8  C   UNL     1       2.106  -2.030   5.755  0.00  0.00    +0.046 A 
ATOM      9  C   UNL     1       2.736  -1.856   4.522  0.00  0.00    +0.133 A 
ATOM     10  N   UNL     1       2.060  -1.420   3.474  0.00  0.00    -0.225 NA
ATOM     11 CL   UNL     1      -1.612  -0.893   4.853  0.00  0.00    -0.081 Cl
BRANCH   9  12
ATOM     12  N   UNL     1       4.089  -2.148   4.394  0.00  0.00    -0.268 N 
ATOM     13  H   UNL     1       4.590  -2.472   5.159  0.00  0.00    +0.167 HD
BRANCH  12  14
ATOM     14  N   UNL     1       4.713  -1.980   3.191  0.00  0.00    -0.255 NA
ATOM     15  H   UNL     1       5.689  -2.231   3.251  0.00  0.00    +0.140 HD
ATOM     16  H   UNL     1       4.249  -2.506   2.466  0.00  0.00    +0.140 HD
ENDBRANCH  12  14
ENDBRANCH   9  12
ENDBRANCH   2   5
BRANCH   1  18
ATOM     17  C   UNL     1      -0.019   1.526   0.010  0.00  0.00    +0.033 C 
ATOM     18  C   UNL     1       0.002  -0.004   0.002  0.00  0.00    +0.107 C 
BRANCH  18  19
ATOM     19  C   UNL     1       0.707  -0.490  -1.238  0.00  0.00    +0.011 A 
ATOM     20  C   UNL     1       0.176  -0.943  -2.400  0.00  0.00    +0.014 A 
ATOM     21  C   UNL     1       1.026  -1.341  -3.415  0.00  0.00    +0.028 A 
ATOM     22  C   UNL     1       2.366  -1.267  -3.218  0.00  0.00    +0.078 A 
ATOM     23  S   UNL     1       2.459  -0.612  -1.560  0.00  0.00    -0.080 S 
ATOM     24 CL   UNL     1       3.656  -1.693  -4.299  0.00  0.00    -0.076 Cl
ENDBRANCH  18  19
ENDBRANCH   1  18
TORSDOF 5
