REMARK  Name = ZINC59148374
REMARK  7 active torsions:
REMARK  status: ('A' for Active; 'I' for Inactive)
REMARK    1  A    between atoms: C_1  and  C_2
REMARK    2  A    between atoms: C_7  and  C_8
REMARK    3  A    between atoms: N_9  and  C_12
REMARK    4  A    between atoms: C_12  and  C_13
REMARK    5  A    between atoms: N_15  and  N_16
REMARK    6  A    between atoms: N_24  and  C_27
REMARK    7  A    between atoms: C_27  and  C_28
REMARK                            x       y       z     vdW  Elec       q    Type
REMARK                         _______ _______ _______ _____ _____    ______ ____
ROOT
ATOM      1  N   UNL     1      -2.867  -6.882   2.297  0.00  0.00    -0.174 NA
ATOM      2  C   UNL     1      -3.097  -7.923   3.058  0.00  0.00    +0.153 C 
ATOM      3  C   UNL     1      -2.099  -8.822   3.684  0.00  0.00    +0.028 A 
ATOM      4  C   UNL     1      -0.709  -8.856   3.672  0.00  0.00    +0.012 A 
ATOM      5  C   UNL     1      -0.042  -9.843   4.370  0.00  0.00    +0.001 A 
ATOM      6  C   UNL     1      -0.756 -10.795   5.079  0.00  0.00    +0.002 A 
ATOM      7  C   UNL     1      -2.136 -10.769   5.097  0.00  0.00    +0.024 A 
ATOM      8  C   UNL     1      -2.825  -9.783   4.399  0.00  0.00    +0.046 A 
ATOM      9  N   UNL     1      -4.185  -9.533   4.255  0.00  0.00    -0.261 N 
ATOM     10  C   UNL     1      -4.408  -8.454   3.486  0.00  0.00    +0.272 C 
ATOM     11  O   UNL     1      -5.496  -7.996   3.191  0.00  0.00    -0.268 OA
ENDROOT
BRANCH   1  14
ATOM     12  C   UNL     1      -1.310  -5.493   1.150  0.00  0.00    +0.252 C 
ATOM     13  O   UNL     1      -2.202  -4.702   0.926  0.00  0.00    -0.272 OA
ATOM     14  N   UNL     1      -1.568  -6.622   1.839  0.00  0.00    -0.205 N 
ATOM     15  H   UNL     1      -0.855  -7.254   2.019  0.00  0.00    +0.177 HD
BRANCH  12  16
ATOM     16  C   UNL     1       0.086  -5.213   0.658  0.00  0.00    +0.220 C 
BRANCH  16  25
ATOM     17  C   UNL     1       0.620   1.510   1.264  0.00  0.00    +0.044 C 
ATOM     18  C   UNL     1       0.488   0.034   0.988  0.00  0.00    -0.045 A 
ATOM     19  C   UNL     1       0.330  -0.402  -0.297  0.00  0.00    +0.033 A 
ATOM     20  C   UNL     1       0.208  -1.769  -0.559  0.00  0.00    +0.089 A 
ATOM     21  C   UNL     1       0.249  -2.683   0.508  0.00  0.00    +0.069 A 
ATOM     22  C   UNL     1       0.410  -2.221   1.807  0.00  0.00    +0.031 A 
ATOM     23  C   UNL     1       0.534  -0.868   2.041  0.00  0.00    -0.045 A 
ATOM     24  C   UNL     1       0.715  -0.365   3.450  0.00  0.00    +0.044 C 
ATOM     25  N   UNL     1       0.105  -3.934  -0.057  0.00  0.00    -0.321 N 
ATOM     26  C   UNL     1      -0.016  -3.760  -1.401  0.00  0.00    +0.200 A 
ATOM     27  N   UNL     1       0.044  -2.494  -1.695  0.00  0.00    -0.236 NA
ENDBRANCH  16  25
ENDBRANCH  12  16
ENDBRANCH   1  14
BRANCH   9  28
ATOM     28  C   UNL     1      -5.242 -10.341   4.868  0.00  0.00    +0.152 C 
BRANCH  28  29
ATOM     29  C   UNL     1      -5.574  -9.784   6.229  0.00  0.00    +0.005 A 
ATOM     30  C   UNL     1      -5.049 -10.373   7.364  0.00  0.00    +0.008 A 
ATOM     31  C   UNL     1      -5.353  -9.862   8.611  0.00  0.00    +0.000 A 
ATOM     32  C   UNL     1      -6.183  -8.762   8.726  0.00  0.00    +0.003 A 
ATOM     33  C   UNL     1      -6.709  -8.172   7.593  0.00  0.00    +0.038 A 
ATOM     34  C   UNL     1      -6.401  -8.679   6.342  0.00  0.00    +0.128 A 
ATOM     35  F   UNL     1      -6.911  -8.100   5.233  0.00  0.00    -0.205 F 
ENDBRANCH  28  29
ENDBRANCH   9  28
TORSDOF 5
