REMARK  Name = ZINC06263190
REMARK  9 active torsions:
REMARK  status: ('A' for Active; 'I' for Inactive)
REMARK    1  A    between atoms: C_1  and  C_2
REMARK    2  A    between atoms: C_2  and  C_3
REMARK    3  A    between atoms: C_2  and  C_4
REMARK    4  A    between atoms: C_7  and  N_10
REMARK    5  A    between atoms: N_10  and  C_11
REMARK    6  A    between atoms: N_10  and  S_24
REMARK    7  A    between atoms: C_11  and  C_12
REMARK    8  A    between atoms: N_14  and  N_15
REMARK    9  A    between atoms: S_24  and  C_27
REMARK                            x       y       z     vdW  Elec       q    Type
REMARK                         _______ _______ _______ _____ _____    ______ ____
ROOT
ATOM      1  N   UNL     1       1.069  -2.183  -0.020  0.00  0.00    -0.199 N 
ENDROOT
BRANCH   1   5
ATOM      2  C   UNL     1       0.440  -4.202   3.567  0.00  0.00    -0.045 A 
ATOM      3  C   UNL     1       0.165  -2.849   3.479  0.00  0.00    +0.006 A 
ATOM      4  C   UNL     1       0.372  -2.177   2.291  0.00  0.00    +0.025 A 
ATOM      5  C   UNL     1       0.858  -2.860   1.184  0.00  0.00    +0.051 A 
ATOM      6  C   UNL     1       1.129  -4.220   1.274  0.00  0.00    +0.025 A 
ATOM      7  C   UNL     1       0.924  -4.885   2.467  0.00  0.00    +0.006 A 
BRANCH   2   9
ATOM      8  C   UNL     1      -0.806  -6.053   4.649  0.00  0.00    +0.012 C 
ATOM      9  C   UNL     1       0.213  -4.932   4.866  0.00  0.00    +0.013 C 
ATOM     10  C   UNL     1       1.534  -5.530   5.352  0.00  0.00    +0.012 C 
ENDBRANCH   2   9
ENDBRANCH   1   5
BRANCH   1  11
ATOM     11  S   UNL     1       1.038  -3.013  -1.453  0.00  0.00    +0.043 S 
ATOM     12  O   UNL     1       0.137  -4.088  -1.230  0.00  0.00    -0.155 OA
ATOM     13  O   UNL     1       0.760  -2.026  -2.437  0.00  0.00    -0.155 OA
ATOM     14  C   UNL     1       2.726  -3.646  -1.662  0.00  0.00    +0.218 C 
ENDBRANCH   1  11
BRANCH   1  15
ATOM     15  C   UNL     1       1.317  -0.740  -0.015  0.00  0.00    +0.228 C 
BRANCH  15  16
ATOM     16  C   UNL     1       0.002  -0.004   0.002  0.00  0.00    +0.251 C 
ATOM     17  O   UNL     1      -1.040  -0.625   0.009  0.00  0.00    -0.272 OA
ATOM     18  N   UNL     1      -0.016   1.344   0.009  0.00  0.00    -0.206 N 
ATOM     19  H   UNL     1       0.817   1.840   0.004  0.00  0.00    +0.177 HD
BRANCH  18  20
ATOM     20  N   UNL     1      -1.239   2.027   0.019  0.00  0.00    -0.189 NA
ATOM     21  C   UNL     1      -1.256   3.308   0.026  0.00  0.00    +0.037 C 
ATOM     22  C   UNL     1       0.036   4.090   0.030  0.00  0.00    +0.052 C 
ATOM     23  C   UNL     1       0.725   3.913  -1.320  0.00  0.00    +0.006 C 
ATOM     24  C   UNL     1      -0.045   4.708  -2.392  0.00  0.00    +0.000 C 
ATOM     25  C   UNL     1      -1.293   3.931  -2.796  0.00  0.00    +0.000 C 
ATOM     26  C   UNL     1      -2.571   4.684  -2.382  0.00  0.00    +0.000 C 
ATOM     27  C   UNL     1      -2.439   5.214  -0.956  0.00  0.00    +0.006 C 
ATOM     28  C   UNL     1      -2.555   4.047   0.036  0.00  0.00    +0.052 C 
ENDBRANCH  18  20
ENDBRANCH  15  16
ENDBRANCH   1  15
TORSDOF 6
