REMARK  Name = ZINC51714600
REMARK  5 active torsions:
REMARK  status: ('A' for Active; 'I' for Inactive)
REMARK    1  A    between atoms: C_3  and  C_6
REMARK    2  A    between atoms: C_6  and  N_7
REMARK    3  A    between atoms: C_10  and  C_13
REMARK    4  A    between atoms: C_13  and  N_14
REMARK    5  A    between atoms: C_21  and  C_24
REMARK                            x       y       z     vdW  Elec       q    Type
REMARK                         _______ _______ _______ _____ _____    ______ ____
ROOT
ATOM      1  N   UNL     1       7.843   2.282   5.052  0.00  0.00    -0.299 N 
ATOM      2  C   UNL     1       8.400   2.572   6.245  0.00  0.00    +0.302 C 
ATOM      3  O   UNL     1       7.739   2.487   7.262  0.00  0.00    -0.253 OA
ATOM      4  N   UNL     1       9.691   2.955   6.310  0.00  0.00    -0.281 N 
ATOM      5  C   UNL     1      10.354   3.165   7.607  0.00  0.00    +0.137 C 
ATOM      6  C   UNL     1      11.673   2.384   7.607  0.00  0.00    +0.180 C 
ATOM      7  O   UNL     1      12.427   2.734   6.444  0.00  0.00    -0.364 OA
ATOM      8  C   UNL     1      11.791   2.393   5.210  0.00  0.00    +0.221 C 
ATOM      9  C   UNL     1      10.480   3.169   5.087  0.00  0.00    +0.150 C 
ATOM     10  H   UNL     1       8.347   2.420   4.235  0.00  0.00    +0.150 HD
ENDROOT
BRANCH   8  11
ATOM     11  C   UNL     1      12.700   2.749   4.061  0.00  0.00    +0.241 C 
ATOM     12  O   UNL     1      13.745   3.327   4.271  0.00  0.00    -0.273 OA
ATOM     13  N   UNL     1      12.350   2.424   2.801  0.00  0.00    -0.327 N 
ATOM     14  H   UNL     1      11.514   1.962   2.633  0.00  0.00    +0.145 HD
ATOM     15  H   UNL     1      12.935   2.653   2.061  0.00  0.00    +0.145 HD
ENDBRANCH   8  11
BRANCH   1  16
ATOM     16  C   UNL     1       6.475   1.760   4.991  0.00  0.00    +0.109 C 
BRANCH  16  20
ATOM     17  N   UNL     1       4.234   2.002   1.358  0.00  0.00    +0.383 N 
ATOM     18  C   UNL     1       4.292   0.687   2.007  0.00  0.00    -0.078 C 
ATOM     19  C   UNL     1       4.708   0.855   3.470  0.00  0.00    -0.014 C 
ATOM     20  C   UNL     1       6.088   1.517   3.531  0.00  0.00    +0.003 C 
ATOM     21  C   UNL     1       6.034   2.854   2.786  0.00  0.00    -0.014 C 
ATOM     22  C   UNL     1       5.569   2.612   1.348  0.00  0.00    -0.078 C 
ATOM     23  H   UNL     1       3.597   2.598   1.865  0.00  0.00    -0.081 HD
BRANCH  17  24
ATOM     24  C   UNL     1       3.759   1.844  -0.023  0.00  0.00    -0.036 C 
BRANCH  24  27
ATOM     25  C   UNL     1      -0.017   1.345   0.011  0.00  0.00    +0.008 A 
ATOM     26  C   UNL     1       1.182   2.034   0.004  0.00  0.00    +0.009 A 
ATOM     27  C   UNL     1       2.342   1.333  -0.012  0.00  0.00    -0.027 A 
ATOM     28  S   UNL     1       1.755  -0.353  -0.016  0.00  0.00    -0.103 S 
ATOM     29  C   UNL     1       0.003  -0.010   0.003  0.00  0.00    +0.045 A 
ENDBRANCH  24  27
ENDBRANCH  17  24
ENDBRANCH  16  20
ENDBRANCH   1  16
TORSDOF 5
