REMARK  Name = ZINC37425344
REMARK  2 active torsions:
REMARK  status: ('A' for Active; 'I' for Inactive)
REMARK    1  A    between atoms: C_7  and  C_9
REMARK    2  A    between atoms: C_15  and  C_17
REMARK                            x       y       z     vdW  Elec       q    Type
REMARK                         _______ _______ _______ _____ _____    ______ ____
ROOT
ATOM      1  C   UNL     1      -0.281   1.277   0.315  0.00  0.00    +0.136 A 
ATOM      2  C   UNL     1      -0.195   1.742   1.586  0.00  0.00    +0.076 A 
ATOM      3  S   UNL     1       0.126   0.227   2.474  0.00  0.00    -0.045 S 
ATOM      4  C   UNL     1       0.118  -0.821   1.157  0.00  0.00    +0.165 A 
ATOM      5  N   UNL     1      -0.117  -0.022   0.139  0.00  0.00    -0.232 NA
ATOM      6  N   UNL     1       0.313  -2.197   1.147  0.00  0.00    -0.264 N 
ATOM      7  C   UNL     1       0.271  -2.876  -0.016  0.00  0.00    +0.223 C 
ATOM      8  O   UNL     1       0.063  -2.286  -1.055  0.00  0.00    -0.275 OA
ATOM      9 BR   UNL     1      -0.368   3.509   2.238  0.00  0.00    -0.041 Br
ATOM     10  H   UNL     1       0.479  -2.670   1.978  0.00  0.00    +0.157 HD
ENDROOT
BRANCH   7  11
ATOM     11  C   UNL     1       0.482  -4.368  -0.027  0.00  0.00    +0.093 C 
ATOM     12  C   UNL     1       1.135  -4.786  -1.346  0.00  0.00    +0.040 C 
ATOM     13  C   UNL     1       0.158  -4.639  -2.476  0.00  0.00    -0.030 C 
ATOM     14  C   UNL     1      -1.123  -4.530  -2.318  0.00  0.00    -0.030 C 
ATOM     15  C   UNL     1      -1.808  -4.526  -0.982  0.00  0.00    +0.042 C 
ATOM     16  C   UNL     1      -0.871  -5.081   0.098  0.00  0.00    +0.118 C 
BRANCH  16  17
ATOM     17  C   UNL     1      -1.453  -4.827   1.464  0.00  0.00    +0.360 C 
ATOM     18  O   UNL     1      -2.663  -4.800   1.616  0.00  0.00    -0.246 OA
ATOM     19  O   UNL     1      -0.715  -4.649   2.418  0.00  0.00    -0.246 OA
ENDBRANCH  16  17
ENDBRANCH   7  11
TORSDOF 2
