REMARK  Name = ZINC12513370
REMARK  9 active torsions:
REMARK  status: ('A' for Active; 'I' for Inactive)
REMARK    1  A    between atoms: C_1  and  C_2
REMARK    2  A    between atoms: C_2  and  O_3
REMARK    3  A    between atoms: O_3  and  C_4
REMARK    4  A    between atoms: C_4  and  C_6
REMARK    5  A    between atoms: N_11  and  C_13
REMARK    6  A    between atoms: C_14  and  C_27
REMARK    7  A    between atoms: C_17  and  C_18
REMARK    8  A    between atoms: N_29  and  C_30
REMARK    9  A    between atoms: C_30  and  C_31
REMARK                            x       y       z     vdW  Elec       q    Type
REMARK                         _______ _______ _______ _____ _____    ______ ____
ROOT
ATOM      1  C   UNL     1      -0.171   1.054  -7.188  0.00  0.00    +0.112 A 
ATOM      2  C   UNL     1      -0.714   1.290  -8.465  0.00  0.00    +0.075 A 
ATOM      3  C   UNL     1      -0.095   0.715  -9.584  0.00  0.00    +0.018 A 
ATOM      4  C   UNL     1       1.013  -0.065  -9.392  0.00  0.00    +0.027 A 
ATOM      5  C   UNL     1       1.499  -0.265  -8.097  0.00  0.00    +0.049 A 
ATOM      6  N   UNL     1       0.930   0.280  -6.976  0.00  0.00    -0.342 N 
ATOM      7  H   UNL     1       1.309   0.116  -6.037  0.00  0.00    +0.167 HD
ENDROOT
BRANCH   5   8
ATOM      8  C   UNL     1       2.694  -1.107  -7.890  0.00  0.00    +0.013 A 
ATOM      9  C   UNL     1       3.319  -1.692  -8.943  0.00  0.00    +0.056 A 
ATOM     10  S   UNL     1       4.670  -2.575  -8.188  0.00  0.00    -0.096 S 
ATOM     11  C   UNL     1       4.367  -2.155  -6.491  0.00  0.00    +0.020 A 
ATOM     12  C   UNL     1       3.224  -1.332  -6.545  0.00  0.00    -0.002 A 
ATOM     13  C   UNL     1       2.741  -0.836  -5.314  0.00  0.00    +0.010 A 
ATOM     14  C   UNL     1       3.369  -1.152  -4.137  0.00  0.00    +0.001 A 
ATOM     15  C   UNL     1       4.493  -1.965  -4.116  0.00  0.00    +0.001 A 
ATOM     16  C   UNL     1       4.991  -2.467  -5.302  0.00  0.00    +0.015 A 
ENDBRANCH   5   8
BRANCH   1  21
ATOM     17  C   UNL     1      -2.075   1.237  -4.038  0.00  0.00    +0.115 C 
ATOM     18  C   UNL     1      -1.139   2.169  -3.264  0.00  0.00    +0.018 C 
ATOM     19  C   UNL     1      -0.558   3.210  -4.225  0.00  0.00    +0.020 C 
ATOM     20  C   UNL     1       0.173   2.495  -5.364  0.00  0.00    +0.106 C 
ATOM     21  N   UNL     1      -0.765   1.616  -6.074  0.00  0.00    -0.315 N 
ATOM     22  C   UNL     1      -1.300   0.579  -5.182  0.00  0.00    +0.121 C 
BRANCH  17  23
ATOM     23  C   UNL     1      -2.605   0.173  -3.112  0.00  0.00    +0.312 C 
ATOM     24  O   UNL     1      -2.387  -0.993  -3.344  0.00  0.00    -0.250 OA
BRANCH  23  25
ATOM     25  O   UNL     1      -3.319   0.520  -2.030  0.00  0.00    -0.465 OA
BRANCH  25  27
ATOM     26  C   UNL     1      -4.585   0.028  -0.008  0.00  0.00    +0.048 C 
ATOM     27  C   UNL     1      -3.797  -0.558  -1.183  0.00  0.00    +0.229 C 
ENDBRANCH  25  27
ENDBRANCH  23  25
ENDBRANCH  17  23
ENDBRANCH   1  21
BRANCH   2  28
ATOM     28  C   UNL     1      -1.910   2.132  -8.623  0.00  0.00    +0.248 C 
ATOM     29  O   UNL     1      -2.383   2.705  -7.660  0.00  0.00    -0.270 OA
ATOM     30  N   UNL     1      -2.483   2.268  -9.836  0.00  0.00    -0.306 N 
ATOM     31  H   UNL     1      -2.106   1.810 -10.604  0.00  0.00    +0.149 HD
BRANCH  30  32
ATOM     32  C   UNL     1      -3.674   3.105  -9.993  0.00  0.00    +0.163 C 
BRANCH  32  33
ATOM     33  C   UNL     1      -4.113   3.089 -11.435  0.00  0.00    +0.101 A 
ATOM     34  C   UNL     1      -5.086   2.243 -12.015  0.00  0.00    +0.069 A 
ATOM     35  C   UNL     1      -5.114   2.619 -13.316  0.00  0.00    +0.230 A 
ATOM     36  O   UNL     1      -4.210   3.600 -13.446  0.00  0.00    -0.363 OA
ATOM     37  N   UNL     1      -3.666   3.847 -12.395  0.00  0.00    -0.082 NA
ENDBRANCH  32  33
ENDBRANCH  30  32
ENDBRANCH   2  28
TORSDOF 8
