REMARK  Name = ZINC09127258
REMARK  6 active torsions:
REMARK  status: ('A' for Active; 'I' for Inactive)
REMARK    1  A    between atoms: C_1  and  C_2
REMARK    2  A    between atoms: C_2  and  C_3
REMARK    3  A    between atoms: C_8  and  N_9
REMARK    4  A    between atoms: C_12  and  C_17
REMARK    5  A    between atoms: C_17  and  N_60
REMARK    6  A    between atoms: C_21  and  C_23
REMARK                            x       y       z     vdW  Elec       q    Type
REMARK                         _______ _______ _______ _____ _____    ______ ____
ROOT
ATOM      1  N   UNL     1       1.101   5.143  -5.365  0.00  0.00    -0.283 N 
ATOM      2  C   UNL     1      -0.083   5.133  -4.654  0.00  0.00    +0.224 A 
ATOM      3  N   UNL     1      -0.362   4.119  -3.838  0.00  0.00    -0.201 NA
ATOM      4  C   UNL     1      -1.495   4.108  -3.158  0.00  0.00    +0.120 A 
ATOM      5  N   UNL     1      -2.358   5.101  -3.289  0.00  0.00    -0.202 NA
ATOM      6  C   UNL     1      -2.083   6.121  -4.098  0.00  0.00    +0.217 A 
ATOM      7  N   UNL     1      -0.945   6.135  -4.784  0.00  0.00    -0.181 NA
ATOM      8  N   UNL     1      -2.982   7.160  -4.230  0.00  0.00    -0.327 N 
ATOM      9  H   UNL     1       1.767   4.456  -5.207  0.00  0.00    +0.155 HD
ATOM     10  H   UNL     1      -2.783   7.901  -4.823  0.00  0.00    +0.145 HD
ATOM     11  H   UNL     1      -3.813   7.149  -3.729  0.00  0.00    +0.145 HD
ENDROOT
BRANCH   1  17
ATOM     12  C   UNL     1       2.642   6.483  -6.653  0.00  0.00    -0.026 A 
ATOM     13  C   UNL     1       2.874   7.471  -7.590  0.00  0.00    +0.005 A 
ATOM     14  C   UNL     1       1.811   8.122  -8.188  0.00  0.00    +0.000 A 
ATOM     15  C   UNL     1       0.512   7.785  -7.852  0.00  0.00    +0.002 A 
ATOM     16  C   UNL     1       0.274   6.795  -6.920  0.00  0.00    +0.023 A 
ATOM     17  C   UNL     1       1.339   6.143  -6.313  0.00  0.00    +0.037 A 
BRANCH  12  19
ATOM     18  C   UNL     1       4.098   4.479  -6.758  0.00  0.00    +0.009 C 
ATOM     19  C   UNL     1       3.801   5.775  -6.001  0.00  0.00    +0.033 C 
ENDBRANCH  12  19
ENDBRANCH   1  17
BRANCH   4  20
ATOM     20  C   UNL     1      -1.807   2.958  -2.236  0.00  0.00    -0.000 C 
BRANCH  20  25
ATOM     21  C   UNL     1      -2.053   4.342  -0.259  0.00  0.00    -0.077 C 
ATOM     22  C   UNL     1      -2.601   3.799   1.077  0.00  0.00    -0.020 C 
ATOM     23  C   UNL     1      -1.646   2.618   1.393  0.00  0.00    -0.013 C 
ATOM     24  C   UNL     1      -1.361   2.059  -0.024  0.00  0.00    -0.037 C 
ATOM     25  N   UNL     1      -1.275   3.258  -0.881  0.00  0.00    +0.389 N 
ATOM     26  H   UNL     1      -0.294   3.547  -0.963  0.00  0.00    -0.080 HD
BRANCH  24  27
ATOM     27  C   UNL     1      -0.050   1.317  -0.041  0.00  0.00    -0.057 A 
ATOM     28  C   UNL     1       1.141   2.020  -0.037  0.00  0.00    +0.006 A 
ATOM     29  C   UNL     1       2.346   1.343  -0.059  0.00  0.00    +0.049 A 
ATOM     30  C   UNL     1       2.363  -0.044  -0.085  0.00  0.00    +0.162 A 
ATOM     31  C   UNL     1       1.166  -0.750  -0.087  0.00  0.00    +0.162 A 
ATOM     32  C   UNL     1      -0.039  -0.065  -0.066  0.00  0.00    +0.051 A 
ATOM     33  O   UNL     1       1.161  -2.111  -0.104  0.00  0.00    -0.485 OA
ATOM     34  C   UNL     1       2.377  -2.755  -0.499  0.00  0.00    +0.270 C 
ATOM     35  C   UNL     1       3.540  -2.083   0.244  0.00  0.00    +0.270 C 
ATOM     36  O   UNL     1       3.557  -0.696  -0.111  0.00  0.00    -0.485 OA
ENDBRANCH  24  27
ENDBRANCH  20  25
ENDBRANCH   4  20
TORSDOF 5
