REMARK  Name = ZINC34835612
REMARK  13 active torsions:
REMARK  status: ('A' for Active; 'I' for Inactive)
REMARK    1  A    between atoms: C_1  and  C_2
REMARK    2  A    between atoms: C_2  and  N_3
REMARK    3  A    between atoms: N_6  and  C_9
REMARK    4  A    between atoms: C_10  and  C_22
REMARK    5  A    between atoms: C_11  and  C_21
REMARK    6  A    between atoms: N_13  and  C_14
REMARK    7  A    between atoms: C_22  and  N_23
REMARK    8  A    between atoms: N_23  and  C_24
REMARK    9  A    between atoms: C_27  and  C_29
REMARK   10  A    between atoms: C_32  and  C_35
REMARK   11  A    between atoms: C_35  and  C_36
REMARK   12  A    between atoms: C_35  and  C_37
REMARK   13  A    between atoms: C_35  and  C_38
REMARK                            x       y       z     vdW  Elec       q    Type
REMARK                         _______ _______ _______ _____ _____    ______ ____
ROOT
ATOM      1  C   UNL     1       2.038 -11.868   7.706  0.00  0.00    +0.130 A 
ATOM      2  C   UNL     1       3.390 -11.897   7.542  0.00  0.00    +0.032 A 
ATOM      3  C   UNL     1       3.966 -12.183   8.783  0.00  0.00    +0.067 A 
ATOM      4  N   UNL     1       3.008 -12.322   9.663  0.00  0.00    -0.170 NA
ATOM      5  N   UNL     1       1.781 -12.124   9.017  0.00  0.00    -0.218 N 
ATOM      6  C   UNL     1       5.442 -12.311   9.060  0.00  0.00    +0.068 C 
ENDROOT
BRANCH   1  10
ATOM      7  N   UNL     1      -0.096 -11.497   4.189  0.00  0.00    +0.382 N 
ATOM      8  C   UNL     1       0.100 -12.802   4.832  0.00  0.00    -0.060 C 
ATOM      9  C   UNL     1       0.088 -12.628   6.354  0.00  0.00    +0.088 C 
ATOM     10  N   UNL     1       1.094 -11.616   6.715  0.00  0.00    -0.318 N 
ATOM     11  C   UNL     1       1.072 -10.331   5.999  0.00  0.00    +0.088 C 
ATOM     12  C   UNL     1       1.037 -10.614   4.494  0.00  0.00    -0.060 C 
ATOM     13  H   UNL     1      -0.948 -11.080   4.533  0.00  0.00    -0.082 HD
BRANCH   7  15
ATOM     14  C   UNL     1      -1.446 -12.495   2.406  0.00  0.00    -0.017 C 
ATOM     15  C   UNL     1      -0.195 -11.679   2.734  0.00  0.00    -0.082 C 
ENDBRANCH   7  15
ENDBRANCH   1  10
BRANCH   5  16
ATOM     16  C   UNL     1       0.514 -12.181   9.615  0.00  0.00    +0.070 A 
ATOM     17  C   UNL     1      -0.245 -11.026   9.747  0.00  0.00    +0.028 A 
ATOM     18  C   UNL     1      -1.494 -11.084  10.336  0.00  0.00    +0.005 A 
ATOM     19  C   UNL     1      -1.989 -12.292  10.793  0.00  0.00    +0.038 A 
ATOM     20  C   UNL     1      -1.234 -13.446  10.663  0.00  0.00    +0.125 A 
ATOM     21  C   UNL     1       0.014 -13.393  10.069  0.00  0.00    +0.066 A 
ATOM     22  F   UNL     1      -1.720 -14.624  11.111  0.00  0.00    -0.205 F 
ENDBRANCH   5  16
BRANCH   2  23
ATOM     23  C   UNL     1       4.132 -11.662   6.252  0.00  0.00    +0.148 C 
BRANCH  23  24
ATOM     24  N   UNL     1       4.451 -10.238   6.123  0.00  0.00    -0.290 N 
ATOM     25  C   UNL     1       3.609  -9.416   5.467  0.00  0.00    +0.247 C 
ATOM     26  O   UNL     1       3.066  -9.791   4.446  0.00  0.00    -0.270 OA
BRANCH  25  27
ATOM     27  C   UNL     1       3.346  -8.058   5.988  0.00  0.00    +0.037 A 
ATOM     28  C   UNL     1       3.434  -6.952   5.140  0.00  0.00    +0.013 A 
ATOM     29  C   UNL     1       3.187  -5.688   5.632  0.00  0.00    +0.005 A 
ATOM     30  C   UNL     1       2.852  -5.513   6.963  0.00  0.00    -0.042 A 
ATOM     31  C   UNL     1       2.764  -6.605   7.809  0.00  0.00    +0.005 A 
ATOM     32  C   UNL     1       3.002  -7.875   7.328  0.00  0.00    +0.013 A 
BRANCH  30  33
ATOM     33  C   UNL     1       2.584  -4.129   7.494  0.00  0.00    -0.013 C 
ATOM     34  C   UNL     1       1.411  -3.509   6.732  0.00  0.00    +0.015 C 
ATOM     35  C   UNL     1       2.239  -4.211   8.982  0.00  0.00    +0.015 C 
ATOM     36  C   UNL     1       3.830  -3.261   7.307  0.00  0.00    +0.015 C 
ENDBRANCH  30  33
ENDBRANCH  25  27
BRANCH  24  37
ATOM     37  C   UNL     1       5.684  -9.708   6.709  0.00  0.00    +0.077 C 
ATOM     38  C   UNL     1       6.674 -10.713   7.303  0.00  0.00    +0.024 C 
ATOM     39  C   UNL     1       5.849  -9.814   8.226  0.00  0.00    +0.024 C 
ENDBRANCH  24  37
ENDBRANCH  23  24
ENDBRANCH   2  23
TORSDOF 8
