REMARK  Name = ZINC13065450
REMARK  11 active torsions:
REMARK  status: ('A' for Active; 'I' for Inactive)
REMARK    1  A    between atoms: C_1  and  C_2
REMARK    2  A    between atoms: C_9  and  C_14
REMARK    3  A    between atoms: C_14  and  N_64
REMARK    4  A    between atoms: C_15  and  C_16
REMARK    5  A    between atoms: C_15  and  N_64
REMARK    6  A    between atoms: C_23  and  C_24
REMARK    7  A    between atoms: C_23  and  N_64
REMARK    8  A    between atoms: N_28  and  C_29
REMARK    9  A    between atoms: C_29  and  C_30
REMARK   10  A    between atoms: C_33  and  O_36
REMARK   11  A    between atoms: O_36  and  C_37
REMARK                            x       y       z     vdW  Elec       q    Type
REMARK                         _______ _______ _______ _____ _____    ______ ____
ROOT
ATOM      1  N   UNL     1      -0.907   1.575  -1.012  0.00  0.00    +0.390 N 
ATOM      2  H   UNL     1      -1.919   1.474  -0.870  0.00  0.00    -0.080 HD
ENDROOT
BRANCH   1   3
ATOM      3  C   UNL     1      -0.493   0.717  -2.143  0.00  0.00    -0.036 C 
BRANCH   3  12
ATOM      4  C   UNL     1      -6.214  -3.781  -3.771  0.00  0.00    +0.044 C 
ATOM      5  C   UNL     1      -4.902  -3.523  -3.077  0.00  0.00    -0.050 A 
ATOM      6  C   UNL     1      -4.322  -4.522  -2.307  0.00  0.00    +0.005 A 
ATOM      7  C   UNL     1      -3.122  -4.308  -1.665  0.00  0.00    +0.026 A 
ATOM      8  C   UNL     1      -2.484  -3.078  -1.786  0.00  0.00    +0.049 A 
ATOM      9  C   UNL     1      -3.075  -2.067  -2.567  0.00  0.00    -0.001 A 
ATOM     10  C   UNL     1      -4.293  -2.307  -3.211  0.00  0.00    +0.013 A 
ATOM     11  C   UNL     1      -2.399  -0.774  -2.683  0.00  0.00    +0.017 A 
ATOM     12  C   UNL     1      -1.218  -0.600  -2.040  0.00  0.00    +0.001 A 
ATOM     13  C   UNL     1      -0.668  -1.646  -1.269  0.00  0.00    +0.251 A 
ATOM     14  O   UNL     1       0.393  -1.468  -0.695  0.00  0.00    -0.268 OA
ATOM     15  N   UNL     1      -1.284  -2.836  -1.152  0.00  0.00    -0.322 N 
ATOM     16  H   UNL     1      -0.878  -3.534  -0.615  0.00  0.00    +0.169 HD
ENDBRANCH   3  12
ENDBRANCH   1   3
BRANCH   1  17
ATOM     17  C   UNL     1      -0.603   2.990  -1.314  0.00  0.00    -0.040 C 
BRANCH  17  18
ATOM     18  C   UNL     1      -1.520   3.459  -2.414  0.00  0.00    -0.046 A 
ATOM     19  C   UNL     1      -1.026   3.649  -3.692  0.00  0.00    +0.003 A 
ATOM     20  C   UNL     1      -1.868   4.075  -4.702  0.00  0.00    +0.000 A 
ATOM     21  C   UNL     1      -3.202   4.322  -4.433  0.00  0.00    +0.001 A 
ATOM     22  C   UNL     1      -3.695   4.138  -3.155  0.00  0.00    +0.020 A 
ATOM     23  C   UNL     1      -2.854   3.706  -2.145  0.00  0.00    +0.042 A 
ATOM     24 CL   UNL     1      -3.473   3.475  -0.539  0.00  0.00    -0.083 Cl
ENDBRANCH  17  18
ENDBRANCH   1  17
BRANCH   1  25
ATOM     25  C   UNL     1      -0.205   1.159   0.220  0.00  0.00    +0.001 C 
BRANCH  25  26
ATOM     26  C   UNL     1      -0.802   1.896   1.391  0.00  0.00    +0.135 A 
ATOM     27  N   UNL     1      -0.403   3.045   1.879  0.00  0.00    -0.115 NA
ATOM     28  N   UNL     1      -1.166   3.342   2.874  0.00  0.00    -0.023 NA
ATOM     29  N   UNL     1      -2.037   2.408   3.038  0.00  0.00    -0.044 NA
ATOM     30  N   UNL     1      -1.845   1.498   2.143  0.00  0.00    -0.227 N 
BRANCH  30  31
ATOM     31  C   UNL     1      -2.618   0.265   1.977  0.00  0.00    +0.182 C 
BRANCH  31  32
ATOM     32  C   UNL     1      -1.993  -0.834   2.797  0.00  0.00    -0.026 A 
ATOM     33  C   UNL     1      -1.023  -1.646   2.238  0.00  0.00    +0.009 A 
ATOM     34  C   UNL     1      -0.444  -2.650   2.990  0.00  0.00    +0.046 A 
ATOM     35  C   UNL     1      -0.845  -2.852   4.303  0.00  0.00    +0.120 A 
ATOM     36  C   UNL     1      -1.822  -2.039   4.859  0.00  0.00    +0.046 A 
ATOM     37  C   UNL     1      -2.394  -1.033   4.105  0.00  0.00    +0.009 A 
BRANCH  35  38
ATOM     38  O   UNL     1      -0.281  -3.842   5.043  0.00  0.00    -0.495 OA
ATOM     39  C   UNL     1       0.719  -4.639   4.404  0.00  0.00    +0.277 C 
ENDBRANCH  35  38
ENDBRANCH  31  32
ENDBRANCH  30  31
ENDBRANCH  25  26
ENDBRANCH   1  25
TORSDOF 9
