REMARK  Name = ZINC37397470
REMARK  9 active torsions:
REMARK  status: ('A' for Active; 'I' for Inactive)
REMARK    1  A    between atoms: C_1  and  C_2
REMARK    2  A    between atoms: C_5  and  N_8
REMARK    3  A    between atoms: C_9  and  C_32
REMARK    4  A    between atoms: C_12  and  S_13
REMARK    5  A    between atoms: S_13  and  C_14
REMARK    6  A    between atoms: C_14  and  C_15
REMARK    7  A    between atoms: C_18  and  C_21
REMARK    8  A    between atoms: N_23  and  C_24
REMARK    9  A    between atoms: C_24  and  C_25
REMARK                            x       y       z     vdW  Elec       q    Type
REMARK                         _______ _______ _______ _____ _____    ______ ____
ROOT
ATOM      1  C   UNL     1       3.426  -6.014  -1.612  0.00  0.00    +0.112 C 
ENDROOT
BRANCH   1   2
ATOM      2  C   UNL     1       4.760  -5.707  -2.243  0.00  0.00    -0.037 A 
ATOM      3  C   UNL     1       4.856  -5.562  -3.616  0.00  0.00    +0.005 A 
ATOM      4  C   UNL     1       6.074  -5.281  -4.200  0.00  0.00    +0.013 A 
ATOM      5  C   UNL     1       7.211  -5.143  -3.402  0.00  0.00    +0.037 A 
ATOM      6  C   UNL     1       7.108  -5.291  -2.018  0.00  0.00    +0.013 A 
ATOM      7  C   UNL     1       5.883  -5.566  -1.447  0.00  0.00    +0.005 A 
BRANCH   5   8
ATOM      8  C   UNL     1       8.520  -4.842  -4.021  0.00  0.00    +0.244 C 
ATOM      9  O   UNL     1       8.607  -4.715  -5.227  0.00  0.00    -0.270 OA
ATOM     10  N   UNL     1       9.616  -4.710  -3.249  0.00  0.00    -0.307 N 
ATOM     11  H   UNL     1       9.546  -4.812  -2.287  0.00  0.00    +0.149 HD
BRANCH  10  12
ATOM     12  C   UNL     1      10.913  -4.412  -3.862  0.00  0.00    +0.139 C 
BRANCH  12  13
ATOM     13  C   UNL     1      11.966  -4.315  -2.788  0.00  0.00    -0.030 A 
ATOM     14  C   UNL     1      12.226  -3.099  -2.184  0.00  0.00    +0.008 A 
ATOM     15  C   UNL     1      13.192  -3.010  -1.199  0.00  0.00    +0.038 A 
ATOM     16  C   UNL     1      13.898  -4.138  -0.818  0.00  0.00    +0.123 A 
ATOM     17  C   UNL     1      13.636  -5.355  -1.424  0.00  0.00    +0.038 A 
ATOM     18  C   UNL     1      12.667  -5.443  -2.405  0.00  0.00    +0.008 A 
ATOM     19  F   UNL     1      14.842  -4.051   0.145  0.00  0.00    -0.205 F 
ENDBRANCH  12  13
ENDBRANCH  10  12
ENDBRANCH   5   8
ENDBRANCH   1   2
BRANCH   1  20
ATOM     20  S   UNL     1       2.576  -4.463  -1.211  0.00  0.00    -0.081 S 
BRANCH  20  25
ATOM     21  N   UNL     1       0.058  -4.172  -0.021  0.00  0.00    -0.268 N 
ATOM     22  C   UNL     1      -0.926  -5.022   0.439  0.00  0.00    +0.205 A 
ATOM     23  N   UNL     1      -0.498  -6.250   0.239  0.00  0.00    -0.125 NA
ATOM     24  N   UNL     1       0.666  -6.226  -0.304  0.00  0.00    -0.122 NA
ATOM     25  C   UNL     1       1.055  -4.984  -0.491  0.00  0.00    +0.197 A 
BRANCH  21  30
ATOM     26  C   UNL     1      -0.018   1.503   0.010  0.00  0.00    +0.044 C 
ATOM     27  C   UNL     1       0.002  -0.004   0.002  0.00  0.00    -0.050 A 
ATOM     28  C   UNL     1       0.006  -0.688  -1.200  0.00  0.00    +0.005 A 
ATOM     29  C   UNL     1       0.024  -2.068  -1.211  0.00  0.00    +0.026 A 
ATOM     30  C   UNL     1       0.040  -2.771  -0.013  0.00  0.00    +0.051 A 
ATOM     31  C   UNL     1       0.036  -2.082   1.192  0.00  0.00    +0.026 A 
ATOM     32  C   UNL     1       0.023  -0.700   1.196  0.00  0.00    +0.005 A 
ENDBRANCH  21  30
BRANCH  22  33
ATOM     33  C   UNL     1      -2.211  -4.630   1.038  0.00  0.00    +0.172 A 
ATOM     34  C   UNL     1      -3.286  -5.446   1.231  0.00  0.00    +0.053 A 
ATOM     35  C   UNL     1      -4.289  -4.659   1.830  0.00  0.00    +0.042 A 
ATOM     36  C   UNL     1      -3.785  -3.417   1.973  0.00  0.00    +0.196 A 
ATOM     37  O   UNL     1      -2.528  -3.404   1.499  0.00  0.00    -0.460 OA
ENDBRANCH  22  33
ENDBRANCH  20  25
ENDBRANCH   1  20
TORSDOF 8
