REMARK  Name = ZINC59974152
REMARK  5 active torsions:
REMARK  status: ('A' for Active; 'I' for Inactive)
REMARK    1  A    between atoms: C_7  and  C_11
REMARK    2  A    between atoms: C_11  and  C_12
REMARK    3  A    between atoms: C_12  and  C_13
REMARK    4  A    between atoms: N_15  and  C_16
REMARK    5  A    between atoms: C_19  and  N_22
REMARK                            x       y       z     vdW  Elec       q    Type
REMARK                         _______ _______ _______ _____ _____    ______ ____
ROOT
ATOM      1  C   UNL     1      -0.700  -4.770  -1.452  0.00  0.00    +0.218 C 
ATOM      2  O   UNL     1      -0.988  -5.313  -0.406  0.00  0.00    -0.275 OA
ATOM      3  N   UNL     1      -1.212  -5.228  -2.612  0.00  0.00    -0.285 N 
ATOM      4  H   UNL     1      -1.036  -4.754  -3.440  0.00  0.00    +0.155 HD
ENDROOT
BRANCH   3   5
ATOM      5  C   UNL     1      -1.999  -6.387  -2.622  0.00  0.00    +0.033 A 
ATOM      6  C   UNL     1      -1.930  -7.264  -3.696  0.00  0.00    +0.025 A 
ATOM      7  C   UNL     1      -2.705  -8.406  -3.706  0.00  0.00    +0.024 A 
ATOM      8  C   UNL     1      -3.553  -8.680  -2.640  0.00  0.00    +0.025 A 
ATOM      9  C   UNL     1      -3.621  -7.803  -1.565  0.00  0.00    +0.024 A 
ATOM     10  C   UNL     1      -2.842  -6.663  -1.553  0.00  0.00    +0.025 A 
BRANCH   8  11
ATOM     11  N   UNL     1      -4.338  -9.837  -2.649  0.00  0.00    -0.358 N 
ATOM     12  H   UNL     1      -4.291 -10.449  -3.400  0.00  0.00    +0.142 HD
ATOM     13  H   UNL     1      -4.930 -10.028  -1.905  0.00  0.00    +0.142 HD
ENDBRANCH   8  11
ENDBRANCH   3   5
BRANCH   1  14
ATOM     14  C   UNL     1       0.231  -3.585  -1.455  0.00  0.00    +0.101 C 
BRANCH  14  15
ATOM     15  C   UNL     1       0.664  -3.273  -0.021  0.00  0.00    +0.046 C 
BRANCH  15  22
ATOM     16  C   UNL     1      -0.045   1.360   0.028  0.00  0.00    +0.001 A 
ATOM     17  C   UNL     1       1.137   2.088   0.018  0.00  0.00    +0.002 A 
ATOM     18  C   UNL     1       2.357   1.448  -0.004  0.00  0.00    +0.026 A 
ATOM     19  C   UNL     1       2.407   0.058  -0.016  0.00  0.00    +0.047 A 
ATOM     20  C   UNL     1       1.207  -0.676  -0.006  0.00  0.00    +0.003 A 
ATOM     21  C   UNL     1      -0.018  -0.006   0.015  0.00  0.00    +0.010 A 
ATOM     22  C   UNL     1       1.595  -2.088  -0.024  0.00  0.00    -0.022 A 
ATOM     23  C   UNL     1       2.937  -2.126  -0.042  0.00  0.00    +0.087 A 
ATOM     24  N   UNL     1       3.439  -0.854  -0.038  0.00  0.00    -0.360 N 
ATOM     25  H   UNL     1       4.383  -0.627  -0.049  0.00  0.00    +0.165 HD
ENDBRANCH  15  22
ENDBRANCH  14  15
ENDBRANCH   1  14
TORSDOF 5
