REMARK  Name = ZINC12600733
REMARK  11 active torsions:
REMARK  status: ('A' for Active; 'I' for Inactive)
REMARK    1  A    between atoms: C_1  and  O_2
REMARK    2  A    between atoms: O_2  and  C_3
REMARK    3  A    between atoms: C_3  and  C_5
REMARK    4  A    between atoms: C_5  and  C_7
REMARK    5  A    between atoms: C_5  and  N_14
REMARK    6  A    between atoms: C_7  and  C_8
REMARK    7  A    between atoms: C_15  and  C_17
REMARK    8  A    between atoms: C_17  and  O_18
REMARK    9  A    between atoms: O_18  and  C_19
REMARK   10  A    between atoms: C_19  and  C_21
REMARK   11  A    between atoms: C_35  and  C_36
REMARK                            x       y       z     vdW  Elec       q    Type
REMARK                         _______ _______ _______ _____ _____    ______ ____
ROOT
ATOM      1  C   UNL     1       6.209   0.992  -2.916  0.00  0.00    +0.341 C 
ATOM      2  O   UNL     1       5.510   0.943  -3.908  0.00  0.00    -0.245 OA
ENDROOT
BRANCH   1   3
ATOM      3  C   UNL     1       7.676   0.865  -3.039  0.00  0.00    +0.073 A 
ATOM      4  C   UNL     1       8.332  -0.442  -2.966  0.00  0.00    +0.015 A 
ATOM      5  C   UNL     1       7.599  -1.619  -2.787  0.00  0.00    +0.011 A 
ATOM      6  C   UNL     1       8.250  -2.817  -2.732  0.00  0.00    +0.001 A 
ATOM      7  C   UNL     1       9.635  -2.882  -2.858  0.00  0.00    +0.002 A 
ATOM      8  C   UNL     1      10.379  -1.756  -3.037  0.00  0.00    +0.028 A 
ATOM      9  C   UNL     1       9.742  -0.502  -3.098  0.00  0.00    +0.072 A 
ATOM     10  N   UNL     1      10.443   0.618  -3.270  0.00  0.00    -0.247 NA
ATOM     11  C   UNL     1       9.875   1.813  -3.330  0.00  0.00    +0.072 A 
ATOM     12  C   UNL     1       8.482   1.981  -3.223  0.00  0.00    -0.007 A 
ATOM     13  C   UNL     1       7.836   3.336  -3.304  0.00  0.00    +0.038 C 
ATOM     14  C   UNL     1       8.828   4.443  -2.957  0.00  0.00    +0.009 C 
ATOM     15  C   UNL     1      10.066   4.312  -3.853  0.00  0.00    +0.038 C 
ATOM     16  C   UNL     1      10.737   2.999  -3.513  0.00  0.00    -0.018 C 
ATOM     17  C   UNL     1      12.078   2.913  -3.381  0.00  0.00    +0.052 C 
BRANCH  17  18
ATOM     18  C   UNL     1      12.921   4.057  -3.728  0.00  0.00    +0.128 A 
ATOM     19  C   UNL     1      14.270   4.151  -3.528  0.00  0.00    +0.049 A 
ATOM     20  C   UNL     1      14.664   5.411  -4.010  0.00  0.00    +0.042 A 
ATOM     21  C   UNL     1      13.553   6.025  -4.469  0.00  0.00    +0.195 A 
ATOM     22  O   UNL     1      12.503   5.206  -4.297  0.00  0.00    -0.464 OA
ENDBRANCH  17  18
ENDBRANCH   1   3
BRANCH   1  23
ATOM     23  O   UNL     1       5.647   1.164  -1.704  0.00  0.00    -0.452 OA
BRANCH  23  24
ATOM     24  C   UNL     1       4.200   1.282  -1.658  0.00  0.00    +0.328 C 
BRANCH  24  26
ATOM     25  N   UNL     1       2.446   1.599   0.056  0.00  0.00    -0.299 N 
ATOM     26  C   UNL     1       3.756   1.466  -0.230  0.00  0.00    +0.251 C 
ATOM     27  O   UNL     1       4.578   1.496   0.661  0.00  0.00    -0.272 OA
ATOM     28  H   UNL     1       1.789   1.575  -0.657  0.00  0.00    +0.150 HD
BRANCH  25  29
ATOM     29  C   UNL     1       2.014   1.778   1.444  0.00  0.00    +0.186 C 
BRANCH  29  30
ATOM     30  C   UNL     1       2.093   3.238   1.810  0.00  0.00    +0.328 C 
ATOM     31  O   UNL     1       2.472   4.046   0.995  0.00  0.00    -0.249 OA
BRANCH  30  33
ATOM     32  C   UNL     1       1.845   5.062   3.324  0.00  0.00    +0.280 C 
ATOM     33  O   UNL     1       1.743   3.642   3.042  0.00  0.00    -0.467 OA
ENDBRANCH  30  33
ENDBRANCH  29  30
BRANCH  29  34
ATOM     34  C   UNL     1       0.571   1.292   1.597  0.00  0.00    +0.069 C 
BRANCH  34  35
ATOM     35  C   UNL     1       0.513  -0.193   1.350  0.00  0.00    -0.045 A 
ATOM     36  C   UNL     1       0.290  -0.674   0.073  0.00  0.00    +0.004 A 
ATOM     37  C   UNL     1       0.242  -2.037  -0.154  0.00  0.00    +0.000 A 
ATOM     38  C   UNL     1       0.405  -2.919   0.898  0.00  0.00    +0.000 A 
ATOM     39  C   UNL     1       0.623  -2.438   2.176  0.00  0.00    +0.000 A 
ATOM     40  C   UNL     1       0.677  -1.075   2.402  0.00  0.00    +0.004 A 
ENDBRANCH  34  35
ENDBRANCH  29  34
ENDBRANCH  25  29
ENDBRANCH  24  26
ENDBRANCH  23  24
ENDBRANCH   1  23
TORSDOF 10
