REMARK  Name = ZINC33369990
REMARK  10 active torsions:
REMARK  status: ('A' for Active; 'I' for Inactive)
REMARK    1  A    between atoms: C_1  and  C_2
REMARK    2  A    between atoms: C_2  and  C_3
REMARK    3  A    between atoms: C_3  and  C_4
REMARK    4  A    between atoms: C_4  and  C_5
REMARK    5  A    between atoms: C_5  and  C_7
REMARK    6  A    between atoms: C_5  and  C_9
REMARK    7  A    between atoms: C_7  and  C_8
REMARK    8  A    between atoms: C_18  and  C_22
REMARK    9  A    between atoms: N_24  and  C_25
REMARK   10  A    between atoms: C_25  and  C_26
REMARK                            x       y       z     vdW  Elec       q    Type
REMARK                         _______ _______ _______ _____ _____    ______ ____
ROOT
ATOM      1  C   UNL     1      -6.519  -1.417   0.001  0.00  0.00    +0.219 C 
ATOM      2  O   UNL     1      -6.724  -2.159  -0.937  0.00  0.00    -0.275 OA
ATOM      3  N   UNL     1      -5.370  -0.715   0.066  0.00  0.00    -0.301 N 
ATOM      4  C   UNL     1      -4.309  -0.924  -0.929  0.00  0.00    +0.107 C 
ATOM      5  C   UNL     1      -3.951   0.428  -1.556  0.00  0.00    +0.017 C 
ATOM      6  C   UNL     1      -3.619   1.426  -0.455  0.00  0.00    -0.016 C 
ATOM      7  C   UNL     1      -4.793   1.617   0.495  0.00  0.00    +0.017 C 
ATOM      8  C   UNL     1      -5.157   0.271   1.134  0.00  0.00    +0.107 C 
ATOM      9  N   UNL     1      -2.405   1.027   0.275  0.00  0.00    +0.397 N 
ATOM     10  C   UNL     1      -1.327   2.021   0.307  0.00  0.00    +0.028 C 
ATOM     11  C   UNL     1      -1.333   2.886  -0.988  0.00  0.00    +0.061 C 
ATOM     12  S   UNL     1      -3.164   3.041  -1.204  0.00  0.00    -0.174 S 
ATOM     13  H   UNL     1      -2.660   0.815   1.324  0.00  0.00    -0.083 HD
ATOM     14  H   UNL     1      -1.978   0.125  -0.188  0.00  0.00    -0.083 HD
ENDROOT
BRANCH  10  15
ATOM     15  C   UNL     1      -0.002   1.312   0.423  0.00  0.00    +0.200 C 
ATOM     16  O   UNL     1       0.035   0.100   0.473  0.00  0.00    -0.278 OA
ATOM     17  N   UNL     1       1.142   2.023   0.465  0.00  0.00    -0.313 N 
ATOM     18  H   UNL     1       1.108   3.122   0.419  0.00  0.00    +0.149 HD
BRANCH  17  19
ATOM     19  C   UNL     1       2.430   1.334   0.571  0.00  0.00    +0.139 C 
BRANCH  19  20
ATOM     20  C   UNL     1       3.543   2.350   0.599  0.00  0.00    -0.027 A 
ATOM     21  C   UNL     1       3.979   2.862   1.806  0.00  0.00    +0.009 A 
ATOM     22  C   UNL     1       5.000   3.794   1.837  0.00  0.00    +0.050 A 
ATOM     23  C   UNL     1       5.588   4.217   0.656  0.00  0.00    +0.166 A 
ATOM     24  C   UNL     1       5.149   3.701  -0.560  0.00  0.00    +0.167 A 
ATOM     25  C   UNL     1       4.129   2.763  -0.583  0.00  0.00    +0.054 A 
ATOM     26  O   UNL     1       5.879   4.269  -1.564  0.00  0.00    -0.453 OA
ATOM     27  C   UNL     1       6.487   5.437  -0.983  0.00  0.00    +0.466 C 
ATOM     28  O   UNL     1       6.593   5.109   0.414  0.00  0.00    -0.453 OA
ENDBRANCH  19  20
ENDBRANCH  17  19
ENDBRANCH  10  15
BRANCH   1  29
ATOM     29  C   UNL     1      -7.549  -1.280   1.092  0.00  0.00    +0.075 C 
BRANCH  29  30
ATOM     30  C   UNL     1      -8.248  -2.624   1.306  0.00  0.00    +0.009 C 
ATOM     31  C   UNL     1      -7.241  -3.643   1.840  0.00  0.00    +0.004 C 
ENDBRANCH  29  30
BRANCH  29  32
ATOM     32  C   UNL     1      -8.582  -0.225   0.689  0.00  0.00    +0.013 C 
BRANCH  32  33
ATOM     33  C   UNL     1      -9.555   0.004   1.847  0.00  0.00    +0.000 C 
BRANCH  33  35
ATOM     34  C   UNL     1     -11.562   1.287   2.602  0.00  0.00    +0.004 C 
ATOM     35  C   UNL     1     -10.588   1.058   1.444  0.00  0.00    -0.003 C 
ENDBRANCH  33  35
ENDBRANCH  32  33
ENDBRANCH  29  32
ENDBRANCH   1  29
TORSDOF 8
