REMARK  Name = ZINC15675663
REMARK  12 active torsions:
REMARK  status: ('A' for Active; 'I' for Inactive)
REMARK    1  A    between atoms: C_1  and  C_2
REMARK    2  A    between atoms: C_2  and  C_3
REMARK    3  A    between atoms: C_3  and  C_4
REMARK    4  A    between atoms: C_4  and  N_76
REMARK    5  A    between atoms: C_5  and  C_6
REMARK    6  A    between atoms: C_5  and  N_76
REMARK    7  A    between atoms: C_7  and  C_8
REMARK    8  A    between atoms: C_7  and  N_76
REMARK    9  A    between atoms: C_8  and  N_9
REMARK   10  A    between atoms: C_18  and  C_19
REMARK   11  A    between atoms: C_18  and  C_20
REMARK   12  A    between atoms: N_22  and  C_23
REMARK                            x       y       z     vdW  Elec       q    Type
REMARK                         _______ _______ _______ _____ _____    ______ ____
ROOT
ATOM      1  N   UNL     1      -3.312   2.589   0.621  0.00  0.00    -0.282 N 
ATOM      2  C   UNL     1      -2.572   1.566   1.109  0.00  0.00    +0.264 C 
ATOM      3  O   UNL     1      -3.084   0.530   1.491  0.00  0.00    -0.268 OA
ATOM      4  C   UNL     1      -1.119   1.770   1.145  0.00  0.00    +0.109 A 
ATOM      5  C   UNL     1      -0.104   0.897   1.402  0.00  0.00    +0.079 A 
ATOM      6  C   UNL     1       1.099   1.615   1.322  0.00  0.00    +0.153 A 
ATOM      7  C   UNL     1       0.782   2.939   1.022  0.00  0.00    +0.088 A 
ATOM      8  N   UNL     1      -0.574   3.034   0.927  0.00  0.00    -0.331 N 
ATOM      9  C   UNL     1      -1.420   4.199   0.654  0.00  0.00    +0.157 C 
ATOM     10  C   UNL     1      -2.700   3.736  -0.041  0.00  0.00    +0.128 C 
ATOM     11  C   UNL     1      -2.369   3.354  -1.486  0.00  0.00    +0.043 C 
ATOM     12  C   UNL     1       2.015   3.631   0.945  0.00  0.00    +0.067 A 
ATOM     13  C   UNL     1       2.989   2.738   1.193  0.00  0.00    +0.198 A 
ATOM     14  O   UNL     1       2.443   1.532   1.421  0.00  0.00    -0.461 OA
ENDROOT
BRANCH  10  15
ATOM     15  C   UNL     1      -3.687   4.874  -0.055  0.00  0.00    +0.238 C 
ATOM     16  O   UNL     1      -3.897   5.483  -1.083  0.00  0.00    -0.273 OA
ATOM     17  N   UNL     1      -4.337   5.217   1.076  0.00  0.00    -0.311 N 
ATOM     18  H   UNL     1      -4.114   4.782   1.914  0.00  0.00    +0.149 HD
BRANCH  17  19
ATOM     19  C   UNL     1      -5.379   6.245   1.039  0.00  0.00    +0.073 C 
ATOM     20  C   UNL     1      -4.737   7.628   1.163  0.00  0.00    +0.022 C 
ATOM     21  C   UNL     1      -5.742   8.698   0.733  0.00  0.00    +0.002 C 
ATOM     22  C   UNL     1      -6.450   8.249  -0.547  0.00  0.00    +0.000 C 
ATOM     23  C   UNL     1      -7.927   7.983  -0.246  0.00  0.00    +0.000 C 
ATOM     24  C   UNL     1      -8.064   6.649   0.490  0.00  0.00    +0.000 C 
ATOM     25  C   UNL     1      -7.633   6.824   1.948  0.00  0.00    +0.002 C 
ATOM     26  C   UNL     1      -6.351   6.028   2.200  0.00  0.00    +0.022 C 
ENDBRANCH  17  19
ENDBRANCH  10  15
BRANCH   1  27
ATOM     27  C   UNL     1      -4.769   2.544   0.762  0.00  0.00    +0.091 C 
BRANCH  27  28
ATOM     28  C   UNL     1      -5.368   1.727  -0.385  0.00  0.00    -0.060 C 
BRANCH  28  29
ATOM     29  N   UNL     1      -6.839   1.709  -0.240  0.00  0.00    +0.381 N 
ATOM     30  H   UNL     1      -7.176   2.673  -0.134  0.00  0.00    -0.082 HD
BRANCH  29  31
ATOM     31  C   UNL     1      -7.218   0.933   0.959  0.00  0.00    -0.082 C 
ATOM     32  C   UNL     1      -8.683   1.226   1.291  0.00  0.00    -0.017 C 
ENDBRANCH  29  31
BRANCH  29  33
ATOM     33  C   UNL     1      -7.457   1.114  -1.444  0.00  0.00    -0.079 C 
BRANCH  33  34
ATOM     34  C   UNL     1      -7.294   2.087  -2.613  0.00  0.00    -0.019 C 
BRANCH  34  36
ATOM     35  C   UNL     1      -7.876   2.518  -5.004  0.00  0.00    +0.004 C 
ATOM     36  C   UNL     1      -8.040   1.546  -3.834  0.00  0.00    -0.005 C 
ENDBRANCH  34  36
ENDBRANCH  33  34
ENDBRANCH  29  33
ENDBRANCH  28  29
ENDBRANCH  27  28
ENDBRANCH   1  27
TORSDOF 9
