REMARK  Name = ZINC12549529
REMARK  4 active torsions:
REMARK  status: ('A' for Active; 'I' for Inactive)
REMARK    1  A    between atoms: C_4  and  C_8
REMARK    2  A    between atoms: C_8  and  O_9
REMARK    3  A    between atoms: O_9  and  C_10
REMARK    4  A    between atoms: C_13  and  C_16
REMARK                            x       y       z     vdW  Elec       q    Type
REMARK                         _______ _______ _______ _____ _____    ______ ____
ROOT
ATOM      1  C   UNL     1       9.021  -3.680   1.979  0.00  0.00    +0.209 C 
ATOM      2  N   UNL     1       8.921  -4.621   3.110  0.00  0.00    -0.294 N 
ATOM      3  C   UNL     1       9.094  -4.169   4.391  0.00  0.00    +0.160 C 
ATOM      4  N   UNL     1       9.878  -3.139   4.660  0.00  0.00    -0.302 N 
ATOM      5  C   UNL     1      10.466  -2.492   3.625  0.00  0.00    +0.213 A 
ATOM      6  N   UNL     1      10.087  -2.729   2.315  0.00  0.00    -0.286 N 
ATOM      7  C   UNL     1      10.865  -1.940   1.501  0.00  0.00    +0.076 A 
ATOM      8  C   UNL     1      10.956  -1.758   0.127  0.00  0.00    +0.077 A 
ATOM      9  C   UNL     1      11.869  -0.859  -0.389  0.00  0.00    +0.164 A 
ATOM     10  C   UNL     1      12.702  -0.134   0.459  0.00  0.00    +0.164 A 
ATOM     11  C   UNL     1      12.626  -0.303   1.825  0.00  0.00    +0.079 A 
ATOM     12  C   UNL     1      11.705  -1.209   2.361  0.00  0.00    +0.095 A 
ATOM     13  N   UNL     1      11.406  -1.583   3.642  0.00  0.00    -0.212 NA
ATOM     14  O   UNL     1      13.597   0.751  -0.072  0.00  0.00    -0.488 OA
ATOM     15  C   UNL     1      14.676   0.180  -0.815  0.00  0.00    +0.232 C 
ATOM     16  C   UNL     1      14.259  -0.086  -2.253  0.00  0.00    +0.082 C 
ATOM     17  C   UNL     1      13.164  -1.136  -2.354  0.00  0.00    +0.232 C 
ATOM     18  O   UNL     1      11.960  -0.675  -1.740  0.00  0.00    -0.488 OA
ATOM     19  N   UNL     1       8.440  -4.797   5.417  0.00  0.00    -0.332 N 
ATOM     20  H   UNL     1       8.733  -5.559   2.947  0.00  0.00    +0.151 HD
ATOM     21  H   UNL     1       7.861  -5.553   5.232  0.00  0.00    +0.145 HD
ATOM     22  H   UNL     1       8.554  -4.485   6.328  0.00  0.00    +0.145 HD
ATOM     23  H   UNL     1      10.029  -2.854   5.574  0.00  0.00    +0.171 HD
ENDROOT
BRANCH   1  27
ATOM     24  C   UNL     1       5.319  -1.608   1.467  0.00  0.00    +0.121 A 
ATOM     25  C   UNL     1       6.049  -2.011   0.358  0.00  0.00    +0.046 A 
ATOM     26  C   UNL     1       7.246  -2.680   0.527  0.00  0.00    +0.011 A 
ATOM     27  C   UNL     1       7.716  -2.949   1.799  0.00  0.00    -0.007 A 
ATOM     28  C   UNL     1       6.990  -2.550   2.905  0.00  0.00    +0.011 A 
ATOM     29  C   UNL     1       5.795  -1.875   2.743  0.00  0.00    +0.046 A 
BRANCH  24  30
ATOM     30  O   UNL     1       4.142  -0.949   1.304  0.00  0.00    -0.487 OA
BRANCH  30  31
ATOM     31  C   UNL     1       3.713  -0.710  -0.038  0.00  0.00    +0.268 C 
BRANCH  31  35
ATOM     32  C   UNL     1      -0.017   1.378   0.010  0.00  0.00    +0.004 A 
ATOM     33  C   UNL     1       1.170   2.086   0.002  0.00  0.00    +0.039 A 
ATOM     34  C   UNL     1       2.379   1.411  -0.013  0.00  0.00    +0.131 A 
ATOM     35  C   UNL     1       2.398   0.026  -0.021  0.00  0.00    +0.043 A 
ATOM     36  C   UNL     1       1.209  -0.680  -0.013  0.00  0.00    +0.050 A 
ATOM     37  C   UNL     1       0.002  -0.004   0.002  0.00  0.00    +0.020 A 
ATOM     38 CL   UNL     1       1.232  -2.416  -0.022  0.00  0.00    -0.083 Cl
ATOM     39  F   UNL     1       3.539   2.103  -0.021  0.00  0.00    -0.205 F 
ENDBRANCH  31  35
ENDBRANCH  30  31
ENDBRANCH  24  30
ENDBRANCH   1  27
TORSDOF 4
