REMARK  Name = ZINC41988823
REMARK  8 active torsions:
REMARK  status: ('A' for Active; 'I' for Inactive)
REMARK    1  A    between atoms: C_1  and  S_2
REMARK    2  A    between atoms: S_2  and  C_3
REMARK    3  A    between atoms: C_3  and  C_4
REMARK    4  A    between atoms: C_4  and  C_5
REMARK    5  A    between atoms: C_5  and  C_7
REMARK    6  A    between atoms: C_5  and  N_17
REMARK    7  A    between atoms: N_9  and  C_10
REMARK    8  A    between atoms: C_10  and  C_11
REMARK                            x       y       z     vdW  Elec       q    Type
REMARK                         _______ _______ _______ _____ _____    ______ ____
ROOT
ATOM      1  C   UNL     1      -3.356  -2.382   0.021  0.00  0.00    +0.161 C 
ENDROOT
BRANCH   1   2
ATOM      2  N   UNL     1      -3.966  -1.949   1.281  0.00  0.00    -0.288 N 
ATOM      3  C   UNL     1      -3.495  -2.419   2.454  0.00  0.00    +0.298 C 
ATOM      4  O   UNL     1      -2.565  -3.202   2.466  0.00  0.00    -0.253 OA
ATOM      5  N   UNL     1      -4.056  -2.020   3.613  0.00  0.00    -0.313 N 
ATOM      6  H   UNL     1      -4.707  -1.324   1.272  0.00  0.00    +0.151 HD
ATOM      7  H   UNL     1      -4.797  -1.395   3.603  0.00  0.00    +0.146 HD
ATOM      8  H   UNL     1      -3.717  -2.359   4.457  0.00  0.00    +0.146 HD
ENDBRANCH   1   2
BRANCH   1   9
ATOM      9  C   UNL     1      -3.482  -3.878  -0.109  0.00  0.00    +0.234 C 
ATOM     10  O   UNL     1      -3.682  -4.558   0.875  0.00  0.00    -0.274 OA
ATOM     11  N   UNL     1      -3.373  -4.460  -1.320  0.00  0.00    -0.310 N 
ATOM     12  H   UNL     1      -3.214  -3.916  -2.107  0.00  0.00    +0.149 HD
BRANCH  11  13
ATOM     13  C   UNL     1      -3.495  -5.915  -1.447  0.00  0.00    +0.140 C 
BRANCH  13  14
ATOM     14  C   UNL     1      -3.336  -6.308  -2.893  0.00  0.00    -0.022 A 
ATOM     15  C   UNL     1      -4.436  -6.373  -3.728  0.00  0.00    +0.028 A 
ATOM     16  C   UNL     1      -4.258  -6.730  -5.024  0.00  0.00    +0.055 A 
ATOM     17  S   UNL     1      -2.493  -6.988  -5.096  0.00  0.00    -0.090 S 
ATOM     18  C   UNL     1      -2.111  -6.597  -3.396  0.00  0.00    +0.051 A 
ATOM     19 BR   UNL     1      -5.544  -6.909  -6.398  0.00  0.00    -0.043 Br
ENDBRANCH  13  14
ENDBRANCH  11  13
ENDBRANCH   1   9
BRANCH   1  20
ATOM     20  C   UNL     1      -1.877  -1.992   0.009  0.00  0.00    +0.042 C 
BRANCH  20  21
ATOM     21  C   UNL     1      -1.752  -0.467   0.016  0.00  0.00    +0.071 C 
BRANCH  21  23
ATOM     22  C   UNL     1      -0.022   1.810   0.012  0.00  0.00    +0.084 C 
ATOM     23  S   UNL     1       0.002  -0.004   0.002  0.00  0.00    -0.164 S 
ENDBRANCH  21  23
ENDBRANCH  20  21
ENDBRANCH   1  20
TORSDOF 7
