REMARK  Name = ZINC21179122
REMARK  12 active torsions:
REMARK  status: ('A' for Active; 'I' for Inactive)
REMARK    1  A    between atoms: C_1  and  N_2
REMARK    2  A    between atoms: N_2  and  C_3
REMARK    3  A    between atoms: C_3  and  C_4
REMARK    4  A    between atoms: N_6  and  C_7
REMARK    5  A    between atoms: C_14  and  C_16
REMARK    6  A    between atoms: C_16  and  S_17
REMARK    7  A    between atoms: S_17  and  C_18
REMARK    8  A    between atoms: C_21  and  C_26
REMARK    9  A    between atoms: N_22  and  C_23
REMARK   10  A    between atoms: C_23  and  C_24
REMARK   11  A    between atoms: C_29  and  O_32
REMARK   12  A    between atoms: O_32  and  C_33
REMARK                            x       y       z     vdW  Elec       q    Type
REMARK                         _______ _______ _______ _____ _____    ______ ____
ROOT
ATOM      1  C   UNL     1       0.704  -4.923  -0.223  0.00  0.00    +0.173 C 
ENDROOT
BRANCH   1   4
ATOM      2  C   UNL     1       2.611  -6.919   0.415  0.00  0.00    +0.132 C 
ATOM      3  N   UNL     1       1.319  -7.318  -0.148  0.00  0.00    -0.295 N 
ATOM      4  C   UNL     1       0.401  -6.380  -0.457  0.00  0.00    +0.226 C 
ATOM      5  O   UNL     1      -0.669  -6.710  -0.924  0.00  0.00    -0.275 OA
BRANCH   3   6
ATOM      6  C   UNL     1       1.025  -8.735  -0.376  0.00  0.00    +0.203 C 
BRANCH   6   7
ATOM      7  C   UNL     1       1.465  -9.122  -1.764  0.00  0.00    +0.235 C 
ATOM      8  O   UNL     1       1.975  -8.296  -2.492  0.00  0.00    -0.274 OA
ATOM      9  N   UNL     1       1.293 -10.387  -2.198  0.00  0.00    -0.283 N 
ATOM     10  H   UNL     1       0.757 -11.114  -1.571  0.00  0.00    +0.155 HD
BRANCH   9  11
ATOM     11  C   UNL     1       1.796 -10.774  -3.445  0.00  0.00    +0.052 A 
ATOM     12  C   UNL     1       2.970 -10.210  -3.928  0.00  0.00    +0.025 A 
ATOM     13  C   UNL     1       3.466 -10.598  -5.156  0.00  0.00    +0.002 A 
ATOM     14  C   UNL     1       2.791 -11.539  -5.912  0.00  0.00    +0.002 A 
ATOM     15  C   UNL     1       1.618 -12.098  -5.438  0.00  0.00    +0.022 A 
ATOM     16  C   UNL     1       1.118 -11.719  -4.207  0.00  0.00    +0.062 A 
ATOM     17 CL   UNL     1      -0.354 -12.420  -3.612  0.00  0.00    -0.082 Cl
ENDBRANCH   9  11
ENDBRANCH   6   7
ENDBRANCH   3   6
ENDBRANCH   1   4
BRANCH   1  18
ATOM     18  S   UNL     1      -0.715  -3.922  -0.734  0.00  0.00    -0.077 S 
BRANCH  18  19
ATOM     19  C   UNL     1      -0.104  -2.312  -0.361  0.00  0.00    +0.193 A 
ATOM     20  N   UNL     1       1.072  -2.023   0.147  0.00  0.00    -0.122 NA
ATOM     21  N   UNL     1       1.191  -0.752   0.292  0.00  0.00    -0.128 NA
ATOM     22  C   UNL     1       0.097  -0.151  -0.115  0.00  0.00    +0.165 A 
ATOM     23  N   UNL     1      -0.769  -1.132  -0.540  0.00  0.00    -0.298 N 
BRANCH  22  24
ATOM     24  C   UNL     1      -0.158   1.305  -0.111  0.00  0.00    +0.020 A 
ATOM     25  C   UNL     1       0.632   2.152   0.668  0.00  0.00    +0.015 A 
ATOM     26  C   UNL     1       0.394   3.510   0.665  0.00  0.00    +0.046 A 
ATOM     27  C   UNL     1      -0.637   4.034  -0.104  0.00  0.00    +0.120 A 
ATOM     28  C   UNL     1      -1.429   3.195  -0.876  0.00  0.00    +0.046 A 
ATOM     29  C   UNL     1      -1.194   1.836  -0.882  0.00  0.00    +0.015 A 
BRANCH  27  30
ATOM     30  O   UNL     1      -0.873   5.373  -0.100  0.00  0.00    -0.495 OA
ATOM     31  C   UNL     1      -0.020   6.179   0.716  0.00  0.00    +0.277 C 
ENDBRANCH  27  30
ENDBRANCH  22  24
BRANCH  23  32
ATOM     32  C   UNL     1      -2.120  -0.949  -1.076  0.00  0.00    +0.152 C 
BRANCH  32  33
ATOM     33  C   UNL     1      -2.047  -0.772  -2.571  0.00  0.00    -0.013 C 
ATOM     34  C   UNL     1      -2.744  -1.555  -3.357  0.00  0.00    +0.005 C 
ENDBRANCH  32  33
ENDBRANCH  23  32
ENDBRANCH  18  19
ENDBRANCH   1  18
TORSDOF 10
