REMARK  Name = ZINC66931428
REMARK  7 active torsions:
REMARK  status: ('A' for Active; 'I' for Inactive)
REMARK    1  A    between atoms: C_1  and  C_2
REMARK    2  A    between atoms: C_2  and  C_4
REMARK    3  A    between atoms: C_2  and  N_19
REMARK    4  A    between atoms: N_6  and  C_7
REMARK    5  A    between atoms: C_7  and  C_8
REMARK    6  A    between atoms: C_8  and  O_18
REMARK    7  A    between atoms: C_20  and  C_22
REMARK                            x       y       z     vdW  Elec       q    Type
REMARK                         _______ _______ _______ _____ _____    ______ ____
ROOT
ATOM      1  C   UNL     1       0.682  -0.315   1.330  0.00  0.00    +0.233 C 
ATOM      2  O   UNL     1       0.136  -1.127   2.047  0.00  0.00    -0.274 OA
ATOM      3  N   UNL     1       1.978  -0.004   1.530  0.00  0.00    -0.311 N 
ATOM      4  H   UNL     1       2.415   0.645   0.957  0.00  0.00    +0.149 HD
ENDROOT
BRANCH   1   6
ATOM      5  C   UNL     1      -0.101   1.860   0.433  0.00  0.00    +0.038 C 
ATOM      6  C   UNL     1      -0.088   0.346   0.216  0.00  0.00    +0.156 C 
BRANCH   6   7
ATOM      7  N   UNL     1      -1.464  -0.158   0.208  0.00  0.00    -0.299 N 
ATOM      8  C   UNL     1      -2.185  -0.131  -0.930  0.00  0.00    +0.265 C 
ATOM      9  O   UNL     1      -1.693   0.312  -1.951  0.00  0.00    -0.268 OA
ATOM     10  H   UNL     1      -1.856  -0.511   1.022  0.00  0.00    +0.150 HD
BRANCH   8  11
ATOM     11  C   UNL     1      -3.569  -0.637  -0.938  0.00  0.00    +0.154 A 
ATOM     12  C   UNL     1      -4.484  -0.679  -2.087  0.00  0.00    +0.032 A 
ATOM     13  C   UNL     1      -4.414  -0.309  -3.426  0.00  0.00    +0.012 A 
ATOM     14  C   UNL     1      -5.497  -0.499  -4.238  0.00  0.00    +0.001 A 
ATOM     15  C   UNL     1      -6.666  -1.057  -3.736  0.00  0.00    +0.002 A 
ATOM     16  C   UNL     1      -6.757  -1.429  -2.414  0.00  0.00    +0.028 A 
ATOM     17  C   UNL     1      -5.666  -1.246  -1.570  0.00  0.00    +0.066 A 
ATOM     18  N   UNL     1      -5.420  -1.495  -0.245  0.00  0.00    -0.276 N 
ATOM     19  N   UNL     1      -4.228  -1.147   0.080  0.00  0.00    -0.168 NA
ATOM     20  H   UNL     1      -6.062  -1.888   0.367  0.00  0.00    +0.189 HD
ENDBRANCH   8  11
ENDBRANCH   6   7
ENDBRANCH   1   6
BRANCH   3  21
ATOM     21  C   UNL     1       2.727  -0.647   2.613  0.00  0.00    +0.143 C 
BRANCH  21  22
ATOM     22  C   UNL     1       4.195  -0.222   2.540  0.00  0.00    +0.107 C 
ATOM     23  C   UNL     1       4.755  -0.578   1.164  0.00  0.00    +0.041 C 
ATOM     24  C   UNL     1       6.271  -0.347   1.184  0.00  0.00    +0.008 C 
ATOM     25  C   UNL     1       6.908  -1.412   2.074  0.00  0.00    +0.035 C 
ATOM     26  C   UNL     1       6.217  -1.466   3.412  0.00  0.00    -0.041 A 
ATOM     27  C   UNL     1       4.970  -0.923   3.624  0.00  0.00    -0.011 A 
ATOM     28  C   UNL     1       4.386  -1.013   4.881  0.00  0.00    +0.007 A 
ATOM     29  C   UNL     1       5.047  -1.639   5.918  0.00  0.00    +0.000 A 
ATOM     30  C   UNL     1       6.300  -2.180   5.706  0.00  0.00    +0.000 A 
ATOM     31  C   UNL     1       6.881  -2.094   4.457  0.00  0.00    +0.004 A 
BRANCH  22  32
ATOM     32  O   UNL     1       4.287   1.191   2.733  0.00  0.00    -0.382 OA
ATOM     33  H   UNL     1       3.942   1.495   3.584  0.00  0.00    +0.211 HD
ENDBRANCH  22  32
ENDBRANCH  21  22
ENDBRANCH   3  21
TORSDOF 6
