REMARK  Name = ZINC01669125
REMARK  0 active torsions:
REMARK  status: ('A' for Active; 'I' for Inactive)
REMARK                            x       y       z     vdW  Elec       q    Type
REMARK                         _______ _______ _______ _____ _____    ______ ____
ROOT
ATOM      1  C   UNL     1       3.544   2.250  -0.312  0.00  0.00    +0.191 C 
ATOM      2  C   UNL     1       3.099   1.608  -1.651  0.00  0.00    +0.191 C 
ATOM      3  O   UNL     1       2.009   0.749  -1.256  0.00  0.00    -0.346 OA
ATOM      4  C   UNL     1       1.525   1.239  -0.006  0.00  0.00    +0.174 C 
ATOM      5  O   UNL     1       2.281   2.389   0.385  0.00  0.00    -0.346 OA
ATOM      6  C   UNL     1      -0.018   1.482   0.010  0.00  0.00    +0.073 C 
ATOM      7  C   UNL     1       0.002  -0.004   0.002  0.00  0.00    +0.025 C 
ATOM      8  C   UNL     1       1.172   0.246   1.048  0.00  0.00    +0.059 C 
ATOM      9  C   UNL     1       1.524  -1.228   1.171  0.00  0.00    +0.036 C 
ATOM     10  C   UNL     1       0.124  -1.833   1.348  0.00  0.00    -0.030 C 
ATOM     11  C   UNL     1      -0.745  -1.067   0.687  0.00  0.00    -0.027 C 
ENDROOT
TORSDOF 0
