REMARK  Name = ZINC59170731
REMARK  12 active torsions:
REMARK  status: ('A' for Active; 'I' for Inactive)
REMARK    1  A    between atoms: C_1  and  C_2
REMARK    2  A    between atoms: C_2  and  N_3
REMARK    3  A    between atoms: N_3  and  C_4
REMARK    4  A    between atoms: N_3  and  C_6
REMARK    5  A    between atoms: C_4  and  C_5
REMARK    6  A    between atoms: C_11  and  C_27
REMARK    7  A    between atoms: N_13  and  C_14
REMARK    8  A    between atoms: C_17  and  S_20
REMARK    9  A    between atoms: S_20  and  N_23
REMARK   10  A    between atoms: N_29  and  C_30
REMARK   11  A    between atoms: C_35  and  O_36
REMARK   12  A    between atoms: O_36  and  C_37
REMARK                            x       y       z     vdW  Elec       q    Type
REMARK                         _______ _______ _______ _____ _____    ______ ____
ROOT
ATOM      1  C   UNL     1      -2.045  -0.802   1.144  0.00  0.00    +0.033 A 
ATOM      2  C   UNL     1      -1.786   0.067   2.205  0.00  0.00    +0.024 A 
ATOM      3  C   UNL     1      -2.602   0.088   3.296  0.00  0.00    +0.013 A 
ATOM      4  C   UNL     1      -3.707  -0.775   3.361  0.00  0.00    +0.018 A 
ATOM      5  C   UNL     1      -4.542  -0.787   4.506  0.00  0.00    +0.030 A 
ATOM      6  C   UNL     1      -5.497  -1.790   4.612  0.00  0.00    +0.098 A 
ATOM      7  C   UNL     1      -5.548  -2.794   3.531  0.00  0.00    +0.212 A 
ATOM      8  N   UNL     1      -6.022  -4.002   3.745  0.00  0.00    -0.325 N 
ATOM      9  O   UNL     1      -5.089  -2.425   2.307  0.00  0.00    -0.438 OA
ATOM     10  C   UNL     1      -3.990  -1.632   2.278  0.00  0.00    +0.139 A 
ATOM     11  C   UNL     1      -3.150  -1.643   1.178  0.00  0.00    +0.070 A 
ATOM     12  H   UNL     1      -6.252  -4.280   4.645  0.00  0.00    +0.169 HD
ENDROOT
BRANCH   8  13
ATOM     13  C   UNL     1      -6.191  -4.866   2.699  0.00  0.00    +0.042 A 
ATOM     14  C   UNL     1      -6.772  -4.422   1.508  0.00  0.00    +0.027 A 
ATOM     15  C   UNL     1      -6.939  -5.299   0.457  0.00  0.00    +0.030 A 
ATOM     16  C   UNL     1      -6.532  -6.616   0.579  0.00  0.00    +0.105 A 
ATOM     17  C   UNL     1      -5.955  -7.063   1.755  0.00  0.00    +0.030 A 
ATOM     18  C   UNL     1      -5.777  -6.196   2.812  0.00  0.00    +0.027 A 
BRANCH  16  19
ATOM     19  S   UNL     1      -6.749  -7.729  -0.770  0.00  0.00    +0.056 S 
ATOM     20  O   UNL     1      -6.787  -9.037  -0.215  0.00  0.00    -0.153 OA
ATOM     21  O   UNL     1      -7.807  -7.206  -1.561  0.00  0.00    -0.153 OA
BRANCH  19  22
ATOM     22  N   UNL     1      -5.380  -7.647  -1.697  0.00  0.00    -0.204 NA
ATOM     23  H   UNL     1      -4.655  -7.055  -1.442  0.00  0.00    +0.144 HD
ATOM     24  H   UNL     1      -5.302  -8.192  -2.496  0.00  0.00    +0.144 HD
ENDBRANCH  19  22
ENDBRANCH  16  19
ENDBRANCH   8  13
BRANCH   6  25
ATOM     25  C   UNL     1      -6.419  -1.850   5.756  0.00  0.00    +0.253 C 
ATOM     26  O   UNL     1      -6.271  -1.094   6.697  0.00  0.00    -0.270 OA
ATOM     27  N   UNL     1      -7.429  -2.743   5.761  0.00  0.00    -0.278 N 
ATOM     28  H   UNL     1      -7.517  -3.380   5.035  0.00  0.00    +0.155 HD
BRANCH  27  29
ATOM     29  C   UNL     1      -8.352  -2.750   6.814  0.00  0.00    +0.076 A 
ATOM     30  C   UNL     1      -7.976  -2.297   8.071  0.00  0.00    +0.027 A 
ATOM     31  C   UNL     1      -8.889  -2.305   9.109  0.00  0.00    +0.002 A 
ATOM     32  C   UNL     1     -10.176  -2.764   8.899  0.00  0.00    +0.004 A 
ATOM     33  C   UNL     1     -10.557  -3.218   7.650  0.00  0.00    +0.047 A 
ATOM     34  C   UNL     1      -9.650  -3.208   6.603  0.00  0.00    +0.141 A 
BRANCH  34  35
ATOM     35  O   UNL     1     -10.025  -3.649   5.372  0.00  0.00    -0.493 OA
ATOM     36  C   UNL     1     -11.372  -4.104   5.229  0.00  0.00    +0.277 C 
ENDBRANCH  34  35
ENDBRANCH  27  29
ENDBRANCH   6  25
BRANCH   1  37
ATOM     37  N   UNL     1      -1.196  -0.821   0.044  0.00  0.00    -0.330 N 
BRANCH  37  39
ATOM     38  C   UNL     1      -0.421   1.394  -0.644  0.00  0.00    +0.024 C 
ATOM     39  C   UNL     1      -0.030   0.064   0.003  0.00  0.00    +0.102 C 
ENDBRANCH  37  39
BRANCH  37  40
ATOM     40  C   UNL     1      -1.468  -1.727  -1.075  0.00  0.00    +0.102 C 
ATOM     41  C   UNL     1      -0.765  -3.064  -0.831  0.00  0.00    +0.024 C 
ENDBRANCH  37  40
ENDBRANCH   1  37
TORSDOF 9
