REMARK  Name = ZINC34756171
REMARK  8 active torsions:
REMARK  status: ('A' for Active; 'I' for Inactive)
REMARK    1  A    between atoms: C_1  and  C_2
REMARK    2  A    between atoms: C_2  and  C_3
REMARK    3  A    between atoms: C_2  and  C_4
REMARK    4  A    between atoms: C_4  and  S_5
REMARK    5  A    between atoms: S_5  and  C_6
REMARK    6  A    between atoms: N_22  and  C_25
REMARK    7  A    between atoms: C_25  and  C_26
REMARK    8  A    between atoms: C_26  and  C_28
REMARK                            x       y       z     vdW  Elec       q    Type
REMARK                         _______ _______ _______ _____ _____    ______ ____
ROOT
ATOM      1  C   UNL     1      -2.759  -2.885   0.217  0.00  0.00    +0.191 A 
ATOM      2  N   UNL     1      -3.164  -4.138   0.044  0.00  0.00    -0.206 NA
ATOM      3  C   UNL     1      -4.439  -4.449  -0.113  0.00  0.00    +0.134 A 
ATOM      4  C   UNL     1      -5.415  -3.413  -0.096  0.00  0.00    +0.051 A 
ATOM      5  C   UNL     1      -6.868  -3.522  -0.250  0.00  0.00    -0.025 A 
ATOM      6  C   UNL     1      -7.576  -2.376  -0.195  0.00  0.00    -0.004 A 
ATOM      7  S   UNL     1      -6.372  -1.100   0.061  0.00  0.00    -0.073 S 
ATOM      8  C   UNL     1      -4.914  -2.110   0.093  0.00  0.00    +0.115 A 
ATOM      9  N   UNL     1      -3.624  -1.881   0.247  0.00  0.00    -0.215 NA
ATOM     10  C   UNL     1      -9.060  -2.220  -0.325  0.00  0.00    +0.043 C 
ATOM     11  C   UNL     1      -9.636  -3.520  -0.903  0.00  0.00    +0.005 C 
ATOM     12  C   UNL     1      -9.050  -4.704  -0.128  0.00  0.00    +0.005 C 
ATOM     13  C   UNL     1      -7.567  -4.861  -0.465  0.00  0.00    +0.037 C 
ATOM     14  N   UNL     1      -4.821  -5.766  -0.292  0.00  0.00    -0.318 N 
ATOM     15  C   UNL     1      -5.022  -6.319  -1.640  0.00  0.00    +0.088 C 
ATOM     16  C   UNL     1      -4.233  -7.628  -1.751  0.00  0.00    -0.059 C 
ATOM     17  N   UNL     1      -4.628  -8.530  -0.661  0.00  0.00    +0.384 N 
ATOM     18  C   UNL     1      -4.247  -7.948   0.632  0.00  0.00    -0.059 C 
ATOM     19  C   UNL     1      -5.031  -6.656   0.861  0.00  0.00    +0.088 C 
ATOM     20  H   UNL     1      -5.627  -8.668  -0.685  0.00  0.00    -0.081 HD
ENDROOT
BRANCH   1  21
ATOM     21  S   UNL     1      -1.040  -2.552   0.419  0.00  0.00    -0.086 S 
BRANCH  21  22
ATOM     22  C   UNL     1      -0.964  -0.752   0.629  0.00  0.00    +0.080 C 
BRANCH  22  24
ATOM     23  C   UNL     1       0.570   1.206   0.868  0.00  0.00    +0.008 C 
ATOM     24  C   UNL     1       0.492  -0.321   0.816  0.00  0.00    -0.007 C 
ATOM     25  C   UNL     1       1.032  -0.904   2.124  0.00  0.00    +0.008 C 
ENDBRANCH  22  24
ENDBRANCH  21  22
ENDBRANCH   1  21
BRANCH  17  26
ATOM     26  C   UNL     1      -3.954  -9.824  -0.831  0.00  0.00    -0.048 C 
BRANCH  26  27
ATOM     27  C   UNL     1      -4.461 -10.495  -2.081  0.00  0.00    -0.096 C 
ATOM     28  C   UNL     1      -3.793 -10.383  -3.202  0.00  0.00    +0.005 C 
ATOM     29  C   UNL     1      -5.738 -11.294  -2.042  0.00  0.00    +0.036 C 
ENDBRANCH  26  27
ENDBRANCH  17  26
TORSDOF 5
