REMARK  Name = ZINC61882244
REMARK  5 active torsions:
REMARK  status: ('A' for Active; 'I' for Inactive)
REMARK    1  A    between atoms: C_4  and  C_6
REMARK    2  A    between atoms: C_6  and  N_7
REMARK    3  A    between atoms: N_7  and  S_8
REMARK    4  A    between atoms: S_8  and  C_11
REMARK    5  A    between atoms: C_15  and  N_18
REMARK                            x       y       z     vdW  Elec       q    Type
REMARK                         _______ _______ _______ _____ _____    ______ ____
ROOT
ATOM      1  S   UNL     1       2.081  -4.103  -1.753  0.00  0.00    +0.060 S 
ATOM      2  O   UNL     1       2.170  -4.324  -3.154  0.00  0.00    -0.153 OA
ATOM      3  O   UNL     1       3.226  -4.078  -0.911  0.00  0.00    -0.153 OA
ENDROOT
BRANCH   1   4
ATOM      4  C   UNL     1       1.013  -5.350  -1.113  0.00  0.00    +0.122 A 
ATOM      5  C   UNL     1       1.403  -6.098  -0.017  0.00  0.00    +0.049 A 
ATOM      6  C   UNL     1       0.567  -7.078   0.489  0.00  0.00    +0.045 A 
ATOM      7  C   UNL     1      -0.661  -7.311  -0.100  0.00  0.00    +0.044 A 
ATOM      8  C   UNL     1      -1.056  -6.562  -1.200  0.00  0.00    +0.042 A 
ATOM      9  C   UNL     1      -0.215  -5.575  -1.703  0.00  0.00    +0.065 A 
ATOM     10 BR   UNL     1      -0.751  -4.546  -3.196  0.00  0.00    -0.046 Br
ATOM     11 CL   UNL     1       1.062  -8.014   1.864  0.00  0.00    -0.083 Cl
BRANCH   8  12
ATOM     12  N   UNL     1      -2.297  -6.796  -1.798  0.00  0.00    -0.357 N 
ATOM     13  H   UNL     1      -2.884  -7.483  -1.445  0.00  0.00    +0.142 HD
ATOM     14  H   UNL     1      -2.571  -6.272  -2.567  0.00  0.00    +0.142 HD
ENDBRANCH   8  12
ENDBRANCH   1   4
BRANCH   1  15
ATOM     15  N   UNL     1       1.314  -2.650  -1.550  0.00  0.00    -0.184 NA
ATOM     16  H   UNL     1       1.048  -2.130  -2.325  0.00  0.00    +0.148 HD
BRANCH  15  17
ATOM     17  C   UNL     1       1.037  -2.149  -0.202  0.00  0.00    +0.168 C 
BRANCH  17  21
ATOM     18  C   UNL     1      -0.621   1.182  -0.465  0.00  0.00    +0.119 A 
ATOM     19  C   UNL     1       0.508   1.926  -0.342  0.00  0.00    +0.066 A 
ATOM     20  S   UNL     1       1.733   0.638  -0.170  0.00  0.00    -0.079 S 
ATOM     21  C   UNL     1       0.696  -0.683  -0.271  0.00  0.00    +0.094 A 
ATOM     22  N   UNL     1      -0.481  -0.128  -0.424  0.00  0.00    -0.251 NA
ENDBRANCH  17  21
ENDBRANCH  15  17
ENDBRANCH   1  15
TORSDOF 5
