REMARK  Name = ZINC64591312
REMARK  6 active torsions:
REMARK  status: ('A' for Active; 'I' for Inactive)
REMARK    1  A    between atoms: C_1  and  C_2
REMARK    2  A    between atoms: C_2  and  C_3
REMARK    3  A    between atoms: C_8  and  N_9
REMARK    4  A    between atoms: C_10  and  C_12
REMARK    5  A    between atoms: C_12  and  N_13
REMARK    6  A    between atoms: C_21  and  C_23
REMARK                            x       y       z     vdW  Elec       q    Type
REMARK                         _______ _______ _______ _____ _____    ______ ____
ROOT
ATOM      1  N   UNL     1       6.362  -0.515   0.938  0.00  0.00    -0.303 N 
ATOM      2  C   UNL     1       6.848  -1.788   1.163  0.00  0.00    +0.109 A 
ATOM      3  C   UNL     1       8.122  -2.100   0.965  0.00  0.00    +0.131 A 
ATOM      4  N   UNL     1       9.035  -1.156   0.518  0.00  0.00    -0.233 N 
ATOM      5  C   UNL     1       8.602   0.124   0.280  0.00  0.00    +0.132 A 
ATOM      6  C   UNL     1       7.192   0.456   0.496  0.00  0.00    +0.277 A 
ATOM      7  O   UNL     1       6.778   1.582   0.287  0.00  0.00    -0.265 OA
ATOM      8  C   UNL     1       9.698   0.846  -0.148  0.00  0.00    +0.063 A 
ATOM      9  C   UNL     1      10.764  -0.068  -0.144  0.00  0.00    +0.094 A 
ATOM     10  N   UNL     1      10.293  -1.232   0.263  0.00  0.00    -0.166 NA
ENDROOT
BRANCH   9  11
ATOM     11  C   UNL     1      12.168   0.223  -0.527  0.00  0.00    +0.002 A 
ATOM     12  C   UNL     1      12.530   1.506  -0.935  0.00  0.00    +0.011 A 
ATOM     13  C   UNL     1      13.836   1.772  -1.290  0.00  0.00    +0.020 A 
ATOM     14  C   UNL     1      14.787   0.766  -1.242  0.00  0.00    +0.041 A 
ATOM     15  C   UNL     1      14.433  -0.509  -0.838  0.00  0.00    +0.020 A 
ATOM     16  C   UNL     1      13.130  -0.783  -0.475  0.00  0.00    +0.011 A 
ATOM     17 CL   UNL     1      16.429   1.107  -1.692  0.00  0.00    -0.084 Cl
ENDBRANCH   9  11
BRANCH   1  18
ATOM     18  C   UNL     1       4.947  -0.219   1.171  0.00  0.00    +0.220 C 
BRANCH  18  20
ATOM     19  N   UNL     1       2.833  -0.268  -0.113  0.00  0.00    -0.284 N 
ATOM     20  C   UNL     1       4.165  -0.474  -0.091  0.00  0.00    +0.237 C 
ATOM     21  O   UNL     1       4.734  -0.865  -1.088  0.00  0.00    -0.274 OA
ATOM     22  H   UNL     1       2.388   0.106   0.663  0.00  0.00    +0.155 HD
BRANCH  19  28
ATOM     23  C   UNL     1       0.800  -1.084  -1.129  0.00  0.00    -0.026 A 
ATOM     24  C   UNL     1       0.070  -1.399  -2.258  0.00  0.00    +0.005 A 
ATOM     25  C   UNL     1       0.627  -1.234  -3.513  0.00  0.00    +0.000 A 
ATOM     26  C   UNL     1       1.917  -0.751  -3.641  0.00  0.00    +0.002 A 
ATOM     27  C   UNL     1       2.652  -0.433  -2.516  0.00  0.00    +0.023 A 
ATOM     28  C   UNL     1       2.093  -0.594  -1.255  0.00  0.00    +0.037 A 
BRANCH  23  30
ATOM     29  C   UNL     1      -0.422   0.058   0.702  0.00  0.00    +0.009 C 
ATOM     30  C   UNL     1       0.191  -1.265   0.238  0.00  0.00    +0.033 C 
ENDBRANCH  23  30
ENDBRANCH  19  28
ENDBRANCH  18  20
ENDBRANCH   1  18
TORSDOF 5
