REMARK  Name = ZINC20464663
REMARK  12 active torsions:
REMARK  status: ('A' for Active; 'I' for Inactive)
REMARK    1  A    between atoms: C_1  and  C_2
REMARK    2  A    between atoms: C_2  and  O_35
REMARK    3  A    between atoms: C_5  and  C_24
REMARK    4  A    between atoms: C_9  and  C_22
REMARK    5  A    between atoms: C_9  and  C_23
REMARK    6  A    between atoms: C_11  and  N_13
REMARK    7  A    between atoms: N_13  and  C_14
REMARK    8  A    between atoms: C_14  and  C_15
REMARK    9  A    between atoms: C_24  and  C_25
REMARK   10  A    between atoms: C_25  and  C_26
REMARK   11  A    between atoms: N_28  and  C_29
REMARK   12  A    between atoms: C_29  and  C_30
REMARK                            x       y       z     vdW  Elec       q    Type
REMARK                         _______ _______ _______ _____ _____    ______ ____
ROOT
ATOM      1  C   UNL     1      -0.424   1.542  -0.808  0.00  0.00    +0.041 C 
ATOM      2  C   UNL     1      -0.076   0.057  -0.685  0.00  0.00    +0.064 C 
ATOM      3  C   UNL     1      -1.361  -0.777  -0.714  0.00  0.00    +0.035 C 
ATOM      4  C   UNL     1      -0.977  -2.256  -0.667  0.00  0.00    +0.008 C 
ATOM      5  C   UNL     1      -0.185  -2.578   0.580  0.00  0.00    -0.038 C 
ATOM      6  C   UNL     1       1.039  -1.665   0.771  0.00  0.00    +0.002 C 
ATOM      7  C   UNL     1       0.639  -0.193   0.641  0.00  0.00    +0.039 C 
ATOM      8  C   UNL     1       1.376  -1.902   2.273  0.00  0.00    -0.033 C 
ATOM      9  C   UNL     1      -0.007  -1.981   2.955  0.00  0.00    -0.009 C 
ATOM     10  C   UNL     1      -1.009  -2.410   1.863  0.00  0.00    -0.064 C 
ATOM     11  C   UNL     1       2.185  -0.730   2.834  0.00  0.00    +0.011 C 
ATOM     12  C   UNL     1       2.139  -3.216   2.451  0.00  0.00    +0.011 C 
ENDROOT
BRANCH  10  13
ATOM     13  N   UNL     1      -1.642  -3.684   2.229  0.00  0.00    +0.384 N 
ATOM     14  H   UNL     1      -2.194  -4.020   1.454  0.00  0.00    -0.085 HD
ATOM     15  H   UNL     1      -0.929  -4.362   2.453  0.00  0.00    -0.085 HD
BRANCH  13  16
ATOM     16  C   UNL     1      -2.510  -3.482   3.397  0.00  0.00    -0.046 C 
BRANCH  16  17
ATOM     17  C   UNL     1      -3.159  -4.789   3.773  0.00  0.00    -0.064 A 
ATOM     18  C   UNL     1      -4.374  -5.142   3.215  0.00  0.00    +0.004 A 
ATOM     19  C   UNL     1      -4.970  -6.340   3.558  0.00  0.00    +0.038 A 
ATOM     20  C   UNL     1      -4.351  -7.187   4.461  0.00  0.00    +0.123 A 
ATOM     21  C   UNL     1      -3.135  -6.833   5.019  0.00  0.00    +0.038 A 
ATOM     22  C   UNL     1      -2.538  -5.636   4.671  0.00  0.00    +0.004 A 
ATOM     23  F   UNL     1      -4.933  -8.359   4.798  0.00  0.00    -0.205 F 
ENDBRANCH  16  17
ENDBRANCH  13  16
ENDBRANCH  10  13
BRANCH   2  24
ATOM     24  O   UNL     1       0.773  -0.327  -1.768  0.00  0.00    -0.389 OA
ATOM     25  H   UNL     1       0.379  -0.200  -2.642  0.00  0.00    +0.210 HD
ENDBRANCH   2  24
BRANCH   5  26
ATOM     26  C   UNL     1       0.310  -4.024   0.494  0.00  0.00    +0.015 C 
BRANCH  26  27
ATOM     27  C   UNL     1       1.327  -4.148  -0.642  0.00  0.00    +0.096 C 
BRANCH  27  28
ATOM     28  C   UNL     1       1.781  -5.580  -0.755  0.00  0.00    +0.213 C 
ATOM     29  O   UNL     1       1.335  -6.419  -0.001  0.00  0.00    -0.276 OA
ATOM     30  N   UNL     1       2.683  -5.929  -1.694  0.00  0.00    -0.308 N 
ATOM     31  H   UNL     1       3.039  -5.259  -2.297  0.00  0.00    +0.149 HD
BRANCH  30  32
ATOM     32  C   UNL     1       3.124  -7.322  -1.804  0.00  0.00    +0.178 C 
BRANCH  32  33
ATOM     33  C   UNL     1       4.125  -7.445  -2.924  0.00  0.00    +0.122 A 
ATOM     34  C   UNL     1       5.459  -7.313  -2.804  0.00  0.00    +0.046 A 
ATOM     35  C   UNL     1       6.007  -7.504  -4.093  0.00  0.00    +0.041 A 
ATOM     36  C   UNL     1       4.975  -7.741  -4.924  0.00  0.00    +0.195 A 
ATOM     37  O   UNL     1       3.839  -7.710  -4.209  0.00  0.00    -0.466 OA
ENDBRANCH  32  33
ENDBRANCH  30  32
ENDBRANCH  27  28
ENDBRANCH  26  27
ENDBRANCH   5  26
TORSDOF 9
