REMARK  Name = ZINC40650554
REMARK  5 active torsions:
REMARK  status: ('A' for Active; 'I' for Inactive)
REMARK    1  A    between atoms: C_1  and  C_2
REMARK    2  A    between atoms: C_13  and  N_29
REMARK    3  A    between atoms: C_14  and  N_18
REMARK    4  A    between atoms: N_18  and  C_19
REMARK    5  A    between atoms: C_22  and  C_25
REMARK                            x       y       z     vdW  Elec       q    Type
REMARK                         _______ _______ _______ _____ _____    ______ ____
ROOT
ATOM      1  C   UNL     1       0.186   1.504  -0.004  0.00  0.00    +0.044 C 
ATOM      2  C   UNL     1       0.180  -0.003  -0.011  0.00  0.00    -0.049 A 
ATOM      3  C   UNL     1      -0.051  -0.698  -1.189  0.00  0.00    +0.005 A 
ATOM      4  C   UNL     1      -0.063  -2.068  -1.222  0.00  0.00    +0.029 A 
ATOM      5  C   UNL     1       0.163  -2.821  -0.047  0.00  0.00    +0.080 A 
ATOM      6  C   UNL     1       0.396  -2.080   1.134  0.00  0.00    +0.041 A 
ATOM      7  C   UNL     1       0.411  -0.708   1.157  0.00  0.00    +0.020 A 
ATOM      8  S   UNL     1       0.628  -3.360   2.344  0.00  0.00    -0.052 S 
ATOM      9  C   UNL     1       0.408  -4.752   1.244  0.00  0.00    +0.165 A 
ATOM     10  N   UNL     1       0.185  -4.165   0.091  0.00  0.00    -0.225 NA
ATOM     11  N   UNL     1       0.460  -6.103   1.534  0.00  0.00    -0.277 N 
ATOM     12  C   UNL     1       0.260  -7.037   0.527  0.00  0.00    +0.160 A 
ATOM     13  C   UNL     1       0.304  -8.399   0.808  0.00  0.00    +0.206 A 
ATOM     14  C   UNL     1       0.097  -9.295  -0.236  0.00  0.00    +0.159 A 
ATOM     15  N   UNL     1      -0.133  -8.820  -1.459  0.00  0.00    -0.218 NA
ATOM     16  C   UNL     1      -0.167  -7.523  -1.685  0.00  0.00    +0.225 A 
ATOM     17  N   UNL     1       0.018  -6.643  -0.722  0.00  0.00    -0.218 NA
ATOM     18  H   UNL     1       0.635  -6.397   2.442  0.00  0.00    +0.156 HD
ENDROOT
BRANCH  13  19
ATOM     19  N   UNL     1       0.564  -8.882   2.183  0.00  0.00    +0.063 N 
ATOM     20  O   UNL     1      -0.359  -9.072   2.942  0.00  0.00    -0.126 OA
ATOM     21  O   UNL     1       1.698  -9.087   2.547  0.00  0.00    -0.126 OA
ENDBRANCH  13  19
BRANCH  14  22
ATOM     22  N   UNL     1       0.131 -10.663  -0.007  0.00  0.00    -0.297 N 
ATOM     23  H   UNL     1       0.223 -11.001   0.897  0.00  0.00    +0.154 HD
BRANCH  22  24
ATOM     24  C   UNL     1       0.033 -11.554  -1.080  0.00  0.00    +0.032 A 
ATOM     25  C   UNL     1      -0.657 -12.750  -0.930  0.00  0.00    +0.024 A 
ATOM     26  C   UNL     1      -0.752 -13.628  -1.992  0.00  0.00    +0.014 A 
ATOM     27  C   UNL     1      -0.162 -13.317  -3.203  0.00  0.00    +0.055 A 
ATOM     28  C   UNL     1       0.526 -12.127  -3.356  0.00  0.00    +0.014 A 
ATOM     29  C   UNL     1       0.619 -11.242  -2.300  0.00  0.00    +0.024 A 
BRANCH  27  30
ATOM     30  C   UNL     1      -0.268 -14.278  -4.360  0.00  0.00    +0.417 C 
ATOM     31  F   UNL     1      -1.413 -13.983  -5.108  0.00  0.00    -0.166 F 
ATOM     32  F   UNL     1       0.865 -14.156  -5.173  0.00  0.00    -0.166 F 
ATOM     33  F   UNL     1      -0.353 -15.586  -3.873  0.00  0.00    -0.166 F 
ENDBRANCH  27  30
ENDBRANCH  22  24
ENDBRANCH  14  22
TORSDOF 4
