REMARK  Name = ZINC65814510
REMARK  2 active torsions:
REMARK  status: ('A' for Active; 'I' for Inactive)
REMARK    1  A    between atoms: N_4  and  C_6
REMARK    2  A    between atoms: C_6  and  C_7
REMARK                            x       y       z     vdW  Elec       q    Type
REMARK                         _______ _______ _______ _____ _____    ______ ____
ROOT
ATOM      1  C   UNL     1       1.300  -2.526   1.140  0.00  0.00    +0.237 C 
ATOM      2  O   UNL     1       0.533  -1.981   1.905  0.00  0.00    -0.274 OA
ATOM      3  N   UNL     1       1.641  -3.816   1.332  0.00  0.00    -0.297 N 
ATOM      4  C   UNL     1       2.555  -4.425   0.409  0.00  0.00    +0.111 C 
ATOM      5  C   UNL     1       3.454  -5.435   1.055  0.00  0.00    +0.007 C 
ATOM      6  C   UNL     1       4.055  -4.942   2.361  0.00  0.00    +0.008 C 
ATOM      7  C   UNL     1       3.197  -5.208   3.581  0.00  0.00    -0.009 C 
ATOM      8  C   UNL     1       2.742  -6.670   3.625  0.00  0.00    +0.007 C 
ATOM      9  C   UNL     1       1.942  -6.933   2.346  0.00  0.00    -0.009 C 
ATOM     10  C   UNL     1       2.894  -6.826   1.154  0.00  0.00    +0.008 C 
ATOM     11  C   UNL     1       0.779  -5.978   2.209  0.00  0.00    +0.026 C 
ATOM     12  C   UNL     1       1.069  -4.521   2.465  0.00  0.00    +0.077 C 
ATOM     13  C   UNL     1       1.972  -4.310   3.675  0.00  0.00    +0.026 C 
ENDROOT
BRANCH   1  14
ATOM     14  C   UNL     1       1.872  -1.761  -0.025  0.00  0.00    +0.241 C 
BRANCH  14  18
ATOM     15  C   UNL     1      -0.016   1.303   0.009  0.00  0.00    +0.245 A 
ATOM     16  N   UNL     1       1.238   1.753  -0.000  0.00  0.00    -0.223 NA
ATOM     17  C   UNL     1       2.072   0.744  -0.014  0.00  0.00    +0.219 A 
ATOM     18  N   UNL     1       1.352  -0.392  -0.013  0.00  0.00    -0.243 N 
ATOM     19  N   UNL     1       0.002  -0.004   0.002  0.00  0.00    -0.158 NA
ENDBRANCH  14  18
ENDBRANCH   1  14
TORSDOF 2
