REMARK  Name = ZINC15099658
REMARK  16 active torsions:
REMARK  status: ('A' for Active; 'I' for Inactive)
REMARK    1  A    between atoms: C_1  and  C_2
REMARK    2  A    between atoms: C_2  and  C_3
REMARK    3  A    between atoms: C_3  and  C_4
REMARK    4  A    between atoms: C_4  and  N_5
REMARK    5  A    between atoms: C_6  and  N_36
REMARK    6  A    between atoms: C_7  and  N_14
REMARK    7  A    between atoms: N_14  and  C_15
REMARK    8  A    between atoms: C_15  and  C_16
REMARK    9  A    between atoms: C_22  and  C_24
REMARK   10  A    between atoms: C_24  and  N_71
REMARK   11  A    between atoms: C_25  and  N_71
REMARK   12  A    between atoms: C_26  and  C_27
REMARK   13  A    between atoms: C_26  and  N_71
REMARK   14  A    between atoms: C_27  and  O_28
REMARK   15  A    between atoms: O_28  and  C_29
REMARK   16  A    between atoms: C_34  and  C_35
REMARK                            x       y       z     vdW  Elec       q    Type
REMARK                         _______ _______ _______ _____ _____    ______ ____
ROOT
ATOM      1  N   UNL     1       2.406   3.786   0.014  0.00  0.00    -0.261 N 
ATOM      2  C   UNL     1       2.129   5.106   0.032  0.00  0.00    +0.204 C 
ATOM      3  O   UNL     1       1.005   5.494  -0.213  0.00  0.00    -0.277 OA
ENDROOT
BRANCH   1   6
ATOM      4  N   UNL     1      -0.017   1.092   0.622  0.00  0.00    -0.280 N 
ATOM      5  C   UNL     1       0.998   1.994   0.840  0.00  0.00    +0.127 A 
ATOM      6  C   UNL     1       1.369   2.850  -0.178  0.00  0.00    +0.140 A 
ATOM      7  C   UNL     1       0.693   2.772  -1.410  0.00  0.00    +0.277 A 
ATOM      8  O   UNL     1       1.000   3.516  -2.326  0.00  0.00    -0.266 OA
ATOM      9  N   UNL     1      -0.294   1.869  -1.571  0.00  0.00    -0.273 N 
ATOM     10  H   UNL     1      -0.772   1.811  -2.448  0.00  0.00    +0.173 HD
ATOM     11  C   UNL     1      -0.645   1.047  -0.567  0.00  0.00    +0.331 A 
ATOM     12  O   UNL     1      -1.544   0.246  -0.737  0.00  0.00    -0.246 OA
BRANCH   5  13
ATOM     13  N   UNL     1       1.637   2.043   2.056  0.00  0.00    -0.343 N 
ATOM     14  H   UNL     1       2.288   2.739   2.234  0.00  0.00    +0.144 HD
ATOM     15  H   UNL     1       1.436   1.381   2.736  0.00  0.00    +0.144 HD
ENDBRANCH   5  13
BRANCH   4  16
ATOM     16  C   UNL     1      -0.420   0.178   1.694  0.00  0.00    +0.128 C 
BRANCH  16  17
ATOM     17  C   UNL     1      -1.522   0.829   2.532  0.00  0.00    +0.021 C 
BRANCH  17  19
ATOM     18  C   UNL     1      -3.046   0.526   4.489  0.00  0.00    +0.004 C 
ATOM     19  C   UNL     1      -1.944  -0.125   3.651  0.00  0.00    -0.002 C 
ENDBRANCH  17  19
ENDBRANCH  16  17
ENDBRANCH   4  16
ENDBRANCH   1   6
BRANCH   1  20
ATOM     20  C   UNL     1       3.785   3.325   0.194  0.00  0.00    +0.149 C 
BRANCH  20  21
ATOM     21  C   UNL     1       4.440   3.162  -1.154  0.00  0.00    -0.030 A 
ATOM     22  C   UNL     1       4.277   1.988  -1.864  0.00  0.00    +0.005 A 
ATOM     23  C   UNL     1       4.873   1.841  -3.103  0.00  0.00    +0.000 A 
ATOM     24  C   UNL     1       5.642   2.864  -3.626  0.00  0.00    +0.000 A 
ATOM     25  C   UNL     1       5.810   4.036  -2.912  0.00  0.00    +0.000 A 
ATOM     26  C   UNL     1       5.209   4.185  -1.677  0.00  0.00    +0.005 A 
ENDBRANCH  20  21
ENDBRANCH   1  20
BRANCH   2  27
ATOM     27  C   UNL     1       3.214   6.100   0.356  0.00  0.00    +0.019 C 
BRANCH  27  29
ATOM     28  C   UNL     1       2.177   7.867  -0.935  0.00  0.00    -0.095 C 
ATOM     29  N   UNL     1       2.621   7.453   0.413  0.00  0.00    +0.386 N 
ATOM     30  H   UNL     1       1.808   7.434   1.041  0.00  0.00    -0.081 HD
BRANCH  29  31
ATOM     31  C   UNL     1       3.611   8.417   0.937  0.00  0.00    -0.037 C 
BRANCH  31  32
ATOM     32  C   UNL     1       2.910   9.752   1.196  0.00  0.00    +0.210 C 
BRANCH  32  33
ATOM     33  O   UNL     1       1.929   9.584   2.221  0.00  0.00    -0.494 OA
BRANCH  33  34
ATOM     34  C   UNL     1       1.211  10.683   2.574  0.00  0.00    +0.123 A 
ATOM     35  C   UNL     1       1.450  11.899   1.950  0.00  0.00    +0.046 A 
ATOM     36  C   UNL     1       0.715  13.013   2.307  0.00  0.00    +0.004 A 
ATOM     37  C   UNL     1      -0.251  12.919   3.293  0.00  0.00    +0.000 A 
ATOM     38  C   UNL     1      -0.486  11.710   3.920  0.00  0.00    +0.007 A 
ATOM     39  C   UNL     1       0.242  10.591   3.563  0.00  0.00    -0.009 A 
ATOM     40  C   UNL     1      -0.015   9.274   4.247  0.00  0.00    +0.047 C 
ENDBRANCH  33  34
ENDBRANCH  32  33
ENDBRANCH  31  32
ENDBRANCH  29  31
ENDBRANCH  27  29
ENDBRANCH   2  27
TORSDOF 13
