REMARK  Name = ZINC20705935
REMARK  6 active torsions:
REMARK  status: ('A' for Active; 'I' for Inactive)
REMARK    1  A    between atoms: C_1  and  N_2
REMARK    2  A    between atoms: N_2  and  C_3
REMARK    3  A    between atoms: N_2  and  S_4
REMARK    4  A    between atoms: S_4  and  C_7
REMARK    5  A    between atoms: C_20  and  C_23
REMARK    6  A    between atoms: C_25  and  N_30
REMARK                            x       y       z     vdW  Elec       q    Type
REMARK                         _______ _______ _______ _____ _____    ______ ____
ROOT
ATOM      1  C   UNL     1       1.354   1.989  -0.200  0.00  0.00    +0.106 A 
ATOM      2  C   UNL     1       0.203   1.229  -0.307  0.00  0.00    +0.030 A 
ATOM      3  C   UNL     1      -1.035   1.836  -0.278  0.00  0.00    +0.025 A 
ATOM      4  C   UNL     1      -1.137   3.215  -0.132  0.00  0.00    +0.031 A 
ATOM      5  C   UNL     1       0.031   3.977  -0.016  0.00  0.00    -0.018 A 
ATOM      6  C   UNL     1       1.263   3.361  -0.052  0.00  0.00    +0.034 A 
ATOM      7  C   UNL     1      -0.122   5.438   0.158  0.00  0.00    +0.049 C 
ATOM      8  C   UNL     1       0.934   6.392  -0.269  0.00  0.00    -0.023 C 
ATOM      9  C   UNL     1       0.355   7.528  -0.639  0.00  0.00    -0.030 C 
ATOM     10  C   UNL     1      -1.165   7.403  -0.517  0.00  0.00    +0.033 C 
ATOM     11  C   UNL     1      -1.364   5.889  -0.667  0.00  0.00    +0.029 C 
ATOM     12  C   UNL     1      -2.561   5.273   0.033  0.00  0.00    +0.106 C 
ATOM     13  N   UNL     1      -2.404   3.810  -0.123  0.00  0.00    -0.336 N 
ATOM     14  H   UNL     1      -3.292   3.171  -0.234  0.00  0.00    +0.147 HD
ENDROOT
BRANCH  12  15
ATOM     15  C   UNL     1      -3.839   5.732  -0.619  0.00  0.00    -0.007 A 
ATOM     16  C   UNL     1      -3.808   6.299  -1.880  0.00  0.00    +0.039 A 
ATOM     17  C   UNL     1      -4.981   6.716  -2.480  0.00  0.00    +0.127 A 
ATOM     18  C   UNL     1      -6.185   6.576  -1.816  0.00  0.00    +0.034 A 
ATOM     19  C   UNL     1      -6.218   6.015  -0.554  0.00  0.00    +0.022 A 
ATOM     20  C   UNL     1      -5.044   5.592   0.046  0.00  0.00    +0.046 A 
ATOM     21 CL   UNL     1      -5.085   4.888   1.632  0.00  0.00    -0.083 Cl
BRANCH  17  22
ATOM     22  N   UNL     1      -4.946   7.317  -3.832  0.00  0.00    +0.056 N 
ATOM     23  O   UNL     1      -5.979   7.689  -4.360  0.00  0.00    -0.126 OA
ATOM     24  O   UNL     1      -3.885   7.440  -4.417  0.00  0.00    -0.126 OA
ENDBRANCH  17  22
ENDBRANCH  12  15
BRANCH   1  25
ATOM     25  S   UNL     1       2.933   1.210  -0.251  0.00  0.00    +0.060 S 
ATOM     26  O   UNL     1       3.837   2.079   0.417  0.00  0.00    -0.153 OA
ATOM     27  O   UNL     1       2.734  -0.138   0.153  0.00  0.00    -0.153 OA
BRANCH  25  29
ATOM     28  C   UNL     1       4.176   2.273  -2.404  0.00  0.00    +0.131 C 
ATOM     29  N   UNL     1       3.406   1.164  -1.837  0.00  0.00    -0.183 NA
ATOM     30  C   UNL     1       3.053   0.014  -2.674  0.00  0.00    +0.131 C 
ENDBRANCH  25  29
ENDBRANCH   1  25
TORSDOF 4
