REMARK  Name = ZINC13112998
REMARK  9 active torsions:
REMARK  status: ('A' for Active; 'I' for Inactive)
REMARK    1  A    between atoms: C_1  and  C_2
REMARK    2  A    between atoms: C_15  and  C_17
REMARK    3  A    between atoms: C_17  and  S_18
REMARK    4  A    between atoms: S_18  and  C_19
REMARK    5  A    between atoms: C_22  and  C_27
REMARK    6  A    between atoms: N_23  and  C_24
REMARK    7  A    between atoms: C_24  and  C_25
REMARK    8  A    between atoms: C_27  and  O_28
REMARK    9  A    between atoms: O_28  and  C_29
REMARK                            x       y       z     vdW  Elec       q    Type
REMARK                         _______ _______ _______ _____ _____    ______ ____
ROOT
ATOM      1  S   UNL     1      -4.398   3.471  -1.844  0.00  0.00    -0.077 S 
ENDROOT
BRANCH   1   2
ATOM      2  C   UNL     1      -4.997   3.986  -3.419  0.00  0.00    +0.192 A 
ATOM      3  N   UNL     1      -4.335   3.958  -4.553  0.00  0.00    -0.122 NA
ATOM      4  N   UNL     1      -5.077   4.407  -5.502  0.00  0.00    -0.130 NA
ATOM      5  C   UNL     1      -6.245   4.745  -5.035  0.00  0.00    +0.172 A 
ATOM      6  N   UNL     1      -6.238   4.484  -3.692  0.00  0.00    -0.299 N 
BRANCH   6   7
ATOM      7  C   UNL     1      -7.334   4.697  -2.744  0.00  0.00    +0.152 C 
BRANCH   7   8
ATOM      8  C   UNL     1      -7.237   6.087  -2.169  0.00  0.00    -0.013 C 
ATOM      9  C   UNL     1      -8.260   6.902  -2.249  0.00  0.00    +0.005 C 
ENDBRANCH   7   8
ENDBRANCH   6   7
BRANCH   5  10
ATOM     10  C   UNL     1      -7.393   5.314  -5.828  0.00  0.00    +0.305 C 
BRANCH  10  11
ATOM     11  O   UNL     1      -8.211   4.247  -6.313  0.00  0.00    -0.484 OA
BRANCH  11  12
ATOM     12  C   UNL     1      -9.298   4.590  -7.054  0.00  0.00    +0.121 A 
ATOM     13  C   UNL     1      -9.575   5.927  -7.302  0.00  0.00    +0.048 A 
ATOM     14  C   UNL     1     -10.676   6.274  -8.060  0.00  0.00    +0.042 A 
ATOM     15  C   UNL     1     -11.511   5.290  -8.562  0.00  0.00    +0.124 A 
ATOM     16  C   UNL     1     -11.239   3.956  -8.309  0.00  0.00    +0.042 A 
ATOM     17  C   UNL     1     -10.135   3.605  -7.557  0.00  0.00    +0.048 A 
ATOM     18  F   UNL     1     -12.591   5.631  -9.298  0.00  0.00    -0.205 F 
ENDBRANCH  11  12
ENDBRANCH  10  11
ENDBRANCH   5  10
ENDBRANCH   1   2
BRANCH   1  19
ATOM     19  C   UNL     1      -2.726   2.947  -2.299  0.00  0.00    +0.173 C 
BRANCH  19  33
ATOM     20  C   UNL     1       0.002  -0.004   0.002  0.00  0.00    +0.029 C 
ATOM     21  C   UNL     1      -0.019   1.526   0.010  0.00  0.00    +0.087 C 
ATOM     22  C   UNL     1       1.417   2.054  -0.000  0.00  0.00    +0.118 C 
ATOM     23  C   UNL     1       1.431   3.509  -0.386  0.00  0.00    +0.219 C 
ATOM     24  O   UNL     1       1.613   4.356   0.463  0.00  0.00    -0.275 OA
ATOM     25  N   UNL     1       1.242   3.880  -1.673  0.00  0.00    -0.284 N 
ATOM     26  C   UNL     1       0.941   2.925  -2.651  0.00  0.00    +0.055 A 
ATOM     27  C   UNL     1       1.633   2.892  -3.850  0.00  0.00    +0.025 A 
ATOM     28  C   UNL     1       1.299   1.955  -4.811  0.00  0.00    +0.002 A 
ATOM     29  C   UNL     1       0.277   1.053  -4.579  0.00  0.00    +0.002 A 
ATOM     30  C   UNL     1      -0.411   1.073  -3.380  0.00  0.00    +0.025 A 
ATOM     31  C   UNL     1      -0.075   2.001  -2.407  0.00  0.00    +0.058 A 
ATOM     32  N   UNL     1      -0.734   2.009  -1.171  0.00  0.00    -0.266 N 
ATOM     33  C   UNL     1      -2.003   2.453  -1.073  0.00  0.00    +0.230 C 
ATOM     34  O   UNL     1      -2.563   2.454   0.003  0.00  0.00    -0.274 OA
ATOM     35  H   UNL     1       1.315   4.815  -1.919  0.00  0.00    +0.155 HD
ENDBRANCH  19  33
ENDBRANCH   1  19
TORSDOF 8
