REMARK  Name = ZINC20539230
REMARK  10 active torsions:
REMARK  status: ('A' for Active; 'I' for Inactive)
REMARK    1  A    between atoms: C_1  and  C_2
REMARK    2  A    between atoms: C_2  and  C_19
REMARK    3  A    between atoms: N_5  and  C_9
REMARK    4  A    between atoms: C_9  and  C_10
REMARK    5  A    between atoms: C_10  and  C_11
REMARK    6  A    between atoms: C_14  and  O_17
REMARK    7  A    between atoms: O_17  and  C_18
REMARK    8  A    between atoms: N_22  and  C_25
REMARK    9  A    between atoms: C_25  and  C_26
REMARK   10  A    between atoms: C_29  and  N_32
REMARK                            x       y       z     vdW  Elec       q    Type
REMARK                         _______ _______ _______ _____ _____    ______ ____
ROOT
ATOM      1  C   UNL     1      -2.365   1.507   6.118  0.00  0.00    +0.042 C 
ATOM      2  C   UNL     1      -2.932   2.084   4.820  0.00  0.00    +0.112 C 
ATOM      3  C   UNL     1      -4.441   1.942   4.787  0.00  0.00    +0.247 C 
ATOM      4  O   UNL     1      -5.080   0.911   4.816  0.00  0.00    -0.273 OA
ATOM      5  N   UNL     1      -4.925   3.198   4.718  0.00  0.00    -0.224 N 
ATOM      6  C   UNL     1      -3.941   4.105   4.704  0.00  0.00    +0.309 C 
ATOM      7  O   UNL     1      -4.129   5.304   4.645  0.00  0.00    -0.252 OA
ATOM      8  N   UNL     1      -2.721   3.541   4.760  0.00  0.00    -0.285 N 
ATOM      9  H   UNL     1      -1.700   3.950   4.769  0.00  0.00    +0.151 HD
ENDROOT
BRANCH   2  10
ATOM     10  C   UNL     1      -2.300   1.399   3.607  0.00  0.00    +0.018 C 
ATOM     11  C   UNL     1      -0.778   1.558   3.664  0.00  0.00    -0.013 C 
ATOM     12  C   UNL     1      -0.156   0.922   2.419  0.00  0.00    -0.078 C 
ATOM     13  N   UNL     1      -0.690   1.575   1.216  0.00  0.00    +0.382 N 
ATOM     14  C   UNL     1      -2.143   1.395   1.115  0.00  0.00    -0.078 C 
ATOM     15  C   UNL     1      -2.825   2.045   2.321  0.00  0.00    -0.013 C 
ATOM     16  H   UNL     1      -0.491   2.653   1.304  0.00  0.00    -0.081 HD
BRANCH  13  17
ATOM     17  C   UNL     1      -0.013   1.086   0.008  0.00  0.00    -0.043 C 
BRANCH  17  18
ATOM     18  C   UNL     1      -0.742   1.585  -1.213  0.00  0.00    -0.064 A 
ATOM     19  C   UNL     1      -1.761   0.831  -1.764  0.00  0.00    +0.003 A 
ATOM     20  C   UNL     1      -2.435   1.288  -2.880  0.00  0.00    +0.023 A 
ATOM     21  C   UNL     1      -2.080   2.502  -3.455  0.00  0.00    +0.030 A 
ATOM     22  C   UNL     1      -1.052   3.254  -2.901  0.00  0.00    +0.023 A 
ATOM     23  C   UNL     1      -0.386   2.794  -1.782  0.00  0.00    +0.003 A 
BRANCH  21  24
ATOM     24  N   UNL     1      -2.755   2.964  -4.586  0.00  0.00    -0.330 N 
ATOM     25  C   UNL     1      -3.469   4.234  -4.298  0.00  0.00    +0.105 C 
ATOM     26  C   UNL     1      -3.687   4.846  -5.705  0.00  0.00    +0.020 C 
ATOM     27  C   UNL     1      -2.382   4.477  -6.448  0.00  0.00    +0.020 C 
ATOM     28  C   UNL     1      -1.808   3.273  -5.679  0.00  0.00    +0.105 C 
ENDBRANCH  21  24
ENDBRANCH  17  18
ENDBRANCH  13  17
ENDBRANCH   2  10
BRANCH   5  29
ATOM     29  C   UNL     1      -6.351   3.529   4.668  0.00  0.00    +0.122 C 
BRANCH  29  30
ATOM     30  C   UNL     1      -6.884   3.709   6.090  0.00  0.00    +0.054 C 
BRANCH  30  31
ATOM     31  C   UNL     1      -8.351   4.049   6.038  0.00  0.00    -0.046 A 
ATOM     32  C   UNL     1      -8.750   5.372   5.974  0.00  0.00    +0.007 A 
ATOM     33  C   UNL     1     -10.094   5.686   5.920  0.00  0.00    +0.046 A 
ATOM     34  C   UNL     1     -11.044   4.675   5.942  0.00  0.00    +0.120 A 
ATOM     35  C   UNL     1     -10.640   3.349   6.011  0.00  0.00    +0.046 A 
ATOM     36  C   UNL     1      -9.295   3.040   6.059  0.00  0.00    +0.007 A 
BRANCH  34  37
ATOM     37  O   UNL     1     -12.367   4.982   5.894  0.00  0.00    -0.495 OA
ATOM     38  C   UNL     1     -12.709   6.368   5.823  0.00  0.00    +0.277 C 
ENDBRANCH  34  37
ENDBRANCH  30  31
ENDBRANCH  29  30
ENDBRANCH   5  29
TORSDOF 8
