REMARK  Name = ZINC16646939
REMARK  14 active torsions:
REMARK  status: ('A' for Active; 'I' for Inactive)
REMARK    1  A    between atoms: C_1  and  C_2
REMARK    2  A    between atoms: C_2  and  C_3
REMARK    3  A    between atoms: C_3  and  C_4
REMARK    4  A    between atoms: C_4  and  C_5
REMARK    5  A    between atoms: C_5  and  C_6
REMARK    6  A    between atoms: C_9  and  C_12
REMARK    7  A    between atoms: N_22  and  C_31
REMARK    8  A    between atoms: N_24  and  C_25
REMARK    9  A    between atoms: C_31  and  C_32
REMARK   10  A    between atoms: N_34  and  C_35
REMARK   11  A    between atoms: C_35  and  C_36
REMARK   12  A    between atoms: C_36  and  C_37
REMARK   13  A    between atoms: C_37  and  O_38
REMARK   14  A    between atoms: O_38  and  C_39
REMARK                            x       y       z     vdW  Elec       q    Type
REMARK                         _______ _______ _______ _____ _____    ______ ____
ROOT
ATOM      1  C   UNL     1      -0.219   8.331  -1.675  0.00  0.00    +0.247 C 
ATOM      2  O   UNL     1      -1.343   8.188  -1.236  0.00  0.00    -0.270 OA
ATOM      3  N   UNL     1       0.846   8.175  -0.863  0.00  0.00    -0.297 N 
ATOM      4  C   UNL     1       2.203   8.469  -1.344  0.00  0.00    +0.110 C 
ATOM      5  C   UNL     1       3.087   7.241  -1.106  0.00  0.00    +0.054 C 
ATOM      6  C   UNL     1       3.003   6.833   0.362  0.00  0.00    +0.115 C 
ATOM      7  C   UNL     1       1.567   6.486   0.744  0.00  0.00    +0.054 C 
ATOM      8  C   UNL     1       0.671   7.709   0.519  0.00  0.00    +0.110 C 
ATOM      9  C   UNL     1       3.530   7.936   1.246  0.00  0.00    +0.241 C 
ATOM     10  O   UNL     1       3.272   9.117   1.138  0.00  0.00    -0.273 OA
ATOM     11  N   UNL     1       4.339   7.386   2.177  0.00  0.00    -0.275 N 
ATOM     12  C   UNL     1       4.387   5.931   1.988  0.00  0.00    +0.217 C 
ATOM     13  N   UNL     1       3.887   5.676   0.617  0.00  0.00    -0.300 N 
ENDROOT
BRANCH   1  17
ATOM     14  C   UNL     1       0.356   9.318  -5.766  0.00  0.00    -0.047 A 
ATOM     15  C   UNL     1      -0.748   9.805  -5.088  0.00  0.00    +0.004 A 
ATOM     16  C   UNL     1      -0.941   9.487  -3.760  0.00  0.00    +0.013 A 
ATOM     17  C   UNL     1      -0.019   8.674  -3.099  0.00  0.00    +0.037 A 
ATOM     18  C   UNL     1       1.096   8.192  -3.786  0.00  0.00    +0.013 A 
ATOM     19  C   UNL     1       1.274   8.512  -5.117  0.00  0.00    +0.004 A 
BRANCH  14  20
ATOM     20  C   UNL     1       0.559   9.668  -7.218  0.00  0.00    +0.035 C 
BRANCH  20  21
ATOM     21  C   UNL     1       1.380  10.955  -7.322  0.00  0.00    +0.005 C 
BRANCH  21  22
ATOM     22  C   UNL     1       1.587  11.310  -8.795  0.00  0.00    +0.000 C 
BRANCH  22  24
ATOM     23  C   UNL     1       2.614  12.953 -10.373  0.00  0.00    +0.004 C 
ATOM     24  C   UNL     1       2.408  12.598  -8.899  0.00  0.00    -0.003 C 
ENDBRANCH  22  24
ENDBRANCH  21  22
ENDBRANCH  20  21
ENDBRANCH  14  20
ENDBRANCH   1  17
BRANCH  13  25
ATOM     25  C   UNL     1       3.172   4.477   0.560  0.00  0.00    +0.032 A 
ATOM     26  C   UNL     1       2.473   4.138  -0.591  0.00  0.00    +0.023 A 
ATOM     27  C   UNL     1       1.767   2.952  -0.645  0.00  0.00    +0.002 A 
ATOM     28  C   UNL     1       1.752   2.105   0.448  0.00  0.00    +0.000 A 
ATOM     29  C   UNL     1       2.452   2.437   1.593  0.00  0.00    +0.002 A 
ATOM     30  C   UNL     1       3.160   3.621   1.653  0.00  0.00    +0.023 A 
ENDBRANCH  13  25
BRANCH  11  31
ATOM     31  C   UNL     1       5.058   8.128   3.215  0.00  0.00    +0.205 C 
BRANCH  31  32
ATOM     32  C   UNL     1       4.195   8.233   4.446  0.00  0.00    +0.230 C 
ATOM     33  O   UNL     1       3.088   7.738   4.455  0.00  0.00    -0.274 OA
ATOM     34  N   UNL     1       4.654   8.878   5.537  0.00  0.00    -0.314 N 
ATOM     35  H   UNL     1       5.539   9.275   5.530  0.00  0.00    +0.149 HD
BRANCH  34  36
ATOM     36  C   UNL     1       3.815   8.981   6.734  0.00  0.00    +0.106 C 
BRANCH  36  37
ATOM     37  C   UNL     1       4.566   9.755   7.819  0.00  0.00    +0.047 C 
BRANCH  37  38
ATOM     38  C   UNL     1       3.690   9.862   9.069  0.00  0.00    +0.161 C 
BRANCH  38  39
ATOM     39  O   UNL     1       4.392  10.586  10.082  0.00  0.00    -0.383 OA
ATOM     40  C   UNL     1       3.658  10.743  11.298  0.00  0.00    +0.193 C 
ENDBRANCH  38  39
ENDBRANCH  37  38
ENDBRANCH  36  37
ENDBRANCH  34  36
ENDBRANCH  31  32
ENDBRANCH  11  31
TORSDOF 12
