REMARK  Name = ZINC09723390
REMARK  12 active torsions:
REMARK  status: ('A' for Active; 'I' for Inactive)
REMARK    1  A    between atoms: C_1  and  C_2
REMARK    2  A    between atoms: C_6  and  N_9
REMARK    3  A    between atoms: C_7  and  C_8
REMARK    4  A    between atoms: C_10  and  C_12
REMARK    5  A    between atoms: C_12  and  N_59
REMARK    6  A    between atoms: C_13  and  C_14
REMARK    7  A    between atoms: C_13  and  N_59
REMARK    8  A    between atoms: C_14  and  O_15
REMARK    9  A    between atoms: O_15  and  C_16
REMARK   10  A    between atoms: C_17  and  C_18
REMARK   11  A    between atoms: C_17  and  N_59
REMARK   12  A    between atoms: C_24  and  C_29
REMARK                            x       y       z     vdW  Elec       q    Type
REMARK                         _______ _______ _______ _____ _____    ______ ____
ROOT
ATOM      1  N   UNL     1      -1.474   6.201  -0.138  0.00  0.00    +0.392 N 
ATOM      2  H   UNL     1      -1.892   6.040  -1.062  0.00  0.00    -0.080 HD
ENDROOT
BRANCH   1   3
ATOM      3  C   UNL     1      -0.128   5.590  -0.107  0.00  0.00    +0.020 C 
BRANCH   3   5
ATOM      4  N   UNL     1       0.872   3.391  -0.636  0.00  0.00    -0.287 N 
ATOM      5  C   UNL     1      -0.234   4.158  -0.562  0.00  0.00    +0.201 C 
ATOM      6  O   UNL     1      -1.314   3.695  -0.862  0.00  0.00    -0.278 OA
ATOM      7  H   UNL     1       1.723   3.736  -0.325  0.00  0.00    +0.155 HD
BRANCH   4  13
ATOM      8  C   UNL     1       2.673  -1.174  -0.937  0.00  0.00    +0.044 C 
ATOM      9  C   UNL     1       1.652  -0.136  -1.325  0.00  0.00    -0.046 A 
ATOM     10  C   UNL     1       0.634  -0.462  -2.203  0.00  0.00    +0.004 A 
ATOM     11  C   UNL     1      -0.305   0.487  -2.562  0.00  0.00    +0.002 A 
ATOM     12  C   UNL     1      -0.229   1.766  -2.044  0.00  0.00    +0.023 A 
ATOM     13  C   UNL     1       0.792   2.097  -1.162  0.00  0.00    +0.036 A 
ATOM     14  C   UNL     1       1.733   1.140  -0.804  0.00  0.00    -0.026 A 
ATOM     15  C   UNL     1       2.842   1.495   0.153  0.00  0.00    +0.046 C 
ENDBRANCH   4  13
ENDBRANCH   3   5
ENDBRANCH   1   3
BRANCH   1  16
ATOM     16  C   UNL     1      -2.334   5.583   0.892  0.00  0.00    -0.049 C 
BRANCH  16  17
ATOM     17  C   UNL     1      -1.754   5.821   2.288  0.00  0.00    +0.141 C 
BRANCH  17  18
ATOM     18  O   UNL     1      -1.937   7.191   2.652  0.00  0.00    -0.385 OA
ATOM     19  C   UNL     1      -1.331   7.548   3.896  0.00  0.00    +0.193 C 
ENDBRANCH  17  18
ENDBRANCH  16  17
ENDBRANCH   1  16
BRANCH   1  20
ATOM     20  C   UNL     1      -1.373   7.657   0.095  0.00  0.00    -0.002 C 
BRANCH  20  21
ATOM     21  C   UNL     1      -2.701   8.293  -0.228  0.00  0.00    +0.094 A 
ATOM     22  N   UNL     1      -2.821   9.645  -0.184  0.00  0.00    -0.312 N 
ATOM     23  H   UNL     1      -2.051  10.184   0.054  0.00  0.00    +0.170 HD
ATOM     24  C   UNL     1      -3.988  10.252  -0.470  0.00  0.00    +0.260 A 
ATOM     25  O   UNL     1      -4.079  11.467  -0.430  0.00  0.00    -0.267 OA
ATOM     26  C   UNL     1      -5.121   9.450  -0.816  0.00  0.00    +0.083 A 
ATOM     27  C   UNL     1      -6.477   9.866  -1.157  0.00  0.00    +0.039 A 
ATOM     28  C   UNL     1      -7.396   8.912  -1.454  0.00  0.00    +0.059 A 
ATOM     29  S   UNL     1      -6.481   7.392  -1.288  0.00  0.00    -0.076 S 
ATOM     30  C   UNL     1      -4.903   8.063  -0.830  0.00  0.00    +0.116 A 
ATOM     31  N   UNL     1      -3.717   7.534  -0.540  0.00  0.00    -0.229 NA
BRANCH  27  32
ATOM     32  C   UNL     1      -6.843  11.297  -1.180  0.00  0.00    +0.136 A 
ATOM     33  C   UNL     1      -7.478  11.943  -2.194  0.00  0.00    +0.050 A 
ATOM     34  C   UNL     1      -7.626  13.286  -1.791  0.00  0.00    +0.042 A 
ATOM     35  C   UNL     1      -7.072  13.394  -0.568  0.00  0.00    +0.196 A 
ATOM     36  O   UNL     1      -6.600  12.190  -0.202  0.00  0.00    -0.463 OA
ENDBRANCH  27  32
ENDBRANCH  20  21
ENDBRANCH   1  20
TORSDOF 9
