REMARK  Name = ZINC22107897
REMARK  10 active torsions:
REMARK  status: ('A' for Active; 'I' for Inactive)
REMARK    1  A    between atoms: C_4  and  N_7
REMARK    2  A    between atoms: C_8  and  S_12
REMARK    3  A    between atoms: S_12  and  C_13
REMARK    4  A    between atoms: C_13  and  C_14
REMARK    5  A    between atoms: C_14  and  N_15
REMARK    6  A    between atoms: N_15  and  C_16
REMARK    7  A    between atoms: C_16  and  C_17
REMARK    8  A    between atoms: C_22  and  O_23
REMARK    9  A    between atoms: O_23  and  C_24
REMARK   10  A    between atoms: C_24  and  C_25
REMARK                            x       y       z     vdW  Elec       q    Type
REMARK                         _______ _______ _______ _____ _____    ______ ____
ROOT
ATOM      1  N   UNL     1      -0.012   1.005   0.008  0.00  0.00    +0.382 N 
ATOM      2  H   UNL     1      -0.497   1.287   0.954  0.00  0.00    -0.085 HD
ATOM      3  H   UNL     1       0.046  -0.091  -0.062  0.00  0.00    -0.085 HD
ENDROOT
BRANCH   1   4
ATOM      4  C   UNL     1      -0.795   1.527  -1.120  0.00  0.00    -0.071 C 
BRANCH   4   5
ATOM      5  C   UNL     1      -2.207   0.938  -1.076  0.00  0.00    +0.058 C 
BRANCH   5   6
ATOM      6  S   UNL     1      -3.173   1.581  -2.465  0.00  0.00    -0.086 S 
BRANCH   6   8
ATOM      7  N   UNL     1      -5.834   0.876  -2.922  0.00  0.00    -0.187 N 
ATOM      8  C   UNL     1      -4.707   0.764  -2.175  0.00  0.00    +0.214 A 
ATOM      9  N   UNL     1      -4.977  -0.067  -1.192  0.00  0.00    -0.101 NA
ATOM     10  N   UNL     1      -6.189  -0.483  -1.274  0.00  0.00    -0.022 NA
ATOM     11  N   UNL     1      -6.775   0.039  -2.297  0.00  0.00    -0.038 NA
BRANCH   7  15
ATOM     12  C   UNL     1      -6.389   3.202  -6.337  0.00  0.00    +0.000 A 
ATOM     13  C   UNL     1      -7.017   1.975  -6.228  0.00  0.00    +0.002 A 
ATOM     14  C   UNL     1      -6.836   1.203  -5.098  0.00  0.00    +0.028 A 
ATOM     15  C   UNL     1      -6.021   1.659  -4.071  0.00  0.00    +0.070 A 
ATOM     16  C   UNL     1      -5.395   2.893  -4.181  0.00  0.00    +0.028 A 
ATOM     17  C   UNL     1      -5.576   3.659  -5.316  0.00  0.00    +0.002 A 
ENDBRANCH   7  15
ENDBRANCH   6   8
ENDBRANCH   5   6
ENDBRANCH   4   5
ENDBRANCH   1   4
BRANCH   1  18
ATOM     18  C   UNL     1       1.353   1.550  -0.003  0.00  0.00    -0.043 C 
BRANCH  18  19
ATOM     19  C   UNL     1       2.125   0.993   1.166  0.00  0.00    -0.022 A 
ATOM     20  C   UNL     1       2.289   1.750   2.309  0.00  0.00    +0.020 A 
ATOM     21  C   UNL     1       2.998   1.240   3.382  0.00  0.00    +0.018 A 
ATOM     22  C   UNL     1       3.543  -0.030   3.312  0.00  0.00    +0.019 A 
ATOM     23  C   UNL     1       3.381  -0.790   2.170  0.00  0.00    +0.047 A 
ATOM     24  C   UNL     1       2.665  -0.282   1.096  0.00  0.00    +0.122 A 
ATOM     25 BR   UNL     1       3.221   2.278   4.947  0.00  0.00    -0.050 Br
BRANCH  24  26
ATOM     26  O   UNL     1       2.499  -1.031  -0.026  0.00  0.00    -0.487 OA
BRANCH  26  27
ATOM     27  C   UNL     1       3.084  -2.335  -0.028  0.00  0.00    +0.267 C 
BRANCH  27  28
ATOM     28  C   UNL     1       2.799  -3.011  -1.345  0.00  0.00    +0.025 A 
ATOM     29  C   UNL     1       2.064  -2.355  -2.314  0.00  0.00    +0.010 A 
ATOM     30  C   UNL     1       1.807  -2.973  -3.524  0.00  0.00    +0.001 A 
ATOM     31  C   UNL     1       2.275  -4.252  -3.761  0.00  0.00    +0.003 A 
ATOM     32  C   UNL     1       3.005  -4.913  -2.791  0.00  0.00    +0.039 A 
ATOM     33  C   UNL     1       3.267  -4.293  -1.581  0.00  0.00    +0.130 A 
ATOM     34  F   UNL     1       3.980  -4.937  -0.632  0.00  0.00    -0.205 F 
ENDBRANCH  27  28
ENDBRANCH  26  27
ENDBRANCH  24  26
ENDBRANCH  18  19
ENDBRANCH   1  18
TORSDOF 10
