REMARK  Name = ZINC20564379
REMARK  5 active torsions:
REMARK  status: ('A' for Active; 'I' for Inactive)
REMARK    1  A    between atoms: C_1  and  C_2
REMARK    2  A    between atoms: C_4  and  C_32
REMARK    3  A    between atoms: N_5  and  C_25
REMARK    4  A    between atoms: C_14  and  C_17
REMARK    5  A    between atoms: N_19  and  C_20
REMARK                            x       y       z     vdW  Elec       q    Type
REMARK                         _______ _______ _______ _____ _____    ______ ____
ROOT
ATOM      1  C   UNL     1       3.225  11.508  -1.336  0.00  0.00    +0.068 C 
ATOM      2  C   UNL     1       2.820  10.059  -1.412  0.00  0.00    +0.072 A 
ATOM      3  C   UNL     1       2.051   9.592  -2.501  0.00  0.00    +0.049 A 
ATOM      4  C   UNL     1       1.501  10.131  -3.643  0.00  0.00    +0.051 A 
ATOM      5  N   UNL     1       0.863   9.145  -4.297  0.00  0.00    -0.236 N 
ATOM      6  N   UNL     1       0.989   7.942  -3.588  0.00  0.00    -0.163 NA
ATOM      7  C   UNL     1       1.699   8.158  -2.505  0.00  0.00    +0.137 A 
ATOM      8  C   UNL     1       2.175   7.369  -1.371  0.00  0.00    +0.172 A 
ATOM      9  N   UNL     1       2.884   7.981  -0.441  0.00  0.00    -0.132 NA
ATOM     10  N   UNL     1       3.176   9.225  -0.470  0.00  0.00    -0.152 NA
ATOM     11  N   UNL     1       1.895   6.015  -1.277  0.00  0.00    -0.312 N 
ATOM     12  C   UNL     1       2.481   5.439  -0.059  0.00  0.00    +0.107 C 
ATOM     13  C   UNL     1       2.277   3.922  -0.061  0.00  0.00    +0.031 C 
ATOM     14  C   UNL     1       0.778   3.614  -0.124  0.00  0.00    +0.078 C 
ATOM     15  C   UNL     1       0.183   4.265  -1.376  0.00  0.00    +0.031 C 
ATOM     16  C   UNL     1       0.448   5.772  -1.335  0.00  0.00    +0.107 C 
ATOM     17  C   UNL     1       1.596  11.569  -4.080  0.00  0.00    +0.066 C 
ENDROOT
BRANCH   5  18
ATOM     18  C   UNL     1       0.175   9.296  -5.508  0.00  0.00    +0.066 A 
ATOM     19  C   UNL     1      -1.056   8.679  -5.691  0.00  0.00    +0.029 A 
ATOM     20  C   UNL     1      -1.734   8.835  -6.884  0.00  0.00    +0.022 A 
ATOM     21  C   UNL     1      -1.184   9.595  -7.900  0.00  0.00    +0.041 A 
ATOM     22  C   UNL     1       0.044  10.207  -7.723  0.00  0.00    +0.022 A 
ATOM     23  C   UNL     1       0.725  10.059  -6.530  0.00  0.00    +0.029 A 
ATOM     24 CL   UNL     1      -2.036   9.783  -9.401  0.00  0.00    -0.084 Cl
ENDBRANCH   5  18
BRANCH  14  25
ATOM     25  C   UNL     1       0.574   2.122  -0.187  0.00  0.00    +0.216 C 
ATOM     26  O   UNL     1       1.531   1.378  -0.182  0.00  0.00    -0.276 OA
ATOM     27  N   UNL     1      -0.673   1.615  -0.249  0.00  0.00    -0.312 N 
ATOM     28  H   UNL     1      -1.542   2.290  -0.253  0.00  0.00    +0.149 HD
BRANCH  27  29
ATOM     29  C   UNL     1      -0.872   0.165  -0.310  0.00  0.00    +0.073 C 
ATOM     30  C   UNL     1      -0.822  -0.314  -1.775  0.00  0.00    +0.022 C 
ATOM     31  C   UNL     1      -1.892  -1.433  -1.846  0.00  0.00    +0.002 C 
ATOM     32  C   UNL     1      -3.019  -0.886  -0.935  0.00  0.00    +0.002 C 
ATOM     33  C   UNL     1      -2.269  -0.199   0.225  0.00  0.00    +0.022 C 
ENDBRANCH  27  29
ENDBRANCH  14  25
TORSDOF 3
