REMARK  Name = ZINC63230181
REMARK  8 active torsions:
REMARK  status: ('A' for Active; 'I' for Inactive)
REMARK    1  A    between atoms: C_1  and  O_2
REMARK    2  A    between atoms: O_2  and  C_3
REMARK    3  A    between atoms: C_6  and  C_9
REMARK    4  A    between atoms: C_9  and  C_11
REMARK    5  A    between atoms: C_9  and  C_27
REMARK    6  A    between atoms: C_11  and  N_12
REMARK    7  A    between atoms: C_16  and  S_19
REMARK    8  A    between atoms: S_19  and  N_22
REMARK                            x       y       z     vdW  Elec       q    Type
REMARK                         _______ _______ _______ _____ _____    ______ ____
ROOT
ATOM      1  C   UNL     1      -4.981  -2.629   0.035  0.00  0.00    +0.064 C 
ENDROOT
BRANCH   1   2
ATOM      2  C   UNL     1      -5.085  -3.493   1.265  0.00  0.00    -0.033 C 
ATOM      3  C   UNL     1      -6.013  -3.404   2.245  0.00  0.00    -0.000 A 
ATOM      4  C   UNL     1      -7.158  -2.509   2.452  0.00  0.00    +0.010 A 
ATOM      5  C   UNL     1      -7.923  -2.666   3.557  0.00  0.00    +0.001 A 
ATOM      6  C   UNL     1      -7.649  -3.660   4.507  0.00  0.00    +0.002 A 
ATOM      7  C   UNL     1      -6.615  -4.519   4.386  0.00  0.00    +0.026 A 
ATOM      8  C   UNL     1      -5.746  -4.445   3.263  0.00  0.00    +0.043 A 
ATOM      9  N   UNL     1      -4.694  -5.151   2.926  0.00  0.00    -0.380 N 
ATOM     10  C   UNL     1      -4.178  -4.640   1.651  0.00  0.00    +0.145 C 
ATOM     11  H   UNL     1      -4.322  -5.889   3.432  0.00  0.00    +0.160 HD
ENDBRANCH   1   2
BRANCH   1  15
ATOM     12  C   UNL     1      -1.200  -0.637   0.010  0.00  0.00    +0.120 A 
ATOM     13  C   UNL     1      -2.375   0.101   0.019  0.00  0.00    +0.046 A 
ATOM     14  C   UNL     1      -3.596  -0.545   0.027  0.00  0.00    +0.008 A 
ATOM     15  C   UNL     1      -3.648  -1.927   0.026  0.00  0.00    -0.038 A 
ATOM     16  C   UNL     1      -2.479  -2.665   0.017  0.00  0.00    +0.008 A 
ATOM     17  C   UNL     1      -1.255  -2.024   0.003  0.00  0.00    +0.046 A 
BRANCH  12  19
ATOM     18  C   UNL     1      -0.017   1.425   0.010  0.00  0.00    +0.277 C 
ATOM     19  O   UNL     1       0.002  -0.004   0.002  0.00  0.00    -0.495 OA
ENDBRANCH  12  19
ENDBRANCH   1  15
BRANCH   1  20
ATOM     20  C   UNL     1      -5.105  -3.504  -1.214  0.00  0.00    +0.115 C 
BRANCH  20  21
ATOM     21  N   UNL     1      -6.446  -4.093  -1.267  0.00  0.00    -0.328 N 
ATOM     22  C   UNL     1      -6.796  -4.931  -2.319  0.00  0.00    +0.119 A 
ATOM     23  C   UNL     1      -5.867  -5.210  -3.316  0.00  0.00    +0.045 A 
ATOM     24  C   UNL     1      -6.228  -6.046  -4.357  0.00  0.00    +0.033 A 
ATOM     25  C   UNL     1      -7.512  -6.575  -4.367  0.00  0.00    +0.124 A 
ATOM     26  C   UNL     1      -8.383  -6.255  -3.345  0.00  0.00    +0.141 A 
ATOM     27  N   UNL     1      -8.009  -5.460  -2.361  0.00  0.00    -0.239 NA
ATOM     28  H   UNL     1      -7.089  -3.898  -0.568  0.00  0.00    +0.147 HD
BRANCH  25  29
ATOM     29  S   UNL     1      -8.024  -7.645  -5.670  0.00  0.00    +0.062 S 
ATOM     30  O   UNL     1      -9.442  -7.564  -5.729  0.00  0.00    -0.153 OA
ATOM     31  O   UNL     1      -7.197  -7.348  -6.787  0.00  0.00    -0.153 OA
BRANCH  29  32
ATOM     32  N   UNL     1      -7.657  -9.192  -5.207  0.00  0.00    -0.177 NA
ATOM     33  C   UNL     1      -6.388  -9.886  -5.470  0.00  0.00    +0.109 C 
ATOM     34  C   UNL     1      -6.512 -11.306  -4.879  0.00  0.00    +0.018 C 
ATOM     35  C   UNL     1      -8.047 -11.523  -4.815  0.00  0.00    +0.018 C 
ATOM     36  C   UNL     1      -8.545 -10.098  -4.458  0.00  0.00    +0.109 C 
ENDBRANCH  29  32
ENDBRANCH  25  29
ENDBRANCH  20  21
ENDBRANCH   1  20
TORSDOF 7
