REMARK  Name = ZINC14185549
REMARK  5 active torsions:
REMARK  status: ('A' for Active; 'I' for Inactive)
REMARK    1  A    between atoms: C_1  and  C_2
REMARK    2  A    between atoms: C_4  and  C_7
REMARK    3  A    between atoms: C_7  and  S_8
REMARK    4  A    between atoms: S_8  and  C_9
REMARK    5  A    between atoms: C_12  and  C_14
REMARK                            x       y       z     vdW  Elec       q    Type
REMARK                         _______ _______ _______ _____ _____    ______ ____
ROOT
ATOM      1  C   UNL     1      -3.087   9.033   0.082  0.00  0.00    +0.278 A 
ATOM      2  N   UNL     1      -1.814   9.354   0.071  0.00  0.00    -0.101 NA
ATOM      3  N   UNL     1      -1.102   8.283   0.064  0.00  0.00    -0.106 NA
ATOM      4  C   UNL     1      -1.892   7.234   0.060  0.00  0.00    +0.257 A 
ATOM      5  O   UNL     1      -3.166   7.689   0.075  0.00  0.00    -0.410 OA
ENDROOT
BRANCH   4   6
ATOM      6  C   UNL     1      -1.470   5.826   0.048  0.00  0.00    +0.095 A 
ATOM      7  C   UNL     1      -0.207   5.325   0.033  0.00  0.00    +0.068 A 
ATOM      8  C   UNL     1      -0.021   3.885   0.023  0.00  0.00    +0.008 A 
ATOM      9  C   UNL     1       1.190   3.150   0.007  0.00  0.00    +0.010 A 
ATOM     10  C   UNL     1       1.178   1.791   0.000  0.00  0.00    +0.001 A 
ATOM     11  C   UNL     1      -0.013   1.076   0.008  0.00  0.00    +0.001 A 
ATOM     12  C   UNL     1      -1.215   1.755   0.017  0.00  0.00    +0.016 A 
ATOM     13  C   UNL     1      -1.218   3.133   0.030  0.00  0.00    +0.021 A 
ATOM     14  S   UNL     1      -2.493   4.366   0.049  0.00  0.00    -0.082 S 
ATOM     15 CL   UNL     1       1.163   6.391   0.025  0.00  0.00    -0.082 Cl
ENDBRANCH   4   6
BRANCH   1  16
ATOM     16  S   UNL     1      -4.445  10.156   0.101  0.00  0.00    -0.058 S 
BRANCH  16  17
ATOM     17  C   UNL     1      -3.551  11.730   0.101  0.00  0.00    +0.156 C 
BRANCH  17  21
ATOM     18  C   UNL     1      -6.761  15.441   1.453  0.00  0.00    +0.069 C 
ATOM     19  C   UNL     1      -5.918  14.463   0.677  0.00  0.00    +0.081 A 
ATOM     20  C   UNL     1      -5.059  13.475   1.211  0.00  0.00    +0.071 A 
ATOM     21  C   UNL     1      -4.538  12.869   0.117  0.00  0.00    +0.148 A 
ATOM     22  O   UNL     1      -5.070  13.485  -0.948  0.00  0.00    -0.359 OA
ATOM     23  N   UNL     1      -5.835  14.361  -0.618  0.00  0.00    -0.083 NA
ENDBRANCH  17  21
ENDBRANCH  16  17
ENDBRANCH   1  16
TORSDOF 4
