REMARK  Name = ZINC16459509
REMARK  13 active torsions:
REMARK  status: ('A' for Active; 'I' for Inactive)
REMARK    1  A    between atoms: C_1  and  C_2
REMARK    2  A    between atoms: C_2  and  C_3
REMARK    3  A    between atoms: C_2  and  C_4
REMARK    4  A    between atoms: C_7  and  N_10
REMARK    5  A    between atoms: N_13  and  C_14
REMARK    6  A    between atoms: N_13  and  C_18
REMARK    7  A    between atoms: C_14  and  C_15
REMARK    8  A    between atoms: C_15  and  O_16
REMARK    9  A    between atoms: O_16  and  C_17
REMARK   10  A    between atoms: C_18  and  C_19
REMARK   11  A    between atoms: C_21  and  C_24
REMARK   12  A    between atoms: N_29  and  C_32
REMARK   13  A    between atoms: C_32  and  C_33
REMARK                            x       y       z     vdW  Elec       q    Type
REMARK                         _______ _______ _______ _____ _____    ______ ____
ROOT
ATOM      1  C   UNL     1      -7.297  -5.207  -1.588  0.00  0.00    +0.096 A 
ATOM      2  N   UNL     1      -8.171  -6.046  -1.102  0.00  0.00    -0.238 NA
ATOM      3  C   UNL     1      -7.888  -7.352  -1.140  0.00  0.00    +0.133 A 
ATOM      4  C   UNL     1      -6.684  -7.690  -1.698  0.00  0.00    +0.080 A 
ATOM      5  S   UNL     1      -6.050  -6.194  -2.125  0.00  0.00    -0.078 S 
ENDROOT
BRANCH   3   6
ATOM      6  C   UNL     1      -8.816  -8.367  -0.614  0.00  0.00    +0.266 C 
ATOM      7  O   UNL     1      -8.458  -9.525  -0.514  0.00  0.00    -0.268 OA
ATOM      8  N   UNL     1     -10.062  -8.012  -0.243  0.00  0.00    -0.294 N 
ATOM      9  C   UNL     1     -10.517  -6.618  -0.359  0.00  0.00    +0.123 C 
ATOM     10  C   UNL     1     -11.852  -6.603  -1.111  0.00  0.00    +0.103 C 
ATOM     11  N   UNL     1     -12.796  -7.511  -0.445  0.00  0.00    -0.295 NA
ATOM     12  C   UNL     1     -12.320  -8.900  -0.488  0.00  0.00    +0.103 C 
ATOM     13  C   UNL     1     -11.006  -9.010   0.284  0.00  0.00    +0.123 C 
BRANCH  11  14
ATOM     14  C   UNL     1     -14.138  -7.396  -1.031  0.00  0.00    +0.119 C 
BRANCH  14  15
ATOM     15  C   UNL     1     -15.125  -8.148  -0.175  0.00  0.00    -0.033 A 
ATOM     16  C   UNL     1     -15.378  -9.484  -0.423  0.00  0.00    +0.005 A 
ATOM     17  C   UNL     1     -16.283 -10.174   0.362  0.00  0.00    +0.000 A 
ATOM     18  C   UNL     1     -16.936  -9.527   1.395  0.00  0.00    +0.000 A 
ATOM     19  C   UNL     1     -16.683  -8.191   1.643  0.00  0.00    +0.000 A 
ATOM     20  C   UNL     1     -15.774  -7.502   0.861  0.00  0.00    +0.005 A 
ENDBRANCH  14  15
ENDBRANCH  11  14
ENDBRANCH   3   6
BRANCH   1  21
ATOM     21  C   UNL     1      -7.389  -3.705  -1.658  0.00  0.00    +0.172 C 
BRANCH  21  25
ATOM     22  N   UNL     1      -4.971  -2.281   0.717  0.00  0.00    -0.269 N 
ATOM     23  C   UNL     1      -5.501  -2.816  -0.400  0.00  0.00    +0.307 C 
ATOM     24  O   UNL     1      -4.797  -3.021  -1.370  0.00  0.00    -0.252 OA
ATOM     25  N   UNL     1      -6.813  -3.124  -0.443  0.00  0.00    -0.277 N 
ATOM     26  H   UNL     1      -5.517  -2.178   1.512  0.00  0.00    +0.156 HD
BRANCH  22  30
ATOM     27  C   UNL     1      -0.984  -1.070   0.757  0.00  0.00    -0.045 A 
ATOM     28  C   UNL     1      -1.359  -2.185   0.031  0.00  0.00    +0.006 A 
ATOM     29  C   UNL     1      -2.680  -2.590   0.016  0.00  0.00    +0.023 A 
ATOM     30  C   UNL     1      -3.631  -1.874   0.731  0.00  0.00    +0.035 A 
ATOM     31  C   UNL     1      -3.252  -0.755   1.459  0.00  0.00    +0.023 A 
ATOM     32  C   UNL     1      -1.929  -0.359   1.474  0.00  0.00    +0.006 A 
BRANCH  27  34
ATOM     33  C   UNL     1       1.327  -1.756   1.335  0.00  0.00    +0.012 C 
ATOM     34  C   UNL     1       0.457  -0.631   0.771  0.00  0.00    +0.013 C 
ATOM     35  C   UNL     1       0.906  -0.306  -0.655  0.00  0.00    +0.012 C 
ENDBRANCH  27  34
ENDBRANCH  22  30
BRANCH  25  36
ATOM     36  C   UNL     1      -7.661  -2.877   0.725  0.00  0.00    +0.138 C 
BRANCH  36  37
ATOM     37  C   UNL     1      -8.251  -1.468   0.638  0.00  0.00    +0.178 C 
BRANCH  37  38
ATOM     38  O   UNL     1      -9.126  -1.386  -0.488  0.00  0.00    -0.381 OA
ATOM     39  C   UNL     1      -9.733  -0.104  -0.661  0.00  0.00    +0.194 C 
ENDBRANCH  37  38
ENDBRANCH  36  37
ENDBRANCH  25  36
ENDBRANCH  21  25
ENDBRANCH   1  21
TORSDOF 10
