REMARK  Name = ZINC40960666
REMARK  6 active torsions:
REMARK  status: ('A' for Active; 'I' for Inactive)
REMARK    1  A    between atoms: C_8  and  C_11
REMARK    2  A    between atoms: N_13  and  C_14
REMARK    3  A    between atoms: N_17  and  C_20
REMARK    4  A    between atoms: C_20  and  C_21
REMARK    5  A    between atoms: C_23  and  C_26
REMARK    6  A    between atoms: C_30  and  C_32
REMARK                            x       y       z     vdW  Elec       q    Type
REMARK                         _______ _______ _______ _____ _____    ______ ____
ROOT
ATOM      1  C   UNL     1       5.837  -4.578  -0.078  0.00  0.00    +0.070 C 
ATOM      2  C   UNL     1       5.996  -5.066  -1.521  0.00  0.00    +0.004 C 
ATOM      3  C   UNL     1       6.875  -6.319  -1.535  0.00  0.00    -0.076 C 
ATOM      4  N   UNL     1       8.194  -6.002  -0.976  0.00  0.00    +0.386 N 
ATOM      5  C   UNL     1       8.057  -5.601   0.429  0.00  0.00    -0.076 C 
ATOM      6  C   UNL     1       7.223  -4.321   0.519  0.00  0.00    +0.004 C 
ATOM      7  H   UNL     1       8.608  -5.246  -1.501  0.00  0.00    -0.081 HD
ENDROOT
BRANCH   1  10
ATOM      8  C   UNL     1       3.713  -3.383  -0.051  0.00  0.00    +0.261 C 
ATOM      9  O   UNL     1       3.143  -4.458  -0.051  0.00  0.00    -0.269 OA
ATOM     10  N   UNL     1       5.060  -3.336  -0.065  0.00  0.00    -0.307 N 
ATOM     11  H   UNL     1       5.515  -2.479  -0.065  0.00  0.00    +0.149 HD
BRANCH   8  19
ATOM     12  C   UNL     1      -0.016   1.360   0.009  0.00  0.00    +0.001 A 
ATOM     13  C   UNL     1       1.169   2.084   0.002  0.00  0.00    +0.002 A 
ATOM     14  C   UNL     1       2.385   1.439  -0.013  0.00  0.00    +0.026 A 
ATOM     15  C   UNL     1       2.430   0.047  -0.021  0.00  0.00    +0.047 A 
ATOM     16  C   UNL     1       1.227  -0.684  -0.013  0.00  0.00    +0.000 A 
ATOM     17  C   UNL     1       0.002  -0.004   0.002  0.00  0.00    +0.010 A 
ATOM     18  C   UNL     1       1.577  -2.056  -0.024  0.00  0.00    +0.040 A 
ATOM     19  C   UNL     1       2.933  -2.137  -0.038  0.00  0.00    +0.103 A 
ATOM     20  N   UNL     1       3.463  -0.861  -0.036  0.00  0.00    -0.351 N 
ATOM     21  H   UNL     1       4.408  -0.641  -0.045  0.00  0.00    +0.166 HD
ENDBRANCH   8  19
ENDBRANCH   1  10
BRANCH   4  22
ATOM     22  C   UNL     1       9.059  -7.186  -1.064  0.00  0.00    +0.022 C 
BRANCH  22  23
ATOM     23  C   UNL     1      10.449  -6.828  -0.604  0.00  0.00    +0.211 A 
ATOM     24  N   UNL     1      10.893  -6.915   0.617  0.00  0.00    -0.193 NA
ATOM     25  C   UNL     1      12.176  -6.516   0.671  0.00  0.00    +0.202 A 
ATOM     26  N   UNL     1      12.557  -6.169  -0.534  0.00  0.00    -0.056 NA
ATOM     27  O   UNL     1      11.438  -6.373  -1.384  0.00  0.00    -0.340 OA
BRANCH  25  28
ATOM     28  C   UNL     1      13.020  -6.474   1.891  0.00  0.00    +0.023 A 
ATOM     29  C   UNL     1      12.495  -6.877   3.118  0.00  0.00    +0.012 A 
ATOM     30  C   UNL     1      13.284  -6.836   4.249  0.00  0.00    +0.001 A 
ATOM     31  C   UNL     1      14.594  -6.397   4.167  0.00  0.00    +0.012 A 
ATOM     32  C   UNL     1      15.119  -5.997   2.952  0.00  0.00    +0.055 A 
ATOM     33  C   UNL     1      14.341  -6.039   1.813  0.00  0.00    +0.024 A 
BRANCH  32  34
ATOM     34  C   UNL     1      16.546  -5.519   2.871  0.00  0.00    +0.417 C 
ATOM     35  F   UNL     1      17.129  -5.571   4.142  0.00  0.00    -0.166 F 
ATOM     36  F   UNL     1      17.264  -6.341   1.995  0.00  0.00    -0.166 F 
ATOM     37  F   UNL     1      16.571  -4.202   2.400  0.00  0.00    -0.166 F 
ENDBRANCH  32  34
ENDBRANCH  25  28
ENDBRANCH  22  23
ENDBRANCH   4  22
TORSDOF 6
