REMARK  Name = ZINC01420749
REMARK  1 active torsions:
REMARK  status: ('A' for Active; 'I' for Inactive)
REMARK    1  A    between atoms: C_9  and  C_11
REMARK                            x       y       z     vdW  Elec       q    Type
REMARK                         _______ _______ _______ _____ _____    ______ ____
ROOT
ATOM      1  C   UNL     1       0.499  -0.380  -1.413  0.00  0.00    +0.004 C 
ATOM      2  C   UNL     1       0.002  -0.004   0.002  0.00  0.00    +0.004 C 
ATOM      3  C   UNL     1      -0.019   1.555   0.011  0.00  0.00    -0.001 C 
ATOM      4  C   UNL     1      -0.412   1.848  -1.480  0.00  0.00    +0.007 C 
ATOM      5  C   UNL     1       0.731   0.987  -2.126  0.00  0.00    -0.010 C 
ATOM      6  C   UNL     1       1.982   1.590  -1.416  0.00  0.00    +0.014 C 
ATOM      7  C   UNL     1       1.485   1.966  -0.002  0.00  0.00    +0.055 C 
ENDROOT
BRANCH   7   8
ATOM      8  C   UNL     1       1.627   3.449   0.228  0.00  0.00    +0.227 C 
ATOM      9  O   UNL     1       2.249   3.856   1.179  0.00  0.00    -0.301 OA
ENDBRANCH   7   8
TORSDOF 1
