REMARK  Name = ZINC35226824
REMARK  11 active torsions:
REMARK  status: ('A' for Active; 'I' for Inactive)
REMARK    1  A    between atoms: C_1  and  C_2
REMARK    2  A    between atoms: C_7  and  C_8
REMARK    3  A    between atoms: C_8  and  N_9
REMARK    4  A    between atoms: N_9  and  C_10
REMARK    5  A    between atoms: N_9  and  C_31
REMARK    6  A    between atoms: C_10  and  C_11
REMARK    7  A    between atoms: C_14  and  C_16
REMARK    8  A    between atoms: N_21  and  C_24
REMARK    9  A    between atoms: C_31  and  C_32
REMARK   10  A    between atoms: C_31  and  C_33
REMARK   11  A    between atoms: C_31  and  C_34
REMARK                            x       y       z     vdW  Elec       q    Type
REMARK                         _______ _______ _______ _____ _____    ______ ____
ROOT
ATOM      1  C   UNL     1      -2.564   0.778   3.864  0.00  0.00    +0.090 A 
ATOM      2  C   UNL     1      -3.531  -0.138   4.092  0.00  0.00    +0.043 A 
ATOM      3  C   UNL     1      -4.758   0.471   3.783  0.00  0.00    +0.055 A 
ATOM      4  C   UNL     1      -4.473   1.743   3.377  0.00  0.00    +0.190 A 
ATOM      5  O   UNL     1      -3.136   1.912   3.438  0.00  0.00    -0.457 OA
ENDROOT
BRANCH   4   6
ATOM      6  C   UNL     1      -5.451   2.751   2.953  0.00  0.00    +0.282 C 
ATOM      7  O   UNL     1      -6.642   2.537   3.083  0.00  0.00    -0.267 OA
ATOM      8  N   UNL     1      -5.030   3.915   2.420  0.00  0.00    -0.292 N 
ATOM      9  C   UNL     1      -5.986   4.992   2.124  0.00  0.00    +0.127 C 
ATOM     10  C   UNL     1      -5.525   6.267   2.840  0.00  0.00    +0.124 C 
ATOM     11  N   UNL     1      -4.101   6.483   2.544  0.00  0.00    -0.326 N 
ATOM     12  C   UNL     1      -3.145   5.407   2.839  0.00  0.00    +0.124 C 
ATOM     13  C   UNL     1      -3.606   4.133   2.128  0.00  0.00    +0.127 C 
BRANCH  11  14
ATOM     14  C   UNL     1      -3.665   7.690   1.990  0.00  0.00    +0.048 A 
ATOM     15  C   UNL     1      -3.281   8.736   2.819  0.00  0.00    +0.024 A 
ATOM     16  C   UNL     1      -2.849   9.928   2.269  0.00  0.00    +0.002 A 
ATOM     17  C   UNL     1      -2.801  10.080   0.895  0.00  0.00    +0.002 A 
ATOM     18  C   UNL     1      -3.183   9.041   0.067  0.00  0.00    +0.022 A 
ATOM     19  C   UNL     1      -3.610   7.844   0.610  0.00  0.00    +0.062 A 
ATOM     20 CL   UNL     1      -4.083   6.537  -0.430  0.00  0.00    -0.082 Cl
ENDBRANCH  11  14
ENDBRANCH   4   6
BRANCH   1  21
ATOM     21  C   UNL     1      -1.086   0.562   4.063  0.00  0.00    -0.002 C 
BRANCH  21  22
ATOM     22  N   UNL     1      -0.542  -0.183   2.920  0.00  0.00    +0.390 N 
ATOM     23  H   UNL     1      -1.094  -1.015   2.767  0.00  0.00    -0.080 HD
BRANCH  22  24
ATOM     24  C   UNL     1      -0.587   0.661   1.719  0.00  0.00    -0.073 C 
ATOM     25  C   UNL     1       0.396   0.121   0.678  0.00  0.00    -0.010 C 
ATOM     26  C   UNL     1      -2.002   0.647   1.138  0.00  0.00    -0.010 C 
ATOM     27  C   UNL     1      -0.201   2.095   2.089  0.00  0.00    -0.010 C 
ENDBRANCH  22  24
BRANCH  22  28
ATOM     28  C   UNL     1       0.849  -0.563   3.200  0.00  0.00    -0.041 C 
BRANCH  28  35
ATOM     29  C   UNL     1       0.063  -3.334   2.971  0.00  0.00    +0.044 C 
ATOM     30  C   UNL     1       0.514  -2.786   4.301  0.00  0.00    -0.049 A 
ATOM     31  C   UNL     1       0.558  -3.611   5.410  0.00  0.00    +0.003 A 
ATOM     32  C   UNL     1       0.973  -3.108   6.628  0.00  0.00    +0.000 A 
ATOM     33  C   UNL     1       1.344  -1.781   6.739  0.00  0.00    +0.000 A 
ATOM     34  C   UNL     1       1.301  -0.957   5.630  0.00  0.00    +0.002 A 
ATOM     35  C   UNL     1       0.891  -1.460   4.410  0.00  0.00    -0.061 A 
ENDBRANCH  28  35
ENDBRANCH  22  28
ENDBRANCH  21  22
ENDBRANCH   1  21
TORSDOF 7
