REMARK  Name = ZINC03881962
REMARK  11 active torsions:
REMARK  status: ('A' for Active; 'I' for Inactive)
REMARK    1  A    between atoms: C_3  and  O_33
REMARK    2  A    between atoms: C_6  and  C_7
REMARK    3  A    between atoms: C_8  and  C_9
REMARK    4  A    between atoms: C_11  and  O_32
REMARK    5  A    between atoms: C_13  and  O_15
REMARK    6  A    between atoms: O_15  and  C_16
REMARK    7  A    between atoms: C_18  and  O_31
REMARK    8  A    between atoms: C_20  and  O_30
REMARK    9  A    between atoms: C_22  and  O_29
REMARK   10  A    between atoms: C_24  and  C_27
REMARK   11  A    between atoms: C_27  and  O_28
REMARK                            x       y       z     vdW  Elec       q    Type
REMARK                         _______ _______ _______ _____ _____    ______ ____
ROOT
ATOM      1  C   UNL     1       1.116   3.630   0.011  0.00  0.00    -0.018 A 
ATOM      2  C   UNL     1      -0.102   4.314   0.020  0.00  0.00    +0.053 A 
ATOM      3  C   UNL     1      -0.116   5.699   0.033  0.00  0.00    +0.121 A 
ATOM      4  C   UNL     1       1.078   6.407   0.026  0.00  0.00    +0.091 A 
ATOM      5  C   UNL     1       2.290   5.732   0.011  0.00  0.00    +0.128 A 
ATOM      6  C   UNL     1       2.314   4.347   0.003  0.00  0.00    +0.054 A 
ENDROOT
BRANCH   1   8
ATOM      7  C   UNL     1      -0.018   1.469   0.010  0.00  0.00    +0.008 C 
ATOM      8  C   UNL     1       1.136   2.156   0.003  0.00  0.00    +0.009 C 
BRANCH   7  14
ATOM      9  C   UNL     1       1.221  -0.689  -0.019  0.00  0.00    +0.011 A 
ATOM     10  C   UNL     1       1.234  -2.067  -0.021  0.00  0.00    +0.046 A 
ATOM     11  C   UNL     1       0.040  -2.775  -0.013  0.00  0.00    +0.117 A 
ATOM     12  C   UNL     1      -1.174  -2.099   0.002  0.00  0.00    +0.046 A 
ATOM     13  C   UNL     1      -1.198  -0.722   0.010  0.00  0.00    +0.011 A 
ATOM     14  C   UNL     1       0.002  -0.004   0.002  0.00  0.00    -0.025 A 
BRANCH  11  15
ATOM     15  O   UNL     1       0.058  -4.133  -0.020  0.00  0.00    -0.507 OA
ATOM     16  H   UNL     1       0.055  -4.522  -0.905  0.00  0.00    +0.292 HD
ENDBRANCH  11  15
ENDBRANCH   7  14
ENDBRANCH   1   8
BRANCH   3  17
ATOM     17  O   UNL     1      -1.300   6.365   0.048  0.00  0.00    -0.507 OA
ATOM     18  H   UNL     1      -1.651   6.563  -0.831  0.00  0.00    +0.292 HD
ENDBRANCH   3  17
BRANCH   5  19
ATOM     19  O   UNL     1       3.456   6.431   0.003  0.00  0.00    -0.461 OA
BRANCH  19  20
ATOM     20  C   UNL     1       3.357   7.856   0.012  0.00  0.00    +0.339 C 
ATOM     21  C   UNL     1       4.758   8.464   0.126  0.00  0.00    +0.214 C 
ATOM     22  C   UNL     1       5.582   8.062  -1.101  0.00  0.00    +0.180 C 
ATOM     23  C   UNL     1       4.851   8.521  -2.366  0.00  0.00    +0.177 C 
ATOM     24  C   UNL     1       3.446   7.911  -2.384  0.00  0.00    +0.179 C 
ATOM     25  O   UNL     1       2.745   8.299  -1.201  0.00  0.00    -0.331 OA
BRANCH  23  26
ATOM     26  O   UNL     1       4.752   9.947  -2.370  0.00  0.00    -0.386 OA
ATOM     27  H   UNL     1       5.606  10.400  -2.359  0.00  0.00    +0.210 HD
ENDBRANCH  23  26
BRANCH  22  28
ATOM     28  O   UNL     1       6.868   8.683  -1.040  0.00  0.00    -0.386 OA
ATOM     29  H   UNL     1       7.387   8.437  -0.262  0.00  0.00    +0.210 HD
ENDBRANCH  22  28
BRANCH  21  30
ATOM     30  O   UNL     1       5.394   7.977   1.310  0.00  0.00    -0.383 OA
ATOM     31  H   UNL     1       4.923   8.191   2.126  0.00  0.00    +0.210 HD
ENDBRANCH  21  30
BRANCH  24  32
ATOM     32  C   UNL     1       2.688   8.413  -3.615  0.00  0.00    +0.190 C 
BRANCH  32  33
ATOM     33  O   UNL     1       1.421   7.756  -3.694  0.00  0.00    -0.392 OA
ATOM     34  H   UNL     1       0.885   8.026  -4.452  0.00  0.00    +0.210 HD
ENDBRANCH  32  33
ENDBRANCH  24  32
ENDBRANCH  19  20
ENDBRANCH   5  19
TORSDOF 11
