REMARK  Name = ZINC48300035
REMARK  8 active torsions:
REMARK  status: ('A' for Active; 'I' for Inactive)
REMARK    1  A    between atoms: C_4  and  C_7
REMARK    2  A    between atoms: C_7  and  C_9
REMARK    3  A    between atoms: C_7  and  N_23
REMARK    4  A    between atoms: C_9  and  C_10
REMARK    5  A    between atoms: N_12  and  C_13
REMARK    6  A    between atoms: C_13  and  C_14
REMARK    7  A    between atoms: C_17  and  S_19
REMARK    8  A    between atoms: S_19  and  N_22
REMARK                            x       y       z     vdW  Elec       q    Type
REMARK                         _______ _______ _______ _____ _____    ______ ____
ROOT
ATOM      1  C   UNL     1       5.519  -1.786  -1.347  0.00  0.00    +0.215 C 
ATOM      2  O   UNL     1       6.143  -1.730  -0.308  0.00  0.00    -0.276 OA
ATOM      3  N   UNL     1       6.087  -2.322  -2.446  0.00  0.00    -0.311 N 
ATOM      4  H   UNL     1       5.588  -2.366  -3.276  0.00  0.00    +0.149 HD
ENDROOT
BRANCH   1   5
ATOM      5  C   UNL     1       4.110  -1.256  -1.409  0.00  0.00    +0.123 C 
BRANCH   5   6
ATOM      6  C   UNL     1       3.711  -0.707  -0.038  0.00  0.00    +0.113 C 
BRANCH   6   7
ATOM      7  N   UNL     1       3.671  -1.803   0.934  0.00  0.00    -0.292 N 
ATOM      8  C   UNL     1       3.868  -1.550   2.243  0.00  0.00    +0.298 C 
ATOM      9  O   UNL     1       3.989  -0.404   2.630  0.00  0.00    -0.253 OA
ATOM     10  N   UNL     1       3.931  -2.568   3.124  0.00  0.00    -0.313 N 
ATOM     11  H   UNL     1       3.502  -2.710   0.635  0.00  0.00    +0.151 HD
ATOM     12  H   UNL     1       3.835  -3.483   2.816  0.00  0.00    +0.146 HD
ATOM     13  H   UNL     1       4.073  -2.386   4.066  0.00  0.00    +0.146 HD
ENDBRANCH   6   7
BRANCH   6  17
ATOM     14  C   UNL     1      -0.147   1.107  -0.296  0.00  0.00    +0.000 A 
ATOM     15  C   UNL     1      -0.029  -0.270  -0.313  0.00  0.00    +0.000 A 
ATOM     16  C   UNL     1       1.220  -0.857  -0.229  0.00  0.00    +0.005 A 
ATOM     17  C   UNL     1       2.350  -0.067  -0.129  0.00  0.00    -0.027 A 
ATOM     18  C   UNL     1       2.231   1.310  -0.114  0.00  0.00    +0.005 A 
ATOM     19  C   UNL     1       0.983   1.897  -0.195  0.00  0.00    +0.000 A 
ENDBRANCH   6  17
ENDBRANCH   5   6
ENDBRANCH   1   5
BRANCH   3  20
ATOM     20  C   UNL     1       7.457  -2.837  -2.386  0.00  0.00    +0.146 C 
BRANCH  20  21
ATOM     21  C   UNL     1       7.850  -3.378  -3.736  0.00  0.00    +0.009 A 
ATOM     22  C   UNL     1       8.446  -2.737  -4.772  0.00  0.00    +0.015 A 
ATOM     23  C   UNL     1       8.716  -3.442  -5.930  0.00  0.00    +0.036 A 
ATOM     24  C   UNL     1       8.377  -4.753  -5.996  0.00  0.00    +0.142 A 
ATOM     25  S   UNL     1       7.658  -5.030  -4.385  0.00  0.00    -0.072 S 
BRANCH  24  26
ATOM     26  S   UNL     1       8.596  -5.890  -7.324  0.00  0.00    +0.062 S 
ATOM     27  O   UNL     1       7.625  -6.913  -7.147  0.00  0.00    -0.153 OA
ATOM     28  O   UNL     1       8.678  -5.115  -8.512  0.00  0.00    -0.153 OA
BRANCH  26  29
ATOM     29  N   UNL     1      10.077  -6.602  -7.120  0.00  0.00    -0.203 NA
ATOM     30  H   UNL     1      10.226  -7.508  -7.432  0.00  0.00    +0.144 HD
ATOM     31  H   UNL     1      10.795  -6.113  -6.689  0.00  0.00    +0.144 HD
ENDBRANCH  26  29
ENDBRANCH  24  26
ENDBRANCH  20  21
ENDBRANCH   3  20
TORSDOF 8
