REMARK  Name = ZINC28696443
REMARK  15 active torsions:
REMARK  status: ('A' for Active; 'I' for Inactive)
REMARK    1  A    between atoms: C_1  and  C_2
REMARK    2  A    between atoms: C_2  and  C_3
REMARK    3  A    between atoms: C_3  and  C_5
REMARK    4  A    between atoms: C_3  and  C_6
REMARK    5  A    between atoms: C_6  and  C_8
REMARK    6  A    between atoms: C_6  and  N_25
REMARK    7  A    between atoms: N_10  and  C_11
REMARK    8  A    between atoms: C_11  and  C_12
REMARK    9  A    between atoms: C_12  and  C_13
REMARK   10  A    between atoms: C_14  and  C_24
REMARK   11  A    between atoms: C_16  and  C_20
REMARK   12  A    between atoms: C_18  and  C_19
REMARK   13  A    between atoms: C_20  and  C_21
REMARK   14  A    between atoms: C_20  and  C_22
REMARK   15  A    between atoms: C_20  and  C_23
REMARK                            x       y       z     vdW  Elec       q    Type
REMARK                         _______ _______ _______ _____ _____    ______ ____
ROOT
ATOM      1  C   UNL     1      -2.139  -0.048   1.253  0.00  0.00    +0.234 C 
ATOM      2  O   UNL     1      -2.259  -0.783   2.210  0.00  0.00    -0.274 OA
ATOM      3  N   UNL     1      -2.636   1.204   1.298  0.00  0.00    -0.313 N 
ATOM      4  H   UNL     1      -2.527   1.871   0.430  0.00  0.00    +0.149 HD
ENDROOT
BRANCH   1   5
ATOM      5  C   UNL     1      -1.433  -0.534   0.013  0.00  0.00    +0.163 C 
BRANCH   5   6
ATOM      6  N   UNL     1      -1.413  -1.998   0.005  0.00  0.00    -0.288 N 
ATOM      7  C   UNL     1      -0.811  -2.670   1.006  0.00  0.00    +0.298 C 
ATOM      8  O   UNL     1      -0.284  -2.060   1.917  0.00  0.00    -0.253 OA
ATOM      9  N   UNL     1      -0.793  -4.017   0.999  0.00  0.00    -0.313 N 
ATOM     10  H   UNL     1      -1.890  -2.550  -0.819  0.00  0.00    +0.151 HD
ATOM     11  H   UNL     1      -0.301  -4.565   1.816  0.00  0.00    +0.146 HD
ATOM     12  H   UNL     1      -1.270  -4.569   0.175  0.00  0.00    +0.146 HD
ENDBRANCH   5   6
BRANCH   5  13
ATOM     13  C   UNL     1       0.002  -0.004   0.002  0.00  0.00    +0.015 C 
ATOM     14  C   UNL     1      -0.019   1.526   0.010  0.00  0.00    +0.010 C 
BRANCH  13  16
ATOM     15  C   UNL     1       2.187  -0.073  -1.207  0.00  0.00    +0.004 C 
ATOM     16  C   UNL     1       0.718  -0.497  -1.257  0.00  0.00    +0.002 C 
ENDBRANCH  13  16
ENDBRANCH   5  13
ENDBRANCH   1   5
BRANCH   3  17
ATOM     17  C   UNL     1      -3.322   1.677   2.504  0.00  0.00    +0.109 C 
BRANCH  17  18
ATOM     18  C   UNL     1      -3.785   3.120   2.294  0.00  0.00    +0.054 C 
BRANCH  18  19
ATOM     19  C   UNL     1      -4.490   3.606   3.534  0.00  0.00    -0.040 A 
ATOM     20  C   UNL     1      -5.856   3.436   3.664  0.00  0.00    -0.047 A 
ATOM     21  C   UNL     1      -6.502   3.877   4.803  0.00  0.00    +0.007 A 
ATOM     22  C   UNL     1      -5.785   4.498   5.808  0.00  0.00    -0.041 A 
ATOM     23  C   UNL     1      -4.420   4.673   5.676  0.00  0.00    +0.007 A 
ATOM     24  C   UNL     1      -3.773   4.226   4.539  0.00  0.00    -0.047 A 
ATOM     25  C   UNL     1      -2.285   4.417   4.395  0.00  0.00    +0.044 C 
ATOM     26  C   UNL     1      -6.640   2.765   2.565  0.00  0.00    +0.044 C 
BRANCH  22  27
ATOM     27  C   UNL     1      -6.490   4.984   7.048  0.00  0.00    -0.013 C 
ATOM     28  C   UNL     1      -6.296   6.496   7.186  0.00  0.00    +0.015 C 
ATOM     29  C   UNL     1      -7.984   4.670   6.941  0.00  0.00    +0.015 C 
ATOM     30  C   UNL     1      -5.907   4.281   8.275  0.00  0.00    +0.015 C 
ENDBRANCH  22  27
ENDBRANCH  18  19
ENDBRANCH  17  18
ENDBRANCH   3  17
TORSDOF 8
