REMARK  Name = ZINC09841336
REMARK  19 active torsions:
REMARK  status: ('A' for Active; 'I' for Inactive)
REMARK    1  A    between atoms: C_1  and  C_2
REMARK    2  A    between atoms: C_3  and  C_28
REMARK    3  A    between atoms: C_4  and  C_27
REMARK    4  A    between atoms: C_9  and  S_11
REMARK    5  A    between atoms: S_11  and  C_12
REMARK    6  A    between atoms: C_12  and  C_13
REMARK    7  A    between atoms: N_15  and  C_16
REMARK    8  A    between atoms: C_16  and  C_17
REMARK    9  A    between atoms: C_17  and  C_18
REMARK   10  A    between atoms: C_18  and  N_75
REMARK   11  A    between atoms: C_19  and  C_20
REMARK   12  A    between atoms: C_19  and  N_75
REMARK   13  A    between atoms: C_20  and  C_21
REMARK   14  A    between atoms: C_20  and  C_22
REMARK   15  A    between atoms: C_23  and  C_24
REMARK   16  A    between atoms: C_23  and  N_75
REMARK   17  A    between atoms: C_24  and  C_25
REMARK   18  A    between atoms: C_24  and  C_26
REMARK   19  A    between atoms: C_28  and  C_29
REMARK                            x       y       z     vdW  Elec       q    Type
REMARK                         _______ _______ _______ _____ _____    ______ ____
ROOT
ATOM      1  S   UNL     1       1.424  -2.326  -0.129  0.00  0.00    -0.075 S 
ENDROOT
BRANCH   1  10
ATOM      2  C   UNL     1      -5.351   0.761   1.208  0.00  0.00    +0.066 C 
ATOM      3  C   UNL     1      -3.884   0.662   0.878  0.00  0.00    +0.047 A 
ATOM      4  C   UNL     1      -3.149   1.823   0.613  0.00  0.00    -0.001 A 
ATOM      5  C   UNL     1      -1.828   1.719   0.312  0.00  0.00    +0.049 A 
ATOM      6  N   UNL     1      -1.256   0.487   0.275  0.00  0.00    -0.200 N 
ATOM      7  C   UNL     1      -2.001  -0.627   0.539  0.00  0.00    +0.254 A 
ATOM      8  N   UNL     1      -3.300  -0.515   0.836  0.00  0.00    -0.216 NA
ATOM      9  N   UNL     1      -1.194  -1.678   0.434  0.00  0.00    -0.183 NA
ATOM     10  C   UNL     1       0.033  -1.271   0.114  0.00  0.00    +0.211 A 
ATOM     11  N   UNL     1       0.045   0.042   0.005  0.00  0.00    -0.137 NA
ATOM     12  C   UNL     1      -1.011   2.951   0.021  0.00  0.00    +0.066 C 
BRANCH   4  13
ATOM     13  C   UNL     1      -3.815   3.174   0.661  0.00  0.00    +0.073 C 
BRANCH  13  14
ATOM     14  C   UNL     1      -3.836   3.674   2.083  0.00  0.00    -0.043 A 
ATOM     15  C   UNL     1      -4.918   3.398   2.897  0.00  0.00    +0.004 A 
ATOM     16  C   UNL     1      -4.935   3.852   4.203  0.00  0.00    +0.000 A 
ATOM     17  C   UNL     1      -3.873   4.590   4.691  0.00  0.00    +0.000 A 
ATOM     18  C   UNL     1      -2.793   4.871   3.875  0.00  0.00    +0.000 A 
ATOM     19  C   UNL     1      -2.774   4.412   2.571  0.00  0.00    +0.004 A 
ENDBRANCH  13  14
ENDBRANCH   4  13
ENDBRANCH   1  10
BRANCH   1  20
ATOM     20  C   UNL     1       0.767  -3.992   0.159  0.00  0.00    +0.173 C 
BRANCH  20  21
ATOM     21  C   UNL     1       1.869  -5.004  -0.019  0.00  0.00    +0.223 C 
ATOM     22  O   UNL     1       2.987  -4.638  -0.311  0.00  0.00    -0.275 OA
ATOM     23  N   UNL     1       1.611  -6.317   0.147  0.00  0.00    -0.315 N 
ATOM     24  H   UNL     1       0.717  -6.610   0.380  0.00  0.00    +0.149 HD
BRANCH  23  25
ATOM     25  C   UNL     1       2.683  -7.301  -0.026  0.00  0.00    +0.102 C 
BRANCH  25  26
ATOM     26  C   UNL     1       2.129  -8.706   0.216  0.00  0.00    +0.000 C 
BRANCH  26  27
ATOM     27  C   UNL     1       3.248  -9.734   0.036  0.00  0.00    -0.077 C 
BRANCH  27  28
ATOM     28  N   UNL     1       2.702 -11.083   0.294  0.00  0.00    +0.380 N 
ATOM     29  H   UNL     1       2.219 -11.080   1.200  0.00  0.00    -0.082 HD
BRANCH  28  30
ATOM     30  C   UNL     1       1.736 -11.448  -0.763  0.00  0.00    -0.076 C 
BRANCH  30  31
ATOM     31  C   UNL     1       0.925 -12.657  -0.292  0.00  0.00    -0.034 C 
ATOM     32  C   UNL     1       0.140 -12.284   0.968  0.00  0.00    +0.005 C 
ATOM     33  C   UNL     1      -0.050 -13.078  -1.394  0.00  0.00    +0.005 C 
ENDBRANCH  30  31
ENDBRANCH  28  30
BRANCH  28  34
ATOM     34  C   UNL     1       3.800 -12.072   0.339  0.00  0.00    -0.076 C 
BRANCH  34  35
ATOM     35  C   UNL     1       4.518 -11.947   1.684  0.00  0.00    -0.034 C 
ATOM     36  C   UNL     1       3.545 -12.288   2.815  0.00  0.00    +0.005 C 
ATOM     37  C   UNL     1       5.702 -12.915   1.722  0.00  0.00    +0.005 C 
ENDBRANCH  34  35
ENDBRANCH  28  34
ENDBRANCH  27  28
ENDBRANCH  26  27
ENDBRANCH  25  26
ENDBRANCH  23  25
ENDBRANCH  20  21
ENDBRANCH   1  20
TORSDOF 13
