REMARK  Name = ZINC62826915
REMARK  6 active torsions:
REMARK  status: ('A' for Active; 'I' for Inactive)
REMARK    1  A    between atoms: C_3  and  C_18
REMARK    2  A    between atoms: C_4  and  N_8
REMARK    3  A    between atoms: C_9  and  C_11
REMARK    4  A    between atoms: C_11  and  C_13
REMARK    5  A    between atoms: C_11  and  N_17
REMARK    6  A    between atoms: C_13  and  C_14
REMARK                            x       y       z     vdW  Elec       q    Type
REMARK                         _______ _______ _______ _____ _____    ______ ____
ROOT
ATOM      1  N   UNL     1       3.622  -0.658  -0.059  0.00  0.00    -0.285 N 
ATOM      2  C   UNL     1       3.654  -1.993   0.125  0.00  0.00    +0.203 C 
ATOM      3  O   UNL     1       2.618  -2.616   0.223  0.00  0.00    -0.277 OA
ATOM      4  H   UNL     1       4.446  -0.170  -0.215  0.00  0.00    +0.155 HD
ENDROOT
BRANCH   1   8
ATOM      5  C   UNL     1      -0.018   1.376   0.044  0.00  0.00    +0.002 A 
ATOM      6  C   UNL     1       1.032   1.831   0.812  0.00  0.00    +0.017 A 
ATOM      7  C   UNL     1       2.257   1.158   0.787  0.00  0.00    +0.085 A 
ATOM      8  C   UNL     1       2.408   0.021  -0.024  0.00  0.00    +0.062 A 
ATOM      9  C   UNL     1       1.338  -0.422  -0.791  0.00  0.00    +0.040 A 
ATOM     10  C   UNL     1       0.134   0.254  -0.755  0.00  0.00    +0.017 A 
ATOM     11 BR   UNL     1       1.530  -1.952  -1.885  0.00  0.00    -0.048 Br
BRANCH   7  12
ATOM     12  C   UNL     1       3.383   1.639   1.604  0.00  0.00    +0.388 C 
ATOM     13  O   UNL     1       3.282   2.687   2.227  0.00  0.00    -0.241 OA
ATOM     14  O   UNL     1       4.419   0.990   1.660  0.00  0.00    -0.241 OA
ENDBRANCH   7  12
ENDBRANCH   1   8
BRANCH   2  15
ATOM     15  C   UNL     1       4.976  -2.711   0.208  0.00  0.00    +0.022 C 
BRANCH  15  16
ATOM     16  N   UNL     1       4.787  -4.010   0.868  0.00  0.00    +0.386 N 
ATOM     17  H   UNL     1       5.672  -4.491   0.924  0.00  0.00    -0.089 HD
ATOM     18  H   UNL     1       4.423  -3.865   1.798  0.00  0.00    -0.089 HD
ATOM     19  H   UNL     1       4.135  -4.566   0.335  0.00  0.00    -0.089 HD
ENDBRANCH  15  16
BRANCH  15  20
ATOM     20  C   UNL     1       5.527  -2.930  -1.202  0.00  0.00    +0.088 C 
BRANCH  20  21
ATOM     21  C   UNL     1       6.904  -3.537  -1.115  0.00  0.00    +0.209 C 
ATOM     22  O   UNL     1       7.396  -3.771  -0.031  0.00  0.00    -0.276 OA
ATOM     23  N   UNL     1       7.588  -3.820  -2.241  0.00  0.00    -0.329 N 
ATOM     24  H   UNL     1       7.195  -3.633  -3.107  0.00  0.00    +0.145 HD
ATOM     25  H   UNL     1       8.474  -4.211  -2.184  0.00  0.00    +0.145 HD
ENDBRANCH  20  21
ENDBRANCH  15  20
ENDBRANCH   2  15
TORSDOF 6
