REMARK  Name = ZINC01079559
REMARK  9 active torsions:
REMARK  status: ('A' for Active; 'I' for Inactive)
REMARK    1  A    between atoms: C_1  and  C_2
REMARK    2  A    between atoms: C_7  and  C_8
REMARK    3  A    between atoms: C_10  and  C_23
REMARK    4  A    between atoms: C_11  and  N_22
REMARK    5  A    between atoms: C_18  and  C_20
REMARK    6  A    between atoms: C_18  and  C_21
REMARK    7  A    between atoms: C_28  and  C_33
REMARK    8  A    between atoms: C_28  and  C_34
REMARK    9  A    between atoms: C_30  and  C_32
REMARK                            x       y       z     vdW  Elec       q    Type
REMARK                         _______ _______ _______ _____ _____    ______ ____
ROOT
ATOM      1  C   UNL     1      -0.018   1.503   0.010  0.00  0.00    +0.044 C 
ATOM      2  C   UNL     1       0.002  -0.004   0.002  0.00  0.00    -0.047 A 
ATOM      3  C   UNL     1       0.005  -0.665  -1.218  0.00  0.00    +0.009 A 
ATOM      4  C   UNL     1       0.025  -2.038  -1.271  0.00  0.00    -0.022 A 
ATOM      5  C   UNL     1       0.041  -2.715  -0.052  0.00  0.00    +0.045 A 
ATOM      6  C   UNL     1       0.037  -2.058   1.171  0.00  0.00    +0.002 A 
ATOM      7  C   UNL     1       0.023  -0.681   1.220  0.00  0.00    -0.041 A 
ATOM      8  C   UNL     1       0.025   0.060   2.532  0.00  0.00    +0.044 C 
ATOM      9  C   UNL     1       0.052  -3.143   2.199  0.00  0.00    +0.145 C 
ATOM     10  C   UNL     1      -1.179  -3.095   3.056  0.00  0.00    +0.110 C 
ATOM     11  C   UNL     1      -1.105  -2.643   4.333  0.00  0.00    +0.199 C 
ATOM     12  O   UNL     1       0.062  -2.228   4.854  0.00  0.00    -0.445 OA
ATOM     13  C   UNL     1       1.231  -2.623   4.314  0.00  0.00    +0.116 C 
ATOM     14  C   UNL     1       1.297  -3.067   3.045  0.00  0.00    +0.058 C 
ATOM     15  C   UNL     1       2.519  -3.469   2.473  0.00  0.00    +0.165 C 
ATOM     16  O   UNL     1       2.538  -3.872   1.327  0.00  0.00    -0.292 OA
ATOM     17  C   UNL     1       3.803  -3.408   3.256  0.00  0.00    +0.086 C 
ATOM     18  C   UNL     1       3.695  -2.292   4.300  0.00  0.00    -0.021 C 
ATOM     19  C   UNL     1       2.470  -2.562   5.176  0.00  0.00    +0.081 C 
ATOM     20  C   UNL     1       4.954  -2.276   5.168  0.00  0.00    +0.012 C 
ATOM     21  C   UNL     1       3.534  -0.943   3.595  0.00  0.00    +0.012 C 
ATOM     22  C   UNL     1       0.068  -4.434   1.395  0.00  0.00    +0.241 C 
ATOM     23  O   UNL     1       0.081  -5.560   1.846  0.00  0.00    -0.273 OA
ATOM     24  N   UNL     1       0.065  -4.099   0.095  0.00  0.00    -0.264 N 
ATOM     25  C   UNL     1       0.084  -4.972  -1.093  0.00  0.00    +0.037 C 
ATOM     26  C   UNL     1       0.737  -4.203  -2.247  0.00  0.00    +0.033 C 
ATOM     27  C   UNL     1       0.028  -2.872  -2.518  0.00  0.00    +0.020 C 
ATOM     28  C   UNL     1       0.762  -2.121  -3.631  0.00  0.00    +0.012 C 
ATOM     29  C   UNL     1      -1.347  -5.355  -1.474  0.00  0.00    +0.032 C 
ATOM     30  C   UNL     1       0.893  -6.234  -0.791  0.00  0.00    +0.032 C 
ENDROOT
BRANCH  11  31
ATOM     31  N   UNL     1      -2.240  -2.608   5.105  0.00  0.00    -0.328 N 
ATOM     32  H   UNL     1      -3.086  -2.905   4.736  0.00  0.00    +0.145 HD
ATOM     33  H   UNL     1      -2.195  -2.286   6.019  0.00  0.00    +0.145 HD
ENDBRANCH  11  31
BRANCH  10  34
ATOM     34  C   UNL     1      -2.436  -3.528   2.524  0.00  0.00    +0.102 C 
ATOM     35  N   UNL     1      -3.433  -3.872   2.102  0.00  0.00    -0.191 NA
ENDBRANCH  10  34
TORSDOF 2
