REMARK  Name = ZINC55042411
REMARK  11 active torsions:
REMARK  status: ('A' for Active; 'I' for Inactive)
REMARK    1  A    between atoms: C_1  and  C_2
REMARK    2  A    between atoms: C_2  and  C_3
REMARK    3  A    between atoms: C_3  and  C_4
REMARK    4  A    between atoms: C_4  and  C_20
REMARK    5  A    between atoms: N_7  and  C_11
REMARK    6  A    between atoms: C_11  and  C_12
REMARK    7  A    between atoms: C_12  and  C_13
REMARK    8  A    between atoms: N_18  and  C_19
REMARK    9  A    between atoms: N_23  and  C_26
REMARK   10  A    between atoms: C_26  and  C_27
REMARK   11  A    between atoms: C_28  and  C_29
REMARK                            x       y       z     vdW  Elec       q    Type
REMARK                         _______ _______ _______ _____ _____    ______ ____
ROOT
ATOM      1  C   UNL     1      -2.353  -1.244  -1.689  0.00  0.00    +0.115 C 
ATOM      2  C   UNL     1      -1.419  -1.279  -0.495  0.00  0.00    +0.247 C 
ATOM      3  O   UNL     1      -1.682  -0.975   0.648  0.00  0.00    -0.273 OA
ATOM      4  N   UNL     1      -0.238  -1.720  -0.970  0.00  0.00    -0.224 N 
ATOM      5  C   UNL     1      -0.294  -1.966  -2.284  0.00  0.00    +0.309 C 
ATOM      6  O   UNL     1       0.647  -2.372  -2.936  0.00  0.00    -0.252 OA
ATOM      7  N   UNL     1      -1.510  -1.714  -2.802  0.00  0.00    -0.285 N 
ATOM      8  H   UNL     1      -1.778  -1.820  -3.728  0.00  0.00    +0.151 HD
ENDROOT
BRANCH   1   9
ATOM      9  C   UNL     1      -3.539  -2.188  -1.477  0.00  0.00    +0.024 C 
ATOM     10  C   UNL     1      -4.423  -1.653  -0.347  0.00  0.00    +0.021 C 
ATOM     11  C   UNL     1      -5.573  -2.632  -0.099  0.00  0.00    +0.085 C 
ATOM     12  N   UNL     1      -5.028  -3.947   0.262  0.00  0.00    -0.297 NA
ATOM     13  C   UNL     1      -4.214  -4.502  -0.827  0.00  0.00    +0.085 C 
ATOM     14  C   UNL     1      -3.024  -3.579  -1.097  0.00  0.00    +0.021 C 
BRANCH  12  15
ATOM     15  C   UNL     1      -6.102  -4.875   0.642  0.00  0.00    +0.132 C 
BRANCH  15  16
ATOM     16  C   UNL     1      -6.594  -4.534   2.025  0.00  0.00    +0.033 C 
ATOM     17  C   UNL     1      -7.835  -4.096   2.198  0.00  0.00    +0.024 C 
ATOM     18 CL   UNL     1      -5.539  -4.715   3.391  0.00  0.00    -0.087 Cl
BRANCH  17  19
ATOM     19  C   UNL     1      -8.374  -3.924   3.563  0.00  0.00    -0.024 A 
ATOM     20  C   UNL     1      -9.255  -2.878   3.842  0.00  0.00    +0.008 A 
ATOM     21  C   UNL     1      -9.755  -2.724   5.119  0.00  0.00    +0.001 A 
ATOM     22  C   UNL     1      -9.385  -3.603   6.121  0.00  0.00    +0.000 A 
ATOM     23  C   UNL     1      -8.512  -4.642   5.851  0.00  0.00    +0.001 A 
ATOM     24  C   UNL     1      -8.009  -4.810   4.577  0.00  0.00    +0.008 A 
ENDBRANCH  17  19
ENDBRANCH  15  16
ENDBRANCH  12  15
ENDBRANCH   1   9
BRANCH   1  25
ATOM     25  C   UNL     1      -2.842   0.182  -1.949  0.00  0.00    +0.035 C 
BRANCH  25  27
ATOM     26  C   UNL     1      -2.131   2.516  -2.487  0.00  0.00    +0.004 C 
ATOM     27  C   UNL     1      -1.643   1.090  -2.228  0.00  0.00    -0.001 C 
ENDBRANCH  25  27
ENDBRANCH   1  25
BRANCH   4  28
ATOM     28  C   UNL     1       0.961  -1.906  -0.149  0.00  0.00    +0.116 C 
BRANCH  28  29
ATOM     29  C   UNL     1       0.981  -3.330   0.410  0.00  0.00    +0.004 C 
BRANCH  29  30
ATOM     30  C   UNL     1       2.293  -3.566   1.161  0.00  0.00    -0.068 C 
ATOM     31  C   UNL     1       2.361  -2.646   2.399  0.00  0.00    -0.017 C 
ATOM     32  C   UNL     1       3.025  -3.551   3.470  0.00  0.00    -0.020 C 
ATOM     33  C   UNL     1       2.426  -4.937   3.123  0.00  0.00    -0.079 C 
ATOM     34  N   UNL     1       2.352  -4.958   1.643  0.00  0.00    +0.380 N 
ATOM     35  C   UNL     1       1.146  -5.680   1.217  0.00  0.00    -0.096 C 
ATOM     36  H   UNL     1       3.170  -5.413   1.266  0.00  0.00    -0.082 HD
ENDBRANCH  29  30
ENDBRANCH  28  29
ENDBRANCH   4  28
TORSDOF 9
