REMARK  Name = ZINC03077722
REMARK  4 active torsions:
REMARK  status: ('A' for Active; 'I' for Inactive)
REMARK    1  A    between atoms: C_1  and  O_2
REMARK    2  A    between atoms: O_2  and  C_3
REMARK    3  A    between atoms: C_6  and  C_9
REMARK    4  A    between atoms: N_17  and  C_18
REMARK                            x       y       z     vdW  Elec       q    Type
REMARK                         _______ _______ _______ _____ _____    ______ ____
ROOT
ATOM      1  C   UNL     1       2.505  -2.503  -4.381  0.00  0.00    +0.191 C 
ATOM      2  N   UNL     1       1.851  -3.796  -4.660  0.00  0.00    -0.295 N 
ATOM      3  C   UNL     1       0.611  -3.756  -5.276  0.00  0.00    +0.189 C 
ATOM      4  N   UNL     1       0.479  -2.871  -6.341  0.00  0.00    -0.260 N 
ATOM      5  C   UNL     1       1.117  -1.640  -6.196  0.00  0.00    +0.181 C 
ATOM      6  N   UNL     1       2.364  -1.662  -5.584  0.00  0.00    -0.295 N 
ATOM      7  N   UNL     1       0.573  -0.531  -6.610  0.00  0.00    -0.272 NA
ATOM      8  N   UNL     1      -0.385  -4.512  -4.877  0.00  0.00    -0.219 NA
ATOM      9  H   UNL     1       2.272  -4.637  -4.423  0.00  0.00    +0.151 HD
ATOM     10  H   UNL     1       1.041   0.311  -6.495  0.00  0.00    +0.189 HD
ATOM     11  H   UNL     1       3.109  -1.148  -5.933  0.00  0.00    +0.151 HD
ATOM     12  H   UNL     1      -0.025  -3.097  -7.138  0.00  0.00    +0.157 HD
ENDROOT
BRANCH   8  13
ATOM     13  C   UNL     1      -1.596  -4.442  -5.514  0.00  0.00    +0.067 A 
ATOM     14  C   UNL     1      -2.149  -3.201  -5.834  0.00  0.00    +0.029 A 
ATOM     15  C   UNL     1      -3.369  -3.137  -6.475  0.00  0.00    +0.022 A 
ATOM     16  C   UNL     1      -4.045  -4.301  -6.801  0.00  0.00    +0.041 A 
ATOM     17  C   UNL     1      -3.501  -5.535  -6.486  0.00  0.00    +0.022 A 
ATOM     18  C   UNL     1      -2.279  -5.612  -5.851  0.00  0.00    +0.029 A 
ATOM     19 CL   UNL     1      -5.580  -4.212  -7.606  0.00  0.00    -0.084 Cl
ENDBRANCH   8  13
BRANCH   1  23
ATOM     20  C   UNL     1       0.606  -0.607  -1.056  0.00  0.00    +0.120 A 
ATOM     21  C   UNL     1       1.173   0.161  -2.062  0.00  0.00    +0.046 A 
ATOM     22  C   UNL     1       1.786  -0.455  -3.136  0.00  0.00    +0.010 A 
ATOM     23  C   UNL     1       1.835  -1.835  -3.209  0.00  0.00    -0.009 A 
ATOM     24  C   UNL     1       1.270  -2.602  -2.207  0.00  0.00    +0.010 A 
ATOM     25  C   UNL     1       0.661  -1.992  -1.128  0.00  0.00    +0.046 A 
BRANCH  20  27
ATOM     26  C   UNL     1      -0.017   1.425   0.010  0.00  0.00    +0.277 C 
ATOM     27  O   UNL     1       0.002  -0.004   0.002  0.00  0.00    -0.495 OA
ENDBRANCH  20  27
ENDBRANCH   1  23
TORSDOF 3
