REMARK  Name = ZINC64093584
REMARK  4 active torsions:
REMARK  status: ('A' for Active; 'I' for Inactive)
REMARK    1  A    between atoms: C_6  and  C_11
REMARK    2  A    between atoms: C_15  and  N_17
REMARK    3  A    between atoms: C_18  and  C_20
REMARK    4  A    between atoms: C_26  and  C_28
REMARK                            x       y       z     vdW  Elec       q    Type
REMARK                         _______ _______ _______ _____ _____    ______ ____
ROOT
ATOM      1  N   UNL     1       3.917  -5.987   3.677  0.00  0.00    -0.285 N 
ATOM      2  C   UNL     1       4.767  -6.673   4.467  0.00  0.00    +0.220 C 
ATOM      3  O   UNL     1       4.952  -6.317   5.612  0.00  0.00    -0.275 OA
ATOM      4  H   UNL     1       3.709  -6.314   2.788  0.00  0.00    +0.155 HD
ENDROOT
BRANCH   2   5
ATOM      5  C   UNL     1       5.487  -7.882   3.928  0.00  0.00    +0.078 C 
ATOM      6  C   UNL     1       4.463  -8.930   3.486  0.00  0.00    +0.032 C 
ATOM      7  C   UNL     1       5.198 -10.143   2.906  0.00  0.00    +0.108 C 
ATOM      8  N   UNL     1       6.167 -10.627   3.899  0.00  0.00    -0.301 N 
ATOM      9  C   UNL     1       7.139  -9.678   4.458  0.00  0.00    +0.108 C 
ATOM     10  C   UNL     1       6.383  -8.470   5.020  0.00  0.00    +0.032 C 
ATOM     11  C   UNL     1       6.163 -11.917   4.289  0.00  0.00    +0.219 C 
ATOM     12  O   UNL     1       6.900 -12.283   5.181  0.00  0.00    -0.275 OA
BRANCH  11  13
ATOM     13  C   UNL     1       5.244 -12.905   3.619  0.00  0.00    +0.079 C 
ATOM     14  C   UNL     1       5.187 -14.198   4.442  0.00  0.00    +0.017 C 
ATOM     15  C   UNL     1       4.116 -15.109   3.839  0.00  0.00    +0.027 C 
ATOM     16  C   UNL     1       4.312 -15.225   2.356  0.00  0.00    -0.031 C 
ATOM     17  C   UNL     1       5.032 -14.411   1.653  0.00  0.00    -0.030 C 
ATOM     18  C   UNL     1       5.777 -13.238   2.223  0.00  0.00    +0.039 C 
ENDBRANCH  11  13
ENDBRANCH   2   5
BRANCH   1  23
ATOM     19  C   UNL     1       1.477  -3.286   4.200  0.00  0.00    -0.020 A 
ATOM     20  C   UNL     1       2.182  -2.458   5.053  0.00  0.00    +0.006 A 
ATOM     21  C   UNL     1       3.462  -2.798   5.451  0.00  0.00    +0.002 A 
ATOM     22  C   UNL     1       4.040  -3.967   4.997  0.00  0.00    +0.023 A 
ATOM     23  C   UNL     1       3.334  -4.801   4.140  0.00  0.00    +0.034 A 
ATOM     24  C   UNL     1       2.047  -4.459   3.746  0.00  0.00    +0.029 A 
BRANCH  19  30
ATOM     25  C   UNL     1      -2.825  -0.273   6.247  0.00  0.00    +0.001 A 
ATOM     26  C   UNL     1      -2.260   0.695   5.405  0.00  0.00    +0.002 A 
ATOM     27  C   UNL     1      -1.327   0.399   4.476  0.00  0.00    +0.026 A 
ATOM     28  C   UNL     1      -0.873  -0.940   4.315  0.00  0.00    +0.043 A 
ATOM     29  N   UNL     1       0.006  -1.471   3.500  0.00  0.00    -0.374 N 
ATOM     30  C   UNL     1       0.082  -2.911   3.769  0.00  0.00    +0.133 C 
ATOM     31  C   UNL     1      -0.899  -3.177   4.889  0.00  0.00    +0.012 C 
ATOM     32  C   UNL     1      -1.454  -1.981   5.192  0.00  0.00    -0.004 A 
ATOM     33  C   UNL     1      -2.463  -1.574   6.177  0.00  0.00    +0.010 A 
ATOM     34  H   UNL     1       0.520  -0.992   2.831  0.00  0.00    +0.161 HD
ENDBRANCH  19  30
ENDBRANCH   1  23
TORSDOF 4
