REMARK  Name = ZINC39771608
REMARK  8 active torsions:
REMARK  status: ('A' for Active; 'I' for Inactive)
REMARK    1  A    between atoms: C_3  and  C_9
REMARK    2  A    between atoms: C_4  and  O_8
REMARK    3  A    between atoms: C_6  and  O_7
REMARK    4  A    between atoms: N_10  and  N_11
REMARK    5  A    between atoms: C_12  and  C_14
REMARK    6  A    between atoms: C_16  and  O_22
REMARK    7  A    between atoms: C_17  and  O_21
REMARK    8  A    between atoms: C_18  and  O_20
REMARK                            x       y       z     vdW  Elec       q    Type
REMARK                         _______ _______ _______ _____ _____    ______ ____
ROOT
ATOM      1  N   UNL     1       5.987   2.256  -0.044  0.00  0.00    -0.203 N 
ATOM      2  C   UNL     1       7.164   1.599  -0.059  0.00  0.00    +0.263 C 
ATOM      3  O   UNL     1       7.181   0.383  -0.065  0.00  0.00    -0.268 OA
ATOM      4  H   UNL     1       5.973   3.226  -0.039  0.00  0.00    +0.178 HD
ENDROOT
BRANCH   2   5
ATOM      5  C   UNL     1       8.431   2.355  -0.067  0.00  0.00    +0.045 A 
ATOM      6  C   UNL     1       8.413   3.752  -0.054  0.00  0.00    +0.062 A 
ATOM      7  C   UNL     1       9.601   4.458  -0.062  0.00  0.00    +0.163 A 
ATOM      8  C   UNL     1      10.816   3.778  -0.083  0.00  0.00    +0.201 A 
ATOM      9  C   UNL     1      10.837   2.386  -0.096  0.00  0.00    +0.163 A 
ATOM     10  C   UNL     1       9.652   1.675  -0.083  0.00  0.00    +0.062 A 
BRANCH   9  11
ATOM     11  O   UNL     1      12.026   1.724  -0.118  0.00  0.00    -0.503 OA
ATOM     12  H   UNL     1      12.380   1.525   0.759  0.00  0.00    +0.292 HD
ENDBRANCH   9  11
BRANCH   8  13
ATOM     13  O   UNL     1      11.983   4.474  -0.091  0.00  0.00    -0.501 OA
ATOM     14  H   UNL     1      12.332   4.667   0.790  0.00  0.00    +0.292 HD
ENDBRANCH   8  13
BRANCH   7  15
ATOM     15  O   UNL     1       9.584   5.818  -0.049  0.00  0.00    -0.503 OA
ATOM     16  H   UNL     1       9.590   6.203   0.838  0.00  0.00    +0.292 HD
ENDBRANCH   7  15
ENDBRANCH   2   5
BRANCH   1  18
ATOM     17  C   UNL     1       3.651   2.171  -0.022  0.00  0.00    +0.142 C 
ATOM     18  N   UNL     1       4.784   1.538  -0.036  0.00  0.00    -0.187 NA
BRANCH  17  21
ATOM     19  C   UNL     1      -0.017   1.385   0.010  0.00  0.00    +0.046 A 
ATOM     20  C   UNL     1       1.164   2.095   0.002  0.00  0.00    +0.016 A 
ATOM     21  C   UNL     1       2.386   1.417  -0.013  0.00  0.00    +0.036 A 
ATOM     22  C   UNL     1       2.402   0.014  -0.021  0.00  0.00    +0.129 A 
ATOM     23  C   UNL     1       1.210  -0.687  -0.013  0.00  0.00    +0.091 A 
ATOM     24  C   UNL     1       0.002  -0.004   0.002  0.00  0.00    +0.120 A 
BRANCH  24  25
ATOM     25  O   UNL     1      -1.167  -0.697   0.009  0.00  0.00    -0.507 OA
ATOM     26  H   UNL     1      -1.513  -0.892  -0.872  0.00  0.00    +0.292 HD
ENDBRANCH  24  25
BRANCH  22  27
ATOM     27  O   UNL     1       3.585  -0.653  -0.036  0.00  0.00    -0.506 OA
ATOM     28  H   UNL     1       3.936  -0.851   0.843  0.00  0.00    +0.292 HD
ENDBRANCH  22  27
ENDBRANCH  17  21
ENDBRANCH   1  18
TORSDOF 8
