REMARK  Name = ZINC66329949
REMARK  6 active torsions:
REMARK  status: ('A' for Active; 'I' for Inactive)
REMARK    1  A    between atoms: C_1  and  C_2
REMARK    2  A    between atoms: C_17  and  C_19
REMARK    3  A    between atoms: C_19  and  C_20
REMARK    4  A    between atoms: C_20  and  C_22
REMARK    5  A    between atoms: C_20  and  N_23
REMARK    6  A    between atoms: C_24  and  C_26
REMARK                            x       y       z     vdW  Elec       q    Type
REMARK                         _______ _______ _______ _____ _____    ______ ____
ROOT
ATOM      1  C   UNL     1      -0.019   1.526   0.010  0.00  0.00    +0.035 C 
ATOM      2  C   UNL     1       0.002  -0.004   0.002  0.00  0.00    +0.120 C 
ATOM      3  C   UNL     1       0.729  -0.501  -1.228  0.00  0.00    +0.041 A 
ATOM      4  C   UNL     1       1.954  -1.067  -1.191  0.00  0.00    -0.016 A 
ATOM      5  C   UNL     1       2.306  -1.402  -2.556  0.00  0.00    +0.003 A 
ATOM      6  C   UNL     1       3.437  -1.997  -3.125  0.00  0.00    +0.010 A 
ATOM      7  C   UNL     1       3.430  -2.166  -4.487  0.00  0.00    +0.001 A 
ATOM      8  C   UNL     1       2.360  -1.770  -5.273  0.00  0.00    +0.002 A 
ATOM      9  C   UNL     1       1.229  -1.178  -4.737  0.00  0.00    +0.026 A 
ATOM     10  C   UNL     1       1.208  -0.994  -3.356  0.00  0.00    +0.047 A 
ATOM     11  N   UNL     1       0.274  -0.455  -2.519  0.00  0.00    -0.356 N 
ATOM     12  H   UNL     1      -0.582  -0.093  -2.796  0.00  0.00    +0.166 HD
ATOM     13  C   UNL     1       2.760  -1.292   0.063  0.00  0.00    +0.056 C 
ATOM     14  C   UNL     1       2.201  -0.404   1.181  0.00  0.00    +0.113 C 
ATOM     15  N   UNL     1       0.733  -0.501   1.181  0.00  0.00    -0.293 N 
ATOM     16  C   UNL     1       0.073  -1.031   2.230  0.00  0.00    +0.218 C 
ATOM     17  O   UNL     1      -1.138  -1.103   2.211  0.00  0.00    -0.276 OA
ENDROOT
BRANCH  16  18
ATOM     18  C   UNL     1       0.840  -1.533   3.426  0.00  0.00    +0.118 C 
BRANCH  18  19
ATOM     19  C   UNL     1      -0.140  -2.080   4.466  0.00  0.00    +0.079 C 
ATOM     20  C   UNL     1       0.627  -2.475   5.730  0.00  0.00    +0.028 C 
BRANCH  19  21
ATOM     21  N   UNL     1      -0.824  -3.256   3.922  0.00  0.00    -0.312 N 
ATOM     22  C   UNL     1      -2.037  -3.608   4.393  0.00  0.00    +0.216 C 
ATOM     23  O   UNL     1      -2.562  -2.950   5.266  0.00  0.00    -0.276 OA
ATOM     24  H   UNL     1      -0.403  -3.782   3.224  0.00  0.00    +0.149 HD
BRANCH  22  25
ATOM     25  C   UNL     1      -2.740  -4.817   3.833  0.00  0.00    +0.075 C 
ATOM     26  C   UNL     1      -2.967  -4.627   2.332  0.00  0.00    +0.013 C 
ATOM     27  C   UNL     1      -3.681  -5.854   1.764  0.00  0.00    +0.001 C 
ATOM     28  C   UNL     1      -5.030  -6.030   2.465  0.00  0.00    +0.000 C 
ATOM     29  C   UNL     1      -4.803  -6.220   3.966  0.00  0.00    +0.001 C 
ATOM     30  C   UNL     1      -4.089  -4.992   4.534  0.00  0.00    +0.013 C 
ENDBRANCH  22  25
ENDBRANCH  19  21
ENDBRANCH  18  19
ENDBRANCH  16  18
TORSDOF 4
