REMARK  Name = ZINC09115009
REMARK  7 active torsions:
REMARK  status: ('A' for Active; 'I' for Inactive)
REMARK    1  A    between atoms: C_4  and  C_7
REMARK    2  A    between atoms: C_7  and  N_62
REMARK    3  A    between atoms: C_10  and  N_13
REMARK    4  A    between atoms: C_14  and  C_16
REMARK    5  A    between atoms: C_16  and  C_17
REMARK    6  A    between atoms: C_17  and  C_18
REMARK    7  A    between atoms: C_18  and  N_19
REMARK                            x       y       z     vdW  Elec       q    Type
REMARK                         _______ _______ _______ _____ _____    ______ ____
ROOT
ATOM      1  N   UNL     1      -0.011   0.966   0.007  0.00  0.00    -0.313 N 
ATOM      2  C   UNL     1       1.147   1.655   0.000  0.00  0.00    +0.213 C 
ATOM      3  O   UNL     1       1.130   2.868   0.007  0.00  0.00    -0.276 OA
ATOM      4  H   UNL     1       0.002  -0.004   0.002  0.00  0.00    +0.149 HD
ENDROOT
BRANCH   1   7
ATOM      5  C   UNL     1      -3.722   1.521  -0.524  0.00  0.00    -0.077 C 
ATOM      6  C   UNL     1      -2.378   0.793  -0.592  0.00  0.00    +0.003 C 
ATOM      7  C   UNL     1      -1.290   1.681   0.017  0.00  0.00    +0.069 C 
ATOM      8  C   UNL     1      -1.672   2.026   1.459  0.00  0.00    +0.003 C 
ATOM      9  C   UNL     1      -3.037   2.718   1.469  0.00  0.00    -0.077 C 
ATOM     10  N   UNL     1      -4.043   1.802   0.892  0.00  0.00    +0.382 N 
ATOM     11  H   UNL     1      -4.031   0.920   1.417  0.00  0.00    -0.081 HD
BRANCH  10  12
ATOM     12  C   UNL     1      -5.389   2.403   0.994  0.00  0.00    -0.043 C 
BRANCH  12  16
ATOM     13  C   UNL     1      -6.495   2.611   5.114  0.00  0.00    +0.000 A 
ATOM     14  C   UNL     1      -5.841   3.674   4.520  0.00  0.00    +0.000 A 
ATOM     15  C   UNL     1      -5.483   3.607   3.186  0.00  0.00    +0.002 A 
ATOM     16  C   UNL     1      -5.779   2.477   2.447  0.00  0.00    -0.064 A 
ATOM     17  C   UNL     1      -6.438   1.416   3.041  0.00  0.00    +0.002 A 
ATOM     18  C   UNL     1      -6.791   1.481   4.376  0.00  0.00    +0.000 A 
ENDBRANCH  12  16
ENDBRANCH  10  12
ENDBRANCH   1   7
BRANCH   2  19
ATOM     19  C   UNL     1       2.462   0.920  -0.017  0.00  0.00    +0.097 C 
BRANCH  19  20
ATOM     20  C   UNL     1       3.611   1.930  -0.022  0.00  0.00    +0.031 C 
BRANCH  20  21
ATOM     21  C   UNL     1       4.946   1.183  -0.039  0.00  0.00    +0.127 C 
BRANCH  21  22
ATOM     22  N   UNL     1       6.047   2.150  -0.044  0.00  0.00    -0.290 N 
ATOM     23  C   UNL     1       6.576   2.598   1.161  0.00  0.00    +0.160 A 
ATOM     24  C   UNL     1       7.624   3.520   1.174  0.00  0.00    +0.090 A 
ATOM     25  C   UNL     1       8.137   3.953   2.390  0.00  0.00    +0.031 A 
ATOM     26  C   UNL     1       7.581   3.448   3.556  0.00  0.00    +0.022 A 
ATOM     27  C   UNL     1       6.544   2.539   3.471  0.00  0.00    +0.113 A 
ATOM     28  N   UNL     1       6.077   2.144   2.303  0.00  0.00    -0.236 NA
ATOM     29  N   UNL     1       8.158   4.005  -0.024  0.00  0.00    -0.309 N 
ATOM     30  C   UNL     1       9.155   4.885  -0.289  0.00  0.00    +0.092 A 
ATOM     31  C   UNL     1       9.282   5.015  -1.632  0.00  0.00    +0.020 A 
ATOM     32  C   UNL     1       8.331   4.187  -2.236  0.00  0.00    +0.033 A 
ATOM     33  C   UNL     1       7.637   3.563  -1.223  0.00  0.00    +0.112 A 
ATOM     34  C   UNL     1       6.541   2.593  -1.217  0.00  0.00    +0.277 A 
ATOM     35  O   UNL     1       6.075   2.191  -2.267  0.00  0.00    -0.265 OA
ENDBRANCH  21  22
ENDBRANCH  20  21
ENDBRANCH  19  20
ENDBRANCH   2  19
TORSDOF 7
