REMARK  Name = ZINC04556160
REMARK  6 active torsions:
REMARK  status: ('A' for Active; 'I' for Inactive)
REMARK    1  A    between atoms: C_1  and  C_2
REMARK    2  A    between atoms: C_2  and  N_45
REMARK    3  A    between atoms: C_10  and  O_23
REMARK    4  A    between atoms: C_12  and  C_15
REMARK    5  A    between atoms: C_18  and  C_22
REMARK    6  A    between atoms: C_20  and  O_21
REMARK                            x       y       z     vdW  Elec       q    Type
REMARK                         _______ _______ _______ _____ _____    ______ ____
ROOT
ATOM      1  C   UNL     1       3.082  -4.732  -3.774  0.00  0.00    -0.074 C 
ATOM      2  C   UNL     1       2.269  -3.673  -3.025  0.00  0.00    +0.018 C 
ATOM      3  C   UNL     1       2.797  -2.299  -3.423  0.00  0.00    -0.027 A 
ATOM      4  C   UNL     1       4.016  -2.185  -4.004  0.00  0.00    -0.021 A 
ATOM      5  S   UNL     1       4.218  -0.450  -4.302  0.00  0.00    -0.080 S 
ATOM      6  C   UNL     1       2.725   0.103  -3.674  0.00  0.00    +0.080 A 
ATOM      7  C   UNL     1       2.075  -1.056  -3.228  0.00  0.00    +0.067 A 
ATOM      8  C   UNL     1       0.735  -0.889  -2.611  0.00  0.00    +0.220 C 
ATOM      9  N   UNL     1       0.336   0.323  -2.341  0.00  0.00    -0.223 NA
ATOM     10  C   UNL     1       1.147   1.522  -2.508  0.00  0.00    +0.227 C 
ATOM     11  N   UNL     1       2.161   1.351  -3.565  0.00  0.00    -0.313 N 
ATOM     12  C   UNL     1       4.962  -3.302  -4.313  0.00  0.00    -0.035 C 
ATOM     13  H   UNL     1       2.415   2.080  -4.152  0.00  0.00    +0.149 HD
ATOM     14  N   UNL     1       4.523  -4.495  -3.548  0.00  0.00    +0.383 N 
ATOM     15  H   UNL     1       4.681  -4.327  -2.548  0.00  0.00    -0.081 HD
ENDROOT
BRANCH  10  16
ATOM     16  C   UNL     1       1.842   1.830  -1.206  0.00  0.00    +0.036 A 
ATOM     17  C   UNL     1       3.096   2.409  -1.212  0.00  0.00    +0.011 A 
ATOM     18  C   UNL     1       3.735   2.692  -0.019  0.00  0.00    +0.004 A 
ATOM     19  C   UNL     1       3.119   2.397   1.183  0.00  0.00    -0.047 A 
ATOM     20  C   UNL     1       1.863   1.822   1.195  0.00  0.00    +0.049 A 
ATOM     21  C   UNL     1       1.223   1.532  -0.001  0.00  0.00    +0.124 A 
ATOM     22  C   UNL     1       3.817   2.707   2.483  0.00  0.00    +0.044 C 
BRANCH  21  23
ATOM     23  O   UNL     1      -0.011   0.963   0.007  0.00  0.00    -0.506 OA
ATOM     24  H   UNL     1       0.002  -0.004   0.002  0.00  0.00    +0.292 HD
ENDBRANCH  21  23
ENDBRANCH  10  16
BRANCH  14  26
ATOM     25  C   UNL     1       6.757  -5.495  -3.526  0.00  0.00    -0.017 C 
ATOM     26  C   UNL     1       5.303  -5.679  -3.966  0.00  0.00    -0.082 C 
ENDBRANCH  14  26
BRANCH   8  27
ATOM     27  O   UNL     1      -0.047  -1.960  -2.338  0.00  0.00    -0.492 OA
ATOM     28  H   UNL     1      -0.898  -1.733  -1.937  0.00  0.00    +0.294 HD
ENDBRANCH   8  27
TORSDOF 4
