REMARK  Name = ZINC41001876
REMARK  15 active torsions:
REMARK  status: ('A' for Active; 'I' for Inactive)
REMARK    1  A    between atoms: C_1  and  C_2
REMARK    2  A    between atoms: C_2  and  S_3
REMARK    3  A    between atoms: S_3  and  C_4
REMARK    4  A    between atoms: C_9  and  C_21
REMARK    5  A    between atoms: C_11  and  C_15
REMARK    6  A    between atoms: C_12  and  C_14
REMARK    7  A    between atoms: C_15  and  O_17
REMARK    8  A    between atoms: O_17  and  C_18
REMARK    9  A    between atoms: C_18  and  C_19
REMARK   10  A    between atoms: C_18  and  C_20
REMARK   11  A    between atoms: C_24  and  O_29
REMARK   12  A    between atoms: C_25  and  O_27
REMARK   13  A    between atoms: O_27  and  C_28
REMARK   14  A    between atoms: O_29  and  C_30
REMARK   15  A    between atoms: C_30  and  C_31
REMARK                            x       y       z     vdW  Elec       q    Type
REMARK                         _______ _______ _______ _____ _____    ______ ____
ROOT
ATOM      1  C   UNL     1       0.317  -2.360  -1.383  0.00  0.00    +0.210 A 
ATOM      2  N   UNL     1      -0.162  -3.114  -0.384  0.00  0.00    -0.187 NA
ATOM      3  C   UNL     1       0.169  -4.361  -0.581  0.00  0.00    +0.219 A 
ATOM      4  N   UNL     1       0.876  -4.431  -1.736  0.00  0.00    -0.220 N 
ATOM      5  N   UNL     1       0.957  -3.132  -2.234  0.00  0.00    -0.141 NA
ATOM      6  C   UNL     1       1.407  -5.677  -2.284  0.00  0.00    +0.179 C 
ATOM      7  C   UNL     1       1.308  -6.763  -1.247  0.00  0.00    +0.082 C 
ATOM      8  C   UNL     1       0.594  -6.635  -0.118  0.00  0.00    +0.020 C 
ATOM      9  N   UNL     1      -0.098  -5.489   0.184  0.00  0.00    -0.287 N 
ATOM     10  C   UNL     1       0.549  -7.788   0.851  0.00  0.00    +0.061 C 
ATOM     11  H   UNL     1      -0.748  -5.467   0.904  0.00  0.00    +0.155 HD
ENDROOT
BRANCH   6  12
ATOM     12  C   UNL     1       0.610  -6.070  -3.501  0.00  0.00    -0.015 A 
ATOM     13  C   UNL     1      -0.749  -6.299  -3.391  0.00  0.00    +0.010 A 
ATOM     14  C   UNL     1      -1.485  -6.660  -4.505  0.00  0.00    +0.050 A 
ATOM     15  C   UNL     1      -0.861  -6.792  -5.735  0.00  0.00    +0.162 A 
ATOM     16  C   UNL     1       0.507  -6.561  -5.845  0.00  0.00    +0.162 A 
ATOM     17  C   UNL     1       1.238  -6.195  -4.726  0.00  0.00    +0.055 A 
BRANCH  16  18
ATOM     18  O   UNL     1       1.125  -6.689  -7.050  0.00  0.00    -0.491 OA
ATOM     19  C   UNL     1       2.530  -6.436  -7.089  0.00  0.00    +0.277 C 
ENDBRANCH  16  18
BRANCH  15  20
ATOM     20  O   UNL     1      -1.583  -7.147  -6.831  0.00  0.00    -0.484 OA
BRANCH  20  21
ATOM     21  C   UNL     1      -2.982  -7.369  -6.642  0.00  0.00    +0.264 C 
BRANCH  21  22
ATOM     22  C   UNL     1      -3.611  -7.751  -7.957  0.00  0.00    -0.010 A 
ATOM     23  C   UNL     1      -4.110  -6.771  -8.795  0.00  0.00    +0.007 A 
ATOM     24  C   UNL     1      -4.687  -7.122 -10.001  0.00  0.00    +0.000 A 
ATOM     25  C   UNL     1      -4.766  -8.452 -10.369  0.00  0.00    +0.000 A 
ATOM     26  C   UNL     1      -4.268  -9.431  -9.531  0.00  0.00    +0.000 A 
ATOM     27  C   UNL     1      -3.686  -9.081  -8.327  0.00  0.00    +0.007 A 
ENDBRANCH  21  22
ENDBRANCH  20  21
ENDBRANCH  15  20
ENDBRANCH   6  12
BRANCH   7  28
ATOM     28  C   UNL     1       1.999  -7.975  -1.473  0.00  0.00    +0.339 C 
ATOM     29  O   UNL     1       3.189  -8.051  -1.230  0.00  0.00    -0.245 OA
BRANCH  28  30
ATOM     30  O   UNL     1       1.339  -9.048  -1.958  0.00  0.00    -0.459 OA
BRANCH  30  31
ATOM     31  C   UNL     1       2.100 -10.240  -2.162  0.00  0.00    +0.171 C 
ATOM     32  C   UNL     1       1.197 -11.460  -1.974  0.00  0.00    +0.052 C 
ATOM     33  C   UNL     1       2.674 -10.242  -3.580  0.00  0.00    +0.052 C 
ENDBRANCH  30  31
ENDBRANCH  28  30
ENDBRANCH   7  28
BRANCH   1  34
ATOM     34  S   UNL     1       0.116  -0.616  -1.535  0.00  0.00    -0.085 S 
BRANCH  34  36
ATOM     35  C   UNL     1      -1.092   1.355  -0.073  0.00  0.00    +0.016 C 
ATOM     36  C   UNL     1      -0.843  -0.154  -0.066  0.00  0.00    +0.074 C 
ENDBRANCH  34  36
ENDBRANCH   1  34
TORSDOF 10
