REMARK  Name = ZINC12218978
REMARK  11 active torsions:
REMARK  status: ('A' for Active; 'I' for Inactive)
REMARK    1  A    between atoms: C_1  and  C_2
REMARK    2  A    between atoms: C_2  and  O_3
REMARK    3  A    between atoms: O_3  and  C_4
REMARK    4  A    between atoms: C_9  and  N_10
REMARK    5  A    between atoms: C_15  and  C_16
REMARK    6  A    between atoms: C_15  and  N_65
REMARK    7  A    between atoms: C_20  and  N_29
REMARK    8  A    between atoms: C_21  and  C_25
REMARK    9  A    between atoms: C_25  and  O_27
REMARK   10  A    between atoms: O_27  and  C_28
REMARK   11  A    between atoms: C_30  and  C_32
REMARK                            x       y       z     vdW  Elec       q    Type
REMARK                         _______ _______ _______ _____ _____    ______ ____
ROOT
ATOM      1  C   UNL     1       2.132  -6.526  -0.595  0.00  0.00    +0.026 A 
ATOM      2  C   UNL     1       2.799  -6.189  -1.763  0.00  0.00    +0.022 A 
ATOM      3  C   UNL     1       2.562  -4.981  -2.376  0.00  0.00    +0.014 A 
ATOM      4  C   UNL     1       1.627  -4.088  -1.795  0.00  0.00    +0.030 A 
ATOM      5  C   UNL     1       1.219  -2.772  -2.260  0.00  0.00    +0.064 A 
ATOM      6  C   UNL     1       0.283  -2.080  -1.523  0.00  0.00    +0.120 A 
ATOM      7  S   UNL     1      -0.075  -3.182  -0.170  0.00  0.00    -0.060 S 
ATOM      8  C   UNL     1       1.001  -4.526  -0.606  0.00  0.00    +0.111 A 
ATOM      9  N   UNL     1       1.262  -5.693  -0.057  0.00  0.00    -0.246 NA
ENDROOT
BRANCH   5  10
ATOM     10  N   UNL     1       1.760  -2.226  -3.419  0.00  0.00    -0.284 N 
ATOM     11  C   UNL     1       1.846  -2.971  -4.539  0.00  0.00    +0.220 C 
ATOM     12  O   UNL     1       1.544  -4.146  -4.510  0.00  0.00    -0.275 OA
ATOM     13  H   UNL     1       2.075  -1.309  -3.421  0.00  0.00    +0.155 HD
BRANCH  11  14
ATOM     14  C   UNL     1       2.316  -2.345  -5.826  0.00  0.00    +0.075 C 
ATOM     15  C   UNL     1       1.290  -2.188  -6.951  0.00  0.00    +0.013 C 
ATOM     16  C   UNL     1       2.391  -3.244  -7.062  0.00  0.00    +0.013 C 
ENDBRANCH  11  14
ENDBRANCH   5  10
BRANCH   6  17
ATOM     17  C   UNL     1      -0.261  -0.795  -1.778  0.00  0.00    +0.348 C 
ATOM     18  O   UNL     1       0.164  -0.127  -2.701  0.00  0.00    -0.244 OA
BRANCH  17  19
ATOM     19  O   UNL     1      -1.250  -0.314  -0.996  0.00  0.00    -0.464 OA
ATOM     20  C   UNL     1      -1.750   0.987  -1.310  0.00  0.00    +0.280 C 
ENDBRANCH  17  19
ENDBRANCH   6  17
BRANCH   1  21
ATOM     21  C   UNL     1       2.403  -7.854   0.065  0.00  0.00    -0.022 C 
BRANCH  21  27
ATOM     22  N   UNL     1       5.850  -8.282   2.469  0.00  0.00    -0.331 N 
ATOM     23  C   UNL     1       4.553  -8.649   3.054  0.00  0.00    +0.086 C 
ATOM     24  C   UNL     1       3.542  -8.895   1.932  0.00  0.00    -0.059 C 
ATOM     25  C   UNL     1       4.719  -7.316   0.525  0.00  0.00    -0.059 C 
ATOM     26  C   UNL     1       5.730  -7.069   1.647  0.00  0.00    +0.086 C 
ATOM     27  N   UNL     1       3.414  -7.662   1.127  0.00  0.00    +0.385 N 
ATOM     28  H   UNL     1       3.114  -6.893   1.738  0.00  0.00    -0.081 HD
BRANCH  22  34
ATOM     29  C   UNL     1       7.244  -9.215   4.213  0.00  0.00    +0.141 A 
ATOM     30  C   UNL     1       8.205  -9.048   5.196  0.00  0.00    +0.047 A 
ATOM     31  C   UNL     1       8.742  -7.796   5.433  0.00  0.00    +0.004 A 
ATOM     32  C   UNL     1       8.323  -6.708   4.690  0.00  0.00    +0.002 A 
ATOM     33  C   UNL     1       7.368  -6.867   3.704  0.00  0.00    +0.027 A 
ATOM     34  C   UNL     1       6.821  -8.119   3.464  0.00  0.00    +0.072 A 
BRANCH  29  35
ATOM     35  O   UNL     1       6.716 -10.446   3.978  0.00  0.00    -0.490 OA
BRANCH  35  37
ATOM     36  C   UNL     1       6.493 -12.819   4.378  0.00  0.00    +0.048 C 
ATOM     37  C   UNL     1       7.198 -11.523   4.784  0.00  0.00    +0.226 C 
ENDBRANCH  35  37
ENDBRANCH  29  35
ENDBRANCH  22  34
ENDBRANCH  21  27
ENDBRANCH   1  21
TORSDOF 9
