REMARK  Name = ZINC13898851
REMARK  9 active torsions:
REMARK  status: ('A' for Active; 'I' for Inactive)
REMARK    1  A    between atoms: C_1  and  C_2
REMARK    2  A    between atoms: C_2  and  C_27
REMARK    3  A    between atoms: N_3  and  N_4
REMARK    4  A    between atoms: C_5  and  C_7
REMARK    5  A    between atoms: C_7  and  S_8
REMARK    6  A    between atoms: S_8  and  C_9
REMARK    7  A    between atoms: C_12  and  C_20
REMARK    8  A    between atoms: N_13  and  C_14
REMARK    9  A    between atoms: C_31  and  N_33
REMARK                            x       y       z     vdW  Elec       q    Type
REMARK                         _______ _______ _______ _____ _____    ______ ____
ROOT
ATOM      1  S   UNL     1      -6.260   6.253  -0.738  0.00  0.00    -0.077 S 
ENDROOT
BRANCH   1   2
ATOM      2  C   UNL     1      -7.602   5.128  -0.541  0.00  0.00    +0.193 A 
ATOM      3  N   UNL     1      -7.551   3.947   0.033  0.00  0.00    -0.122 NA
ATOM      4  N   UNL     1      -8.711   3.394   0.007  0.00  0.00    -0.128 NA
ATOM      5  C   UNL     1      -9.571   4.183  -0.593  0.00  0.00    +0.165 A 
ATOM      6  N   UNL     1      -8.887   5.318  -0.963  0.00  0.00    -0.299 N 
BRANCH   5   7
ATOM      7  C   UNL     1     -11.004   3.905  -0.828  0.00  0.00    +0.019 A 
ATOM      8  C   UNL     1     -11.925   4.953  -0.859  0.00  0.00    +0.013 A 
ATOM      9  C   UNL     1     -13.260   4.688  -1.084  0.00  0.00    +0.021 A 
ATOM     10  C   UNL     1     -13.688   3.384  -1.267  0.00  0.00    +0.041 A 
ATOM     11  C   UNL     1     -12.780   2.339  -1.232  0.00  0.00    +0.021 A 
ATOM     12  C   UNL     1     -11.442   2.593  -1.013  0.00  0.00    +0.013 A 
ATOM     13 CL   UNL     1     -15.371   3.057  -1.542  0.00  0.00    -0.084 Cl
ENDBRANCH   5   7
BRANCH   6  14
ATOM     14  C   UNL     1      -9.425   6.487  -1.663  0.00  0.00    +0.091 C 
ATOM     15  C   UNL     1      -8.708   6.654  -3.004  0.00  0.00    +0.025 C 
ATOM     16  C   UNL     1      -9.271   7.875  -3.735  0.00  0.00    +0.002 C 
ATOM     17  C   UNL     1      -9.052   9.125  -2.881  0.00  0.00    +0.000 C 
ATOM     18  C   UNL     1      -9.769   8.959  -1.540  0.00  0.00    +0.002 C 
ATOM     19  C   UNL     1      -9.207   7.738  -0.809  0.00  0.00    +0.025 C 
ENDBRANCH   6  14
ENDBRANCH   1   2
BRANCH   1  20
ATOM     20  C   UNL     1      -4.938   5.307   0.057  0.00  0.00    +0.174 C 
BRANCH  20  22
ATOM     21  N   UNL     1      -2.528   5.586   0.542  0.00  0.00    -0.206 N 
ATOM     22  C   UNL     1      -3.655   6.097   0.007  0.00  0.00    +0.242 C 
ATOM     23  O   UNL     1      -3.637   7.192  -0.515  0.00  0.00    -0.273 OA
ATOM     24  H   UNL     1      -2.543   4.711   0.959  0.00  0.00    +0.177 HD
BRANCH  21  27
ATOM     25  C   UNL     1       1.069   6.528   0.780  0.00  0.00    +0.068 C 
ATOM     26  C   UNL     1      -0.243   5.814   0.977  0.00  0.00    +0.063 C 
ATOM     27  N   UNL     1      -1.336   6.321   0.495  0.00  0.00    -0.185 NA
BRANCH  26  28
ATOM     28  C   UNL     1      -0.285   4.539   1.718  0.00  0.00    -0.000 A 
ATOM     29  C   UNL     1       0.743   3.605   1.565  0.00  0.00    +0.010 A 
ATOM     30  C   UNL     1       0.697   2.415   2.261  0.00  0.00    +0.003 A 
ATOM     31  C   UNL     1      -0.363   2.146   3.109  0.00  0.00    +0.033 A 
ATOM     32  C   UNL     1      -1.386   3.064   3.261  0.00  0.00    +0.127 A 
ATOM     33  C   UNL     1      -1.351   4.261   2.575  0.00  0.00    +0.042 A 
BRANCH  32  34
ATOM     34  N   UNL     1      -2.519   2.764   4.165  0.00  0.00    +0.056 N 
ATOM     35  O   UNL     1      -2.549   1.710   4.775  0.00  0.00    -0.126 OA
ATOM     36  O   UNL     1      -3.421   3.572   4.300  0.00  0.00    -0.126 OA
ENDBRANCH  32  34
ENDBRANCH  26  28
ENDBRANCH  21  27
ENDBRANCH  20  22
ENDBRANCH   1  20
TORSDOF 8
