REMARK  Name = ZINC16604566
REMARK  10 active torsions:
REMARK  status: ('A' for Active; 'I' for Inactive)
REMARK    1  A    between atoms: C_1  and  C_2
REMARK    2  A    between atoms: C_2  and  C_3
REMARK    3  A    between atoms: C_3  and  C_4
REMARK    4  A    between atoms: C_4  and  N_5
REMARK    5  A    between atoms: C_13  and  C_15
REMARK    6  A    between atoms: C_20  and  S_22
REMARK    7  A    between atoms: S_22  and  C_23
REMARK    8  A    between atoms: C_23  and  C_24
REMARK    9  A    between atoms: N_26  and  C_27
REMARK   10  A    between atoms: C_27  and  C_28
REMARK                            x       y       z     vdW  Elec       q    Type
REMARK                         _______ _______ _______ _____ _____    ______ ____
ROOT
ATOM      1  N   UNL     1      -0.088   0.867  -0.853  0.00  0.00    -0.299 N 
ATOM      2  C   UNL     1      -1.207   1.553  -0.543  0.00  0.00    +0.303 C 
ATOM      3  O   UNL     1      -1.159   2.758  -0.392  0.00  0.00    -0.253 OA
ATOM      4  N   UNL     1      -2.379   0.902  -0.402  0.00  0.00    -0.280 N 
ATOM      5  C   UNL     1      -2.439  -0.566  -0.466  0.00  0.00    +0.128 C 
ATOM      6  C   UNL     1      -3.522  -0.970  -1.465  0.00  0.00    +0.125 C 
ATOM      7  N   UNL     1      -4.786  -0.310  -1.109  0.00  0.00    -0.312 N 
ATOM      8  C   UNL     1      -4.668   1.151  -1.201  0.00  0.00    +0.128 C 
ATOM      9  C   UNL     1      -3.631   1.642  -0.185  0.00  0.00    +0.092 C 
ATOM     10  C   UNL     1      -3.385   3.139  -0.384  0.00  0.00    +0.030 C 
ATOM     11  C   UNL     1      -5.827  -0.775  -1.896  0.00  0.00    +0.127 A 
ATOM     12  C   UNL     1      -6.112  -2.140  -1.960  0.00  0.00    +0.083 A 
ATOM     13  C   UNL     1      -7.164  -2.559  -2.754  0.00  0.00    +0.135 A 
ATOM     14  N   UNL     1      -7.860  -1.659  -3.435  0.00  0.00    -0.210 NA
ATOM     15  C   UNL     1      -7.563  -0.369  -3.359  0.00  0.00    +0.192 A 
ATOM     16  N   UNL     1      -6.566   0.072  -2.606  0.00  0.00    -0.207 NA
ATOM     17 CL   UNL     1      -7.564  -4.245  -2.864  0.00  0.00    -0.062 Cl
ATOM     18  H   UNL     1      -0.111  -0.102  -0.902  0.00  0.00    +0.150 HD
ENDROOT
BRANCH   1  19
ATOM     19  C   UNL     1       1.160   1.585  -1.120  0.00  0.00    +0.106 C 
BRANCH  19  20
ATOM     20  C   UNL     1       2.266   0.580  -1.450  0.00  0.00    +0.018 C 
BRANCH  20  22
ATOM     21  C   UNL     1       4.675   0.324  -2.060  0.00  0.00    +0.004 C 
ATOM     22  C   UNL     1       3.570   1.329  -1.730  0.00  0.00    -0.002 C 
ENDBRANCH  20  22
ENDBRANCH  19  20
ENDBRANCH   1  19
BRANCH  15  23
ATOM     23  S   UNL     1      -8.518   0.787  -4.284  0.00  0.00    -0.077 S 
BRANCH  23  24
ATOM     24  C   UNL     1      -9.685  -0.339  -5.087  0.00  0.00    +0.173 C 
BRANCH  24  25
ATOM     25  C   UNL     1     -10.629   0.452  -5.956  0.00  0.00    +0.224 C 
ATOM     26  O   UNL     1     -10.523   1.658  -6.025  0.00  0.00    -0.275 OA
ATOM     27  N   UNL     1     -11.590  -0.182  -6.656  0.00  0.00    -0.311 N 
ATOM     28  H   UNL     1     -11.675  -1.147  -6.601  0.00  0.00    +0.149 HD
BRANCH  27  29
ATOM     29  C   UNL     1     -12.508   0.587  -7.501  0.00  0.00    +0.139 C 
BRANCH  29  30
ATOM     30  C   UNL     1     -13.480  -0.351  -8.170  0.00  0.00    -0.027 A 
ATOM     31  C   UNL     1     -13.192  -0.907  -9.408  0.00  0.00    +0.025 A 
ATOM     32  C   UNL     1     -14.105  -1.766  -9.989  0.00  0.00    +0.111 A 
ATOM     33  N   UNL     1     -15.242  -2.051  -9.384  0.00  0.00    -0.263 NA
ATOM     34  C   UNL     1     -15.551  -1.538  -8.209  0.00  0.00    +0.111 A 
ATOM     35  C   UNL     1     -14.685  -0.675  -7.566  0.00  0.00    +0.025 A 
ENDBRANCH  29  30
ENDBRANCH  27  29
ENDBRANCH  24  25
ENDBRANCH  23  24
ENDBRANCH  15  23
TORSDOF 8
