REMARK  Name = ZINC33734272
REMARK  6 active torsions:
REMARK  status: ('A' for Active; 'I' for Inactive)
REMARK    1  A    between atoms: C_1  and  C_2
REMARK    2  A    between atoms: N_6  and  N_7
REMARK    3  A    between atoms: C_21  and  C_32
REMARK    4  A    between atoms: N_27  and  N_28
REMARK    5  A    between atoms: N_28  and  C_29
REMARK    6  A    between atoms: C_29  and  N_31
REMARK                            x       y       z     vdW  Elec       q    Type
REMARK                         _______ _______ _______ _____ _____    ______ ____
ROOT
ATOM      1  C   UNL     1      -0.106   1.621  -0.116  0.00  0.00    +0.016 C 
ATOM      2  C   UNL     1      -0.046   0.093  -0.111  0.00  0.00    -0.007 C 
ATOM      3  C   UNL     1       0.610  -0.422  -1.386  0.00  0.00    +0.017 C 
ATOM      4  C   UNL     1       2.067   0.044  -1.453  0.00  0.00    +0.058 C 
ATOM      5  C   UNL     1       2.785  -0.388  -0.199  0.00  0.00    +0.059 C 
ATOM      6  N   UNL     1       4.071  -0.574  -0.218  0.00  0.00    -0.184 NA
ATOM      7  C   UNL     1       2.032  -0.596   1.042  0.00  0.00    +0.024 C 
ATOM      8  C   UNL     1       0.727  -0.380   1.098  0.00  0.00    -0.062 C 
ATOM      9  C   UNL     1      -0.032  -0.614   2.384  0.00  0.00    +0.031 C 
ATOM     10  C   UNL     1      -1.062  -1.722   2.159  0.00  0.00    +0.008 C 
ATOM     11  C   UNL     1      -1.405  -1.835   0.679  0.00  0.00    -0.003 C 
ATOM     12  C   UNL     1      -1.475  -0.467   0.014  0.00  0.00    +0.002 C 
ATOM     13  C   UNL     1      -2.140  -0.519  -1.351  0.00  0.00    +0.005 C 
ATOM     14  C   UNL     1      -3.543  -1.130  -1.331  0.00  0.00    +0.013 C 
ATOM     15  C   UNL     1      -3.840  -1.786  -0.006  0.00  0.00    +0.011 C 
ATOM     16  C   UNL     1      -2.635  -2.651   0.421  0.00  0.00    +0.004 C 
ATOM     17  C   UNL     1      -3.220  -3.431   1.609  0.00  0.00    +0.010 C 
ATOM     18  C   UNL     1      -4.659  -3.756   1.121  0.00  0.00    +0.053 C 
ATOM     19  C   UNL     1      -4.940  -2.834  -0.059  0.00  0.00    +0.043 C 
ATOM     20  N   UNL     1      -5.883  -2.909  -0.911  0.00  0.00    -0.189 NA
ATOM     21  C   UNL     1      -4.247  -0.763   1.051  0.00  0.00    +0.018 C 
ENDROOT
BRANCH   6  22
ATOM     22  N   UNL     1       4.738  -0.975   0.947  0.00  0.00    -0.191 N 
ATOM     23  C   UNL     1       6.071  -1.169   0.928  0.00  0.00    +0.317 C 
ATOM     24  O   UNL     1       6.650  -1.517   1.939  0.00  0.00    -0.251 OA
ATOM     25  N   UNL     1       6.763  -0.977  -0.213  0.00  0.00    -0.312 N 
ATOM     26  H   UNL     1       4.239  -1.113   1.768  0.00  0.00    +0.179 HD
ATOM     27  H   UNL     1       6.302  -0.700  -1.020  0.00  0.00    +0.147 HD
ATOM     28  H   UNL     1       7.723  -1.117  -0.227  0.00  0.00    +0.147 HD
ENDBRANCH   6  22
BRANCH  20  29
ATOM     29  N   UNL     1      -6.825  -3.943  -0.824  0.00  0.00    -0.219 N 
ATOM     30  H   UNL     1      -6.759  -4.600  -0.114  0.00  0.00    +0.176 HD
BRANCH  29  31
ATOM     31  C   UNL     1      -7.823  -4.022  -1.726  0.00  0.00    +0.147 C 
ATOM     32  S   UNL     1      -8.975  -5.285  -1.619  0.00  0.00    -0.017 S 
BRANCH  31  33
ATOM     33  N   UNL     1      -7.915  -3.109  -2.712  0.00  0.00    -0.339 N 
ATOM     34  H   UNL     1      -7.262  -2.393  -2.773  0.00  0.00    +0.144 HD
ATOM     35  H   UNL     1      -8.633  -3.166  -3.361  0.00  0.00    +0.144 HD
ENDBRANCH  31  33
ENDBRANCH  29  31
ENDBRANCH  20  29
TORSDOF 4
