REMARK  Name = ZINC44737159
REMARK  10 active torsions:
REMARK  status: ('A' for Active; 'I' for Inactive)
REMARK    1  A    between atoms: C_1  and  C_2
REMARK    2  A    between atoms: C_9  and  C_11
REMARK    3  A    between atoms: C_11  and  C_13
REMARK    4  A    between atoms: C_11  and  N_14
REMARK    5  A    between atoms: C_15  and  C_17
REMARK    6  A    between atoms: C_28  and  C_30
REMARK    7  A    between atoms: C_33  and  O_38
REMARK    8  A    between atoms: C_35  and  O_36
REMARK    9  A    between atoms: O_36  and  C_37
REMARK   10  A    between atoms: O_38  and  C_39
REMARK                            x       y       z     vdW  Elec       q    Type
REMARK                         _______ _______ _______ _____ _____    ______ ____
ROOT
ATOM      1  C   UNL     1       1.877  -8.731   0.977  0.00  0.00    +0.100 C 
ATOM      2  C   UNL     1       2.967  -8.097   0.084  0.00  0.00    +0.121 C 
ATOM      3  N   UNL     1       4.235  -8.339   0.812  0.00  0.00    -0.296 N 
ATOM      4  C   UNL     1       4.088  -9.709   1.361  0.00  0.00    +0.115 C 
ATOM      5  C   UNL     1       2.616  -9.791   1.811  0.00  0.00    -0.004 C 
ATOM      6  C   UNL     1       2.052 -11.178   1.522  0.00  0.00    -0.010 C 
ATOM      7  C   UNL     1       2.763 -12.208   2.405  0.00  0.00    -0.082 C 
ATOM      8  N   UNL     1       2.565 -11.862   3.818  0.00  0.00    +0.379 N 
ATOM      9  C   UNL     1       3.193 -10.567   4.109  0.00  0.00    -0.082 C 
ATOM     10  C   UNL     1       2.500  -9.469   3.298  0.00  0.00    -0.010 C 
ATOM     11  C   UNL     1       5.284  -7.504   0.945  0.00  0.00    +0.250 C 
ATOM     12  O   UNL     1       5.215  -6.368   0.515  0.00  0.00    -0.270 OA
ATOM     13  H   UNL     1       1.577 -11.807   4.015  0.00  0.00    -0.086 HD
ATOM     14  H   UNL     1       2.982 -12.574   4.398  0.00  0.00    -0.086 HD
ENDROOT
BRANCH  11  15
ATOM     15  C   UNL     1       6.514  -7.966   1.611  0.00  0.00    +0.079 A 
ATOM     16  C   UNL     1       6.936  -9.291   1.464  0.00  0.00    +0.020 A 
ATOM     17  C   UNL     1       8.086  -9.719   2.087  0.00  0.00    +0.046 A 
ATOM     18  C   UNL     1       8.831  -8.838   2.865  0.00  0.00    +0.124 A 
ATOM     19  C   UNL     1       8.421  -7.522   3.018  0.00  0.00    +0.092 A 
ATOM     20  C   UNL     1       7.269  -7.078   2.391  0.00  0.00    +0.136 A 
BRANCH  20  21
ATOM     21  O   UNL     1       6.869  -5.789   2.535  0.00  0.00    -0.494 OA
ATOM     22  C   UNL     1       7.688  -4.942   3.344  0.00  0.00    +0.277 C 
ENDBRANCH  20  21
BRANCH  18  23
ATOM     23  O   UNL     1       9.963  -9.268   3.476  0.00  0.00    -0.495 OA
ATOM     24  C   UNL     1      10.329 -10.635   3.277  0.00  0.00    +0.277 C 
ENDBRANCH  18  23
ENDBRANCH  11  15
BRANCH   1  26
ATOM     25  N   UNL     1      -0.022  -7.804   2.264  0.00  0.00    -0.305 N 
ATOM     26  C   UNL     1       1.264  -7.689   1.877  0.00  0.00    +0.219 C 
ATOM     27  O   UNL     1       1.928  -6.746   2.253  0.00  0.00    -0.275 OA
ATOM     28  H   UNL     1      -0.553  -8.558   1.963  0.00  0.00    +0.149 HD
BRANCH  25  29
ATOM     29  C   UNL     1      -0.618  -6.792   3.139  0.00  0.00    +0.136 C 
ATOM     30  C   UNL     1      -0.301  -7.128   4.598  0.00  0.00    +0.036 C 
BRANCH  29  39
ATOM     31  C   UNL     1      -7.913  -5.431   2.587  0.00  0.00    +0.044 C 
ATOM     32  C   UNL     1      -6.575  -6.123   2.541  0.00  0.00    -0.048 A 
ATOM     33  C   UNL     1      -6.496  -7.441   2.113  0.00  0.00    +0.005 A 
ATOM     34  C   UNL     1      -5.293  -8.086   2.065  0.00  0.00    +0.030 A 
ATOM     35  C   UNL     1      -4.128  -7.417   2.448  0.00  0.00    +0.089 A 
ATOM     36  C   UNL     1      -4.208  -6.082   2.881  0.00  0.00    +0.067 A 
ATOM     37  C   UNL     1      -5.438  -5.441   2.919  0.00  0.00    +0.031 A 
ATOM     38  N   UNL     1      -2.916  -5.702   3.185  0.00  0.00    -0.340 N 
ATOM     39  C   UNL     1      -2.111  -6.772   2.940  0.00  0.00    +0.128 A 
ATOM     40  N   UNL     1      -2.819  -7.774   2.509  0.00  0.00    -0.231 NA
ATOM     41  H   UNL     1      -2.634  -4.834   3.512  0.00  0.00    +0.167 HD
ENDBRANCH  29  39
ENDBRANCH  25  29
ENDBRANCH   1  26
TORSDOF 6
