REMARK  Name = ZINC10957900
REMARK  8 active torsions:
REMARK  status: ('A' for Active; 'I' for Inactive)
REMARK    1  A    between atoms: C_1  and  C_2
REMARK    2  A    between atoms: C_3  and  C_22
REMARK    3  A    between atoms: C_8  and  C_10
REMARK    4  A    between atoms: C_10  and  C_11
REMARK    5  A    between atoms: C_11  and  C_13
REMARK    6  A    between atoms: C_11  and  N_18
REMARK    7  A    between atoms: C_25  and  O_28
REMARK    8  A    between atoms: O_28  and  C_29
REMARK                            x       y       z     vdW  Elec       q    Type
REMARK                         _______ _______ _______ _____ _____    ______ ____
ROOT
ATOM      1  C   UNL     1      -0.027   1.502  -0.082  0.00  0.00    +0.054 C 
ATOM      2  C   UNL     1      -0.002  -0.005  -0.040  0.00  0.00    +0.016 A 
ATOM      3  C   UNL     1      -1.034  -0.891   0.093  0.00  0.00    +0.083 A 
ATOM      4  N   UNL     1      -0.777  -2.190   0.105  0.00  0.00    -0.224 NA
ATOM      5  C   UNL     1       0.457  -2.646  -0.009  0.00  0.00    +0.165 A 
ATOM      6  S   UNL     1       1.385  -1.126  -0.158  0.00  0.00    -0.057 S 
ATOM      7  N   UNL     1       0.911  -3.959  -0.018  0.00  0.00    -0.265 N 
ATOM      8  C   UNL     1       2.228  -4.215  -0.146  0.00  0.00    +0.221 C 
ATOM      9  O   UNL     1       3.016  -3.300  -0.255  0.00  0.00    -0.275 OA
ATOM     10  H   UNL     1       0.281  -4.691   0.069  0.00  0.00    +0.157 HD
ENDROOT
BRANCH   3  11
ATOM     11  C   UNL     1      -2.428  -0.403   0.224  0.00  0.00    +0.001 A 
ATOM     12  C   UNL     1      -3.285  -0.978   1.161  0.00  0.00    +0.013 A 
ATOM     13  C   UNL     1      -4.581  -0.521   1.280  0.00  0.00    +0.046 A 
ATOM     14  C   UNL     1      -5.033   0.509   0.467  0.00  0.00    +0.127 A 
ATOM     15  C   UNL     1      -4.182   1.084  -0.467  0.00  0.00    +0.046 A 
ATOM     16  C   UNL     1      -2.883   0.637  -0.586  0.00  0.00    +0.013 A 
BRANCH  14  17
ATOM     17  O   UNL     1      -6.311   0.957   0.586  0.00  0.00    -0.434 OA
BRANCH  17  18
ATOM     18  C   UNL     1      -6.710   2.020  -0.281  0.00  0.00    +0.541 C 
ATOM     19  F   UNL     1      -5.898   3.137  -0.053  0.00  0.00    -0.166 F 
ATOM     20  F   UNL     1      -6.577   1.611  -1.612  0.00  0.00    -0.166 F 
ENDBRANCH  17  18
ENDBRANCH  14  17
ENDBRANCH   3  11
BRANCH   8  21
ATOM     21  C   UNL     1       2.722  -5.639  -0.155  0.00  0.00    +0.123 C 
BRANCH  21  22
ATOM     22  C   UNL     1       4.244  -5.651  -0.313  0.00  0.00    +0.120 C 
BRANCH  22  23
ATOM     23  N   UNL     1       4.861  -5.034   0.864  0.00  0.00    -0.292 N 
ATOM     24  C   UNL     1       6.084  -4.475   0.769  0.00  0.00    +0.298 C 
ATOM     25  O   UNL     1       6.675  -4.483  -0.294  0.00  0.00    -0.253 OA
ATOM     26  N   UNL     1       6.652  -3.908   1.852  0.00  0.00    -0.313 N 
ATOM     27  H   UNL     1       4.389  -5.028   1.712  0.00  0.00    +0.151 HD
ATOM     28  H   UNL     1       6.180  -3.902   2.699  0.00  0.00    +0.146 HD
ATOM     29  H   UNL     1       7.532  -3.506   1.783  0.00  0.00    +0.146 HD
ENDBRANCH  22  23
BRANCH  22  30
ATOM     30  C   UNL     1       4.724  -7.073  -0.445  0.00  0.00    +0.010 A 
ATOM     31  C   UNL     1       5.068  -7.757  -1.563  0.00  0.00    +0.013 A 
ATOM     32  C   UNL     1       5.487  -9.069  -1.444  0.00  0.00    +0.008 A 
ATOM     33  C   UNL     1       5.541  -9.632  -0.213  0.00  0.00    +0.045 A 
ATOM     34  S   UNL     1       4.996  -8.291   0.831  0.00  0.00    -0.100 S 
ENDBRANCH  22  30
ENDBRANCH  21  22
ENDBRANCH   8  21
TORSDOF 7
