REMARK  Name = ZINC38106834
REMARK  7 active torsions:
REMARK  status: ('A' for Active; 'I' for Inactive)
REMARK    1  A    between atoms: C_1  and  C_2
REMARK    2  A    between atoms: C_2  and  C_3
REMARK    3  A    between atoms: C_2  and  C_4
REMARK    4  A    between atoms: C_2  and  C_5
REMARK    5  A    between atoms: C_11  and  N_13
REMARK    6  A    between atoms: N_13  and  S_14
REMARK    7  A    between atoms: S_14  and  C_17
REMARK                            x       y       z     vdW  Elec       q    Type
REMARK                         _______ _______ _______ _____ _____    ______ ____
ROOT
ATOM      1  N   UNL     1       2.163   1.387  -1.333  0.00  0.00    -0.187 NA
ATOM      2  H   UNL     1       1.475   1.933  -1.746  0.00  0.00    +0.148 HD
ENDROOT
BRANCH   1   8
ATOM      3  C   UNL     1       0.606  -0.499  -1.314  0.00  0.00    +0.013 C 
ATOM      4  C   UNL     1      -0.165   0.107  -2.488  0.00  0.00    +0.005 C 
ATOM      5  C   UNL     1       0.439  -0.387  -3.804  0.00  0.00    +0.000 C 
ATOM      6  C   UNL     1       1.907   0.038  -3.883  0.00  0.00    +0.002 C 
ATOM      7  C   UNL     1       2.678  -0.568  -2.709  0.00  0.00    +0.020 C 
ATOM      8  C   UNL     1       2.074  -0.074  -1.393  0.00  0.00    +0.080 C 
BRANCH   3  10
ATOM      9  C   UNL     1      -0.051   1.525  -0.004  0.00  0.00    +0.011 C 
ATOM     10  C   UNL     1       0.002  -0.004   0.002  0.00  0.00    -0.033 C 
ATOM     11  C   UNL     1       0.867  -0.479   1.171  0.00  0.00    +0.011 C 
ATOM     12  C   UNL     1      -1.414  -0.563   0.155  0.00  0.00    +0.011 C 
ENDBRANCH   3  10
ENDBRANCH   1   8
BRANCH   1  13
ATOM     13  S   UNL     1       3.438   2.109  -0.561  0.00  0.00    +0.062 S 
ATOM     14  O   UNL     1       3.255   3.511  -0.698  0.00  0.00    -0.153 OA
ATOM     15  O   UNL     1       3.556   1.476   0.705  0.00  0.00    -0.153 OA
BRANCH  13  16
ATOM     16  C   UNL     1       4.894   1.700  -1.466  0.00  0.00    +0.141 A 
ATOM     17  C   UNL     1       5.620   0.560  -1.164  0.00  0.00    +0.144 A 
ATOM     18  N   UNL     1       6.708   0.285  -1.865  0.00  0.00    -0.224 NA
ATOM     19  C   UNL     1       7.103   1.080  -2.840  0.00  0.00    +0.223 A 
ATOM     20  N   UNL     1       6.436   2.174  -3.156  0.00  0.00    -0.224 NA
ATOM     21  C   UNL     1       5.335   2.509  -2.502  0.00  0.00    +0.144 A 
ATOM     22 CL   UNL     1       8.537   0.678  -3.731  0.00  0.00    -0.041 Cl
ENDBRANCH  13  16
ENDBRANCH   1  13
TORSDOF 4
