REMARK  Name = ZINC20219856
REMARK  15 active torsions:
REMARK  status: ('A' for Active; 'I' for Inactive)
REMARK    1  A    between atoms: C_1  and  C_2
REMARK    2  A    between atoms: C_2  and  N_3
REMARK    3  A    between atoms: N_3  and  C_4
REMARK    4  A    between atoms: N_3  and  C_6
REMARK    5  A    between atoms: C_4  and  C_5
REMARK    6  A    between atoms: C_6  and  C_7
REMARK    7  A    between atoms: C_7  and  N_8
REMARK    8  A    between atoms: C_9  and  C_29
REMARK    9  A    between atoms: C_11  and  C_16
REMARK   10  A    between atoms: C_16  and  C_18
REMARK   11  A    between atoms: C_24  and  O_27
REMARK   12  A    between atoms: O_27  and  C_28
REMARK   13  A    between atoms: C_32  and  C_35
REMARK   14  A    between atoms: C_35  and  C_36
REMARK   15  A    between atoms: C_35  and  C_37
REMARK                            x       y       z     vdW  Elec       q    Type
REMARK                         _______ _______ _______ _____ _____    ______ ____
ROOT
ATOM      1  N   UNL     1      -3.737   0.215   0.791  0.00  0.00    -0.285 N 
ATOM      2  C   UNL     1      -4.807   0.101   1.789  0.00  0.00    +0.145 C 
ATOM      3  C   UNL     1      -5.368  -1.295   1.648  0.00  0.00    +0.079 C 
ATOM      4  C   UNL     1      -4.668  -1.898   0.659  0.00  0.00    +0.249 C 
ATOM      5  C   UNL     1      -3.663  -0.955   0.130  0.00  0.00    +0.288 C 
ATOM      6  O   UNL     1      -2.882  -1.199  -0.769  0.00  0.00    -0.266 OA
ATOM      7  O   UNL     1      -4.863  -3.164   0.221  0.00  0.00    -0.282 OA
ENDROOT
BRANCH   2   8
ATOM      8  C   UNL     1      -4.247   0.297   3.175  0.00  0.00    -0.022 A 
ATOM      9  C   UNL     1      -3.119  -0.398   3.568  0.00  0.00    +0.006 A 
ATOM     10  C   UNL     1      -2.603  -0.216   4.838  0.00  0.00    +0.004 A 
ATOM     11  C   UNL     1      -3.220   0.655   5.716  0.00  0.00    -0.045 A 
ATOM     12  C   UNL     1      -4.351   1.346   5.324  0.00  0.00    +0.004 A 
ATOM     13  C   UNL     1      -4.865   1.167   4.053  0.00  0.00    +0.006 A 
BRANCH  11  14
ATOM     14  C   UNL     1      -2.660   0.851   7.102  0.00  0.00    +0.013 C 
ATOM     15  C   UNL     1      -2.661  -0.487   7.845  0.00  0.00    +0.012 C 
ATOM     16  C   UNL     1      -1.228   1.379   7.003  0.00  0.00    +0.012 C 
ENDBRANCH  11  14
ENDBRANCH   2   8
BRANCH   3  17
ATOM     17  C   UNL     1      -6.460  -1.882   2.431  0.00  0.00    +0.230 C 
ATOM     18  O   UNL     1      -6.239  -2.820   3.177  0.00  0.00    -0.283 OA
BRANCH  17  19
ATOM     19  C   UNL     1      -7.821  -1.341   2.315  0.00  0.00    +0.176 A 
ATOM     20  C   UNL     1      -8.888  -1.735   3.063  0.00  0.00    +0.062 A 
ATOM     21  C   UNL     1     -10.021  -0.932   2.607  0.00  0.00    +0.025 A 
ATOM     22  C   UNL     1     -11.370  -0.859   2.966  0.00  0.00    +0.012 A 
ATOM     23  C   UNL     1     -12.196   0.024   2.330  0.00  0.00    +0.004 A 
ATOM     24  C   UNL     1     -11.705   0.850   1.327  0.00  0.00    +0.049 A 
ATOM     25  C   UNL     1     -10.375   0.794   0.956  0.00  0.00    +0.163 A 
ATOM     26  C   UNL     1      -9.515  -0.100   1.592  0.00  0.00    +0.177 A 
ATOM     27  O   UNL     1      -8.201  -0.372   1.456  0.00  0.00    -0.448 OA
BRANCH  25  28
ATOM     28  O   UNL     1      -9.907   1.609  -0.027  0.00  0.00    -0.491 OA
ATOM     29  C   UNL     1     -10.846   2.498  -0.635  0.00  0.00    +0.277 C 
ENDBRANCH  25  28
ENDBRANCH  17  19
ENDBRANCH   3  17
BRANCH   1  30
ATOM     30  C   UNL     1      -2.901   1.394   0.554  0.00  0.00    +0.090 C 
BRANCH  30  31
ATOM     31  C   UNL     1      -1.656   1.324   1.440  0.00  0.00    -0.060 C 
BRANCH  31  32
ATOM     32  N   UNL     1      -0.821   2.510   1.205  0.00  0.00    +0.380 N 
ATOM     33  H   UNL     1      -1.485   3.384   1.138  0.00  0.00    -0.082 HD
BRANCH  32  35
ATOM     34  C   UNL     1       0.900   1.236   0.015  0.00  0.00    -0.017 C 
ATOM     35  C   UNL     1      -0.093   2.397  -0.067  0.00  0.00    -0.082 C 
ENDBRANCH  32  35
BRANCH  32  36
ATOM     36  C   UNL     1       0.106   2.731   2.323  0.00  0.00    -0.082 C 
ATOM     37  C   UNL     1       0.778   4.096   2.166  0.00  0.00    -0.017 C 
ENDBRANCH  32  36
ENDBRANCH  31  32
ENDBRANCH  30  31
ENDBRANCH   1  30
TORSDOF 10
