REMARK  Name = ZINC35351870
REMARK  4 active torsions:
REMARK  status: ('A' for Active; 'I' for Inactive)
REMARK    1  A    between atoms: C_1  and  C_2
REMARK    2  A    between atoms: N_6  and  N_7
REMARK    3  A    between atoms: C_21  and  C_32
REMARK    4  A    between atoms: N_27  and  N_28
REMARK                            x       y       z     vdW  Elec       q    Type
REMARK                         _______ _______ _______ _____ _____    ______ ____
ROOT
ATOM      1  C   UNL     1      -0.105   1.620  -0.115  0.00  0.00    +0.016 C 
ATOM      2  C   UNL     1      -0.045   0.092  -0.109  0.00  0.00    -0.007 C 
ATOM      3  C   UNL     1       0.611  -0.423  -1.385  0.00  0.00    +0.017 C 
ATOM      4  C   UNL     1       2.068   0.043  -1.451  0.00  0.00    +0.058 C 
ATOM      5  C   UNL     1       2.785  -0.388  -0.196  0.00  0.00    +0.059 C 
ATOM      6  N   UNL     1       4.071  -0.575  -0.215  0.00  0.00    -0.184 NA
ATOM      7  C   UNL     1       2.032  -0.595   1.044  0.00  0.00    +0.024 C 
ATOM      8  C   UNL     1       0.727  -0.381   1.099  0.00  0.00    -0.062 C 
ATOM      9  C   UNL     1      -0.032  -0.615   2.385  0.00  0.00    +0.031 C 
ATOM     10  C   UNL     1      -1.063  -1.722   2.160  0.00  0.00    +0.008 C 
ATOM     11  C   UNL     1      -1.405  -1.835   0.681  0.00  0.00    -0.003 C 
ATOM     12  C   UNL     1      -1.474  -0.467   0.015  0.00  0.00    +0.002 C 
ATOM     13  C   UNL     1      -2.140  -0.519  -1.350  0.00  0.00    +0.005 C 
ATOM     14  C   UNL     1      -3.543  -1.129  -1.330  0.00  0.00    +0.013 C 
ATOM     15  C   UNL     1      -3.840  -1.785  -0.006  0.00  0.00    +0.011 C 
ATOM     16  C   UNL     1      -2.636  -2.651   0.422  0.00  0.00    +0.004 C 
ATOM     17  C   UNL     1      -3.222  -3.430   1.609  0.00  0.00    +0.010 C 
ATOM     18  C   UNL     1      -4.661  -3.754   1.121  0.00  0.00    +0.053 C 
ATOM     19  C   UNL     1      -4.941  -2.833  -0.059  0.00  0.00    +0.043 C 
ATOM     20  N   UNL     1      -5.882  -2.909  -0.913  0.00  0.00    -0.187 NA
ATOM     21  C   UNL     1      -4.248  -0.762   1.051  0.00  0.00    +0.018 C 
ENDROOT
BRANCH   6  22
ATOM     22  N   UNL     1       4.738  -0.975   0.950  0.00  0.00    -0.191 N 
ATOM     23  C   UNL     1       6.072  -1.169   0.931  0.00  0.00    +0.317 C 
ATOM     24  O   UNL     1       6.651  -1.516   1.942  0.00  0.00    -0.251 OA
ATOM     25  N   UNL     1       6.764  -0.977  -0.210  0.00  0.00    -0.312 N 
ATOM     26  H   UNL     1       4.240  -1.112   1.771  0.00  0.00    +0.179 HD
ATOM     27  H   UNL     1       6.302  -0.700  -1.017  0.00  0.00    +0.147 HD
ATOM     28  H   UNL     1       7.724  -1.117  -0.224  0.00  0.00    +0.147 HD
ENDBRANCH   6  22
BRANCH  20  29
ATOM     29  N   UNL     1      -6.825  -3.941  -0.826  0.00  0.00    -0.191 N 
ATOM     30  C   UNL     1      -7.821  -4.022  -1.730  0.00  0.00    +0.317 C 
ATOM     31  O   UNL     1      -8.640  -4.918  -1.654  0.00  0.00    -0.251 OA
ATOM     32  N   UNL     1      -7.911  -3.109  -2.718  0.00  0.00    -0.312 N 
ATOM     33  H   UNL     1      -6.761  -4.598  -0.115  0.00  0.00    +0.179 HD
ATOM     34  H   UNL     1      -7.258  -2.394  -2.778  0.00  0.00    +0.147 HD
ATOM     35  H   UNL     1      -8.628  -3.167  -3.368  0.00  0.00    +0.147 HD
ENDBRANCH  20  29
TORSDOF 2
