REMARK  Name = ZINC05414846
REMARK  12 active torsions:
REMARK  status: ('A' for Active; 'I' for Inactive)
REMARK    1  A    between atoms: C_1  and  C_2
REMARK    2  A    between atoms: C_2  and  C_3
REMARK    3  A    between atoms: C_3  and  C_5
REMARK    4  A    between atoms: C_3  and  C_6
REMARK    5  A    between atoms: C_11  and  N_12
REMARK    6  A    between atoms: C_13  and  C_15
REMARK    7  A    between atoms: C_15  and  C_17
REMARK    8  A    between atoms: C_15  and  S_18
REMARK    9  A    between atoms: S_18  and  C_19
REMARK   10  A    between atoms: N_23  and  C_24
REMARK   11  A    between atoms: C_27  and  C_31
REMARK   12  A    between atoms: C_29  and  C_30
REMARK                            x       y       z     vdW  Elec       q    Type
REMARK                         _______ _______ _______ _____ _____    ______ ____
ROOT
ATOM      1  C   UNL     1       0.303  -0.634  -0.359  0.00  0.00    +0.137 C 
ATOM      2  C   UNL     1       0.227  -0.954   1.135  0.00  0.00    +0.029 C 
ENDROOT
BRANCH   1   4
ATOM      3  N   UNL     1       1.580   1.480  -0.489  0.00  0.00    -0.284 N 
ATOM      4  C   UNL     1       0.386   0.858  -0.550  0.00  0.00    +0.230 C 
ATOM      5  O   UNL     1      -0.622   1.499  -0.764  0.00  0.00    -0.274 OA
ATOM      6  H   UNL     1       2.376   0.979  -0.255  0.00  0.00    +0.155 HD
BRANCH   3  12
ATOM      7  C   UNL     1       2.834   3.375  -1.306  0.00  0.00    -0.023 A 
ATOM      8  C   UNL     1       2.921   4.727  -1.575  0.00  0.00    +0.006 A 
ATOM      9  C   UNL     1       1.849   5.557  -1.302  0.00  0.00    +0.000 A 
ATOM     10  C   UNL     1       0.688   5.037  -0.759  0.00  0.00    +0.002 A 
ATOM     11  C   UNL     1       0.593   3.685  -0.494  0.00  0.00    +0.023 A 
ATOM     12  C   UNL     1       1.670   2.849  -0.762  0.00  0.00    +0.037 A 
BRANCH   7  13
ATOM     13  C   UNL     1       4.003   2.471  -1.604  0.00  0.00    +0.017 C 
ATOM     14  C   UNL     1       4.406   2.626  -3.072  0.00  0.00    +0.012 C 
BRANCH  13  16
ATOM     15  C   UNL     1       6.326   1.856  -0.921  0.00  0.00    +0.004 C 
ATOM     16  C   UNL     1       5.183   2.851  -0.709  0.00  0.00    +0.004 C 
ENDBRANCH  13  16
ENDBRANCH   7  13
ENDBRANCH   3  12
ENDBRANCH   1   4
BRANCH   1  17
ATOM     17  S   UNL     1      -1.177  -1.267  -1.187  0.00  0.00    -0.072 S 
BRANCH  17  18
ATOM     18  C   UNL     1      -0.949  -2.997  -0.941  0.00  0.00    +0.215 A 
ATOM     19  N   UNL     1       0.058  -3.573  -0.320  0.00  0.00    -0.101 NA
ATOM     20  N   UNL     1      -0.086  -4.849  -0.317  0.00  0.00    -0.022 NA
ATOM     21  N   UNL     1      -1.169  -5.181  -0.931  0.00  0.00    -0.038 NA
ATOM     22  N   UNL     1      -1.775  -3.988  -1.362  0.00  0.00    -0.187 N 
BRANCH  22  23
ATOM     23  C   UNL     1      -2.975  -3.851  -2.075  0.00  0.00    +0.073 A 
ATOM     24  C   UNL     1      -3.928  -2.929  -1.663  0.00  0.00    +0.028 A 
ATOM     25  C   UNL     1      -5.106  -2.793  -2.370  0.00  0.00    +0.005 A 
ATOM     26  C   UNL     1      -5.342  -3.581  -3.482  0.00  0.00    -0.050 A 
ATOM     27  C   UNL     1      -4.397  -4.503  -3.892  0.00  0.00    +0.008 A 
ATOM     28  C   UNL     1      -3.214  -4.641  -3.192  0.00  0.00    -0.025 A 
ATOM     29  C   UNL     1      -2.185  -5.647  -3.639  0.00  0.00    +0.046 C 
ATOM     30  C   UNL     1      -6.631  -3.434  -4.249  0.00  0.00    +0.044 C 
ENDBRANCH  22  23
ENDBRANCH  17  18
ENDBRANCH   1  17
TORSDOF 7
