REMARK  Name = ZINC50910910
REMARK  2 active torsions:
REMARK  status: ('A' for Active; 'I' for Inactive)
REMARK    1  A    between atoms: N_8  and  C_10
REMARK    2  A    between atoms: C_20  and  N_22
REMARK                            x       y       z     vdW  Elec       q    Type
REMARK                         _______ _______ _______ _____ _____    ______ ____
ROOT
ATOM      1  C   UNL     1       3.622  -3.376   0.162  0.00  0.00    +0.116 C 
ATOM      2  C   UNL     1       2.841  -4.668  -0.113  0.00  0.00    +0.249 C 
ATOM      3  O   UNL     1       3.460  -5.731   0.613  0.00  0.00    -0.490 OA
ATOM      4  C   UNL     1       4.806  -5.874   0.504  0.00  0.00    +0.125 A 
ATOM      5  C   UNL     1       5.378  -7.084   0.887  0.00  0.00    +0.046 A 
ATOM      6  C   UNL     1       6.742  -7.267   0.796  0.00  0.00    +0.004 A 
ATOM      7  C   UNL     1       7.546  -6.245   0.323  0.00  0.00    +0.001 A 
ATOM      8  C   UNL     1       6.981  -5.045  -0.060  0.00  0.00    +0.009 A 
ATOM      9  C   UNL     1       5.612  -4.856   0.027  0.00  0.00    +0.013 A 
ATOM     10  C   UNL     1       5.032  -3.534  -0.410  0.00  0.00    +0.105 C 
ENDROOT
BRANCH   1  18
ATOM     11  C   UNL     1      -0.354  -0.805  -3.517  0.00  0.00    +0.000 A 
ATOM     12  C   UNL     1      -1.024  -0.529  -2.339  0.00  0.00    +0.000 A 
ATOM     13  C   UNL     1      -0.471  -0.896  -1.127  0.00  0.00    +0.005 A 
ATOM     14  C   UNL     1       0.751  -1.539  -1.090  0.00  0.00    -0.029 A 
ATOM     15  C   UNL     1       1.422  -1.816  -2.269  0.00  0.00    -0.029 A 
ATOM     16  C   UNL     1       0.869  -1.449  -3.481  0.00  0.00    +0.005 A 
ATOM     17  C   UNL     1       2.717  -2.516  -1.924  0.00  0.00    +0.120 C 
ATOM     18  N   UNL     1       2.949  -2.243  -0.487  0.00  0.00    -0.286 NA
ATOM     19  C   UNL     1       1.587  -2.050   0.061  0.00  0.00    +0.120 C 
ENDBRANCH   1  18
BRANCH  10  20
ATOM     20  N   UNL     1       5.884  -2.441   0.078  0.00  0.00    -0.322 NA
ATOM     21  H   UNL     1       6.795  -2.472  -0.355  0.00  0.00    +0.119 HD
ATOM     22  H   UNL     1       5.443  -1.546  -0.071  0.00  0.00    +0.119 HD
ENDBRANCH  10  20
TORSDOF 2
