REMARK  Name = ZINC05019451
REMARK  7 active torsions:
REMARK  status: ('A' for Active; 'I' for Inactive)
REMARK    1  A    between atoms: C_1  and  O_2
REMARK    2  A    between atoms: O_2  and  C_3
REMARK    3  A    between atoms: C_5  and  N_22
REMARK    4  A    between atoms: C_8  and  C_9
REMARK    5  A    between atoms: N_11  and  C_12
REMARK    6  A    between atoms: C_17  and  O_19
REMARK    7  A    between atoms: O_19  and  C_20
REMARK                            x       y       z     vdW  Elec       q    Type
REMARK                         _______ _______ _______ _____ _____    ______ ____
ROOT
ATOM      1  C   UNL     1       0.002  -0.004   0.002  0.00  0.00    +0.248 C 
ATOM      2  O   UNL     1       1.063  -0.598  -0.011  0.00  0.00    -0.270 OA
ATOM      3  N   UNL     1      -0.016   1.344   0.009  0.00  0.00    -0.306 N 
ATOM      4  H   UNL     1      -0.863   1.817   0.016  0.00  0.00    +0.149 HD
ENDROOT
BRANCH   3   5
ATOM      5  C   UNL     1       1.242   2.093   0.001  0.00  0.00    +0.098 C 
ATOM      6  C   UNL     1       1.731   2.257  -1.440  0.00  0.00    +0.006 C 
ATOM      7  C   UNL     1       3.013   3.093  -1.447  0.00  0.00    -0.081 C 
ATOM      8  C   UNL     1       2.320   4.277   0.550  0.00  0.00    -0.049 C 
ATOM      9  C   UNL     1       1.018   3.477   0.618  0.00  0.00    +0.121 C 
ATOM     10  N   UNL     1       2.747   4.418  -0.855  0.00  0.00    +0.381 N 
ATOM     11  H   UNL     1       2.003   4.884  -1.389  0.00  0.00    -0.086 HD
ATOM     12  H   UNL     1       3.602   4.984  -0.894  0.00  0.00    -0.086 HD
BRANCH   9  13
ATOM     13  O   UNL     1       0.616   3.332   1.982  0.00  0.00    -0.380 OA
ATOM     14  C   UNL     1      -0.236   4.378   2.451  0.00  0.00    +0.194 C 
ENDBRANCH   9  13
ENDBRANCH   3   5
BRANCH   1  20
ATOM     15  C   UNL     1      -1.246  -2.161   0.002  0.00  0.00    +0.134 A 
ATOM     16  C   UNL     1      -2.441  -2.860   0.010  0.00  0.00    +0.070 A 
ATOM     17  C   UNL     1      -3.647  -2.171   0.025  0.00  0.00    +0.047 A 
ATOM     18  C   UNL     1      -3.658  -0.776   0.032  0.00  0.00    +0.062 A 
ATOM     19  C   UNL     1      -2.485  -0.077   0.031  0.00  0.00    +0.038 A 
ATOM     20  C   UNL     1      -1.263  -0.757   0.010  0.00  0.00    +0.080 A 
ATOM     21 CL   UNL     1      -5.171   0.075   0.051  0.00  0.00    -0.082 Cl
BRANCH  17  22
ATOM     22  N   UNL     1      -4.847  -2.874   0.033  0.00  0.00    -0.357 N 
ATOM     23  H   UNL     1      -4.841  -3.844   0.028  0.00  0.00    +0.142 HD
ATOM     24  H   UNL     1      -5.690  -2.394   0.043  0.00  0.00    +0.142 HD
ENDBRANCH  17  22
BRANCH  15  26
ATOM     25  C   UNL     1      -0.128  -4.256  -0.019  0.00  0.00    +0.277 C 
ATOM     26  O   UNL     1      -0.066  -2.829  -0.012  0.00  0.00    -0.494 OA
ENDBRANCH  15  26
ENDBRANCH   1  20
TORSDOF 5
