REMARK  Name = ZINC00964510
REMARK  11 active torsions:
REMARK  status: ('A' for Active; 'I' for Inactive)
REMARK    1  A    between atoms: C_1  and  C_2
REMARK    2  A    between atoms: C_6  and  N_8
REMARK    3  A    between atoms: C_9  and  C_38
REMARK    4  A    between atoms: C_12  and  S_13
REMARK    5  A    between atoms: S_13  and  C_14
REMARK    6  A    between atoms: C_14  and  C_15
REMARK    7  A    between atoms: C_17  and  C_20
REMARK    8  A    between atoms: N_22  and  C_23
REMARK    9  A    between atoms: C_23  and  C_25
REMARK   10  A    between atoms: C_23  and  C_32
REMARK   11  A    between atoms: C_25  and  C_26
REMARK                            x       y       z     vdW  Elec       q    Type
REMARK                         _______ _______ _______ _____ _____    ______ ____
ROOT
ATOM      1  C   UNL     1       4.741  -1.667   4.872  0.00  0.00    +0.206 A 
ATOM      2  N   UNL     1       4.952  -0.497   5.396  0.00  0.00    -0.208 NA
ATOM      3  C   UNL     1       6.273  -0.199   5.270  0.00  0.00    +0.164 A 
ATOM      4  C   UNL     1       6.862  -1.251   4.638  0.00  0.00    +0.230 A 
ATOM      5  O   UNL     1       5.898  -2.155   4.402  0.00  0.00    -0.446 OA
ENDROOT
BRANCH   3   6
ATOM      6  C   UNL     1       6.941   1.032   5.730  0.00  0.00    +0.266 C 
ATOM      7  O   UNL     1       8.136   1.177   5.554  0.00  0.00    -0.268 OA
ATOM      8  N   UNL     1       6.228   1.996   6.345  0.00  0.00    -0.303 N 
ATOM      9  H   UNL     1       5.276   1.880   6.485  0.00  0.00    +0.150 HD
BRANCH   8  10
ATOM     10  C   UNL     1       6.892   3.219   6.802  0.00  0.00    +0.108 C 
BRANCH  10  11
ATOM     11  C   UNL     1       6.970   4.204   5.664  0.00  0.00    -0.027 A 
ATOM     12  C   UNL     1       5.899   4.352   4.803  0.00  0.00    +0.005 A 
ATOM     13  C   UNL     1       5.970   5.255   3.760  0.00  0.00    +0.000 A 
ATOM     14  C   UNL     1       7.113   6.011   3.576  0.00  0.00    +0.000 A 
ATOM     15  C   UNL     1       8.184   5.864   4.438  0.00  0.00    +0.000 A 
ATOM     16  C   UNL     1       8.111   4.963   5.484  0.00  0.00    +0.005 A 
ENDBRANCH  10  11
BRANCH  10  17
ATOM     17  C   UNL     1       6.094   3.833   7.954  0.00  0.00    +0.062 C 
BRANCH  17  18
ATOM     18  C   UNL     1       6.120   2.899   9.137  0.00  0.00    -0.045 A 
ATOM     19  C   UNL     1       5.143   1.931   9.274  0.00  0.00    +0.004 A 
ATOM     20  C   UNL     1       5.167   1.075  10.359  0.00  0.00    +0.000 A 
ATOM     21  C   UNL     1       6.167   1.186  11.306  0.00  0.00    +0.000 A 
ATOM     22  C   UNL     1       7.145   2.154  11.168  0.00  0.00    +0.000 A 
ATOM     23  C   UNL     1       7.123   3.008  10.081  0.00  0.00    +0.004 A 
ENDBRANCH  17  18
ENDBRANCH  10  17
ENDBRANCH   8  10
ENDBRANCH   3   6
BRANCH   1  24
ATOM     24  C   UNL     1       3.409  -2.368   4.806  0.00  0.00    +0.173 C 
BRANCH  24  25
ATOM     25  S   UNL     1       2.565  -1.920   3.264  0.00  0.00    -0.076 S 
BRANCH  25  30
ATOM     26  N   UNL     1       0.052  -2.798   2.396  0.00  0.00    -0.274 N 
ATOM     27  C   UNL     1      -0.922  -3.633   2.878  0.00  0.00    +0.135 A 
ATOM     28  N   UNL     1      -0.509  -4.084   4.029  0.00  0.00    -0.133 NA
ATOM     29  N   UNL     1       0.647  -3.598   4.306  0.00  0.00    -0.122 NA
ATOM     30  C   UNL     1       1.044  -2.807   3.337  0.00  0.00    +0.197 A 
ATOM     31  C   UNL     1      -2.227  -3.966   2.203  0.00  0.00    +0.088 C 
BRANCH  26  37
ATOM     32  C   UNL     1      -0.018   1.503   0.010  0.00  0.00    +0.044 C 
ATOM     33  C   UNL     1       0.002  -0.004   0.002  0.00  0.00    -0.048 A 
ATOM     34  C   UNL     1       0.006  -0.688  -1.200  0.00  0.00    +0.003 A 
ATOM     35  C   UNL     1       0.025  -2.071  -1.211  0.00  0.00    +0.002 A 
ATOM     36  C   UNL     1       0.040  -2.772  -0.022  0.00  0.00    +0.026 A 
ATOM     37  C   UNL     1       0.036  -2.088   1.186  0.00  0.00    +0.050 A 
ATOM     38  C   UNL     1       0.023  -0.700   1.194  0.00  0.00    +0.029 A 
ENDBRANCH  26  37
ENDBRANCH  25  30
ENDBRANCH  24  25
ENDBRANCH   1  24
TORSDOF 9
