REMARK  Name = ZINC40752655
REMARK  11 active torsions:
REMARK  status: ('A' for Active; 'I' for Inactive)
REMARK    1  A    between atoms: C_1  and  C_2
REMARK    2  A    between atoms: C_2  and  O_3
REMARK    3  A    between atoms: O_3  and  C_4
REMARK    4  A    between atoms: C_4  and  C_6
REMARK    5  A    between atoms: C_13  and  N_24
REMARK    6  A    between atoms: C_14  and  N_18
REMARK    7  A    between atoms: N_18  and  N_19
REMARK    8  A    between atoms: N_19  and  C_20
REMARK    9  A    between atoms: C_20  and  C_21
REMARK   10  A    between atoms: C_20  and  C_22
REMARK   11  A    between atoms: C_20  and  C_23
REMARK                            x       y       z     vdW  Elec       q    Type
REMARK                         _______ _______ _______ _____ _____    ______ ____
ROOT
ATOM      1  C   UNL     1      -4.054  -1.561   0.057  0.00  0.00    +0.101 C 
ATOM      2  C   UNL     1      -5.513  -2.002   0.203  0.00  0.00    +0.033 C 
ATOM      3  C   UNL     1      -5.587  -3.531   0.148  0.00  0.00    +0.107 C 
ATOM      4  N   UNL     1      -4.937  -3.993  -1.086  0.00  0.00    -0.314 N 
ATOM      5  C   UNL     1      -3.564  -3.553  -1.368  0.00  0.00    +0.107 C 
ATOM      6  C   UNL     1      -3.512  -2.023  -1.297  0.00  0.00    +0.033 C 
ATOM      7  C   UNL     1      -5.608  -4.831  -1.969  0.00  0.00    +0.147 A 
ATOM      8  C   UNL     1      -5.463  -6.216  -1.880  0.00  0.00    +0.105 A 
ATOM      9  C   UNL     1      -6.160  -7.012  -2.791  0.00  0.00    +0.136 A 
ATOM     10  N   UNL     1      -6.930  -6.423  -3.704  0.00  0.00    -0.332 N 
ATOM     11  C   UNL     1      -7.038  -5.111  -3.753  0.00  0.00    +0.200 A 
ATOM     12  N   UNL     1      -6.402  -4.325  -2.909  0.00  0.00    -0.221 NA
ATOM     13  H   UNL     1      -7.417  -6.968  -4.341  0.00  0.00    +0.168 HD
ENDROOT
BRANCH   8  14
ATOM     14  N   UNL     1      -4.639  -6.795  -0.900  0.00  0.00    -0.353 N 
ATOM     15  H   UNL     1      -4.232  -6.237  -0.218  0.00  0.00    +0.143 HD
ATOM     16  H   UNL     1      -4.476  -7.751  -0.906  0.00  0.00    +0.143 HD
ENDBRANCH   8  14
BRANCH   1  17
ATOM     17  C   UNL     1      -3.973  -0.059   0.144  0.00  0.00    +0.310 C 
ATOM     18  O   UNL     1      -3.528   0.577  -0.782  0.00  0.00    -0.251 OA
BRANCH  17  19
ATOM     19  O   UNL     1      -4.396   0.573   1.250  0.00  0.00    -0.465 OA
BRANCH  19  21
ATOM     20  C   UNL     1      -4.816   2.536   2.596  0.00  0.00    +0.048 C 
ATOM     21  C   UNL     1      -4.290   1.998   1.264  0.00  0.00    +0.229 C 
ENDBRANCH  19  21
ENDBRANCH  17  19
ENDBRANCH   1  17
BRANCH   9  22
ATOM     22  N   UNL     1      -6.051  -8.397  -2.747  0.00  0.00    -0.264 N 
ATOM     23  H   UNL     1      -5.487  -8.818  -2.079  0.00  0.00    +0.168 HD
BRANCH  22  24
ATOM     24  N   UNL     1      -6.737  -9.165  -3.644  0.00  0.00    -0.236 NA
ATOM     25  H   UNL     1      -7.726  -8.966  -3.608  0.00  0.00    +0.145 HD
BRANCH  24  26
ATOM     26  C   UNL     1      -6.480 -10.594  -3.419  0.00  0.00    +0.028 C 
ATOM     27  C   UNL     1      -6.923 -10.975  -2.005  0.00  0.00    +0.029 C 
ATOM     28  C   UNL     1      -7.264 -11.420  -4.440  0.00  0.00    +0.029 C 
ATOM     29  C   UNL     1      -4.984 -10.873  -3.577  0.00  0.00    +0.029 C 
ENDBRANCH  24  26
ENDBRANCH  22  24
ENDBRANCH   9  22
TORSDOF 7
