REMARK  Name = ZINC23228884
REMARK  11 active torsions:
REMARK  status: ('A' for Active; 'I' for Inactive)
REMARK    1  A    between atoms: C_1  and  C_2
REMARK    2  A    between atoms: C_2  and  N_3
REMARK    3  A    between atoms: N_6  and  C_9
REMARK    4  A    between atoms: C_12  and  S_24
REMARK    5  A    between atoms: C_14  and  N_15
REMARK    6  A    between atoms: C_16  and  C_18
REMARK    7  A    between atoms: S_24  and  N_27
REMARK    8  A    between atoms: N_27  and  C_28
REMARK    9  A    between atoms: N_27  and  C_30
REMARK   10  A    between atoms: C_28  and  C_29
REMARK   11  A    between atoms: C_30  and  C_31
REMARK                            x       y       z     vdW  Elec       q    Type
REMARK                         _______ _______ _______ _____ _____    ______ ____
ROOT
ATOM      1  C   UNL     1       1.184   2.084  -0.011  0.00  0.00    +0.051 A 
ATOM      2  C   UNL     1       2.387   1.395  -0.036  0.00  0.00    +0.027 A 
ATOM      3  C   UNL     1       2.392   0.013  -0.051  0.00  0.00    +0.030 A 
ATOM      4  C   UNL     1       1.199  -0.687  -0.040  0.00  0.00    +0.107 A 
ATOM      5  C   UNL     1      -0.005  -0.008  -0.015  0.00  0.00    +0.053 A 
ATOM      6  C   UNL     1      -0.019   1.379  -0.001  0.00  0.00    +0.057 A 
ENDROOT
BRANCH   1  10
ATOM      7  N   UNL     1       2.364   6.071  -0.029  0.00  0.00    +0.382 N 
ATOM      8  C   UNL     1       1.779   5.529   1.206  0.00  0.00    -0.060 C 
ATOM      9  C   UNL     1       1.878   4.001   1.186  0.00  0.00    +0.086 C 
ATOM     10  N   UNL     1       1.177   3.483   0.003  0.00  0.00    -0.332 N 
ATOM     11  C   UNL     1       1.762   4.025  -1.232  0.00  0.00    +0.086 C 
ATOM     12  C   UNL     1       1.663   5.553  -1.212  0.00  0.00    -0.060 C 
ATOM     13  H   UNL     1       3.412   5.739  -0.082  0.00  0.00    -0.082 HD
BRANCH   7  15
ATOM     14  C   UNL     1       2.736   8.066  -1.399  0.00  0.00    -0.017 C 
ATOM     15  C   UNL     1       2.357   7.540  -0.014  0.00  0.00    -0.082 C 
ENDBRANCH   7  15
ENDBRANCH   1  10
BRANCH   6  16
ATOM     16  N   UNL     1      -1.238   2.069   0.019  0.00  0.00    -0.279 N 
ATOM     17  C   UNL     1      -2.341   1.474   0.514  0.00  0.00    +0.255 C 
ATOM     18  O   UNL     1      -2.259   0.377   1.036  0.00  0.00    -0.269 OA
ATOM     19  H   UNL     1      -1.295   3.096  -0.370  0.00  0.00    +0.155 HD
BRANCH  17  20
ATOM     20  C   UNL     1      -3.639   2.147   0.425  0.00  0.00    +0.076 A 
ATOM     21  C   UNL     1      -4.880   1.714   0.867  0.00  0.00    +0.022 A 
ATOM     22  C   UNL     1      -5.946   2.551   0.654  0.00  0.00    +0.028 A 
ATOM     23  C   UNL     1      -5.740   3.744   0.033  0.00  0.00    +0.079 A 
ATOM     24  S   UNL     1      -4.033   3.740  -0.273  0.00  0.00    -0.072 S 
ATOM     25 CL   UNL     1      -6.902   4.974  -0.353  0.00  0.00    -0.076 Cl
ENDBRANCH  17  20
ENDBRANCH   6  16
BRANCH   4  26
ATOM     26  S   UNL     1       1.214  -2.449  -0.059  0.00  0.00    +0.061 S 
ATOM     27  O   UNL     1       2.470  -2.850   0.469  0.00  0.00    -0.153 OA
ATOM     28  O   UNL     1      -0.020  -2.871   0.506  0.00  0.00    -0.153 OA
BRANCH  26  29
ATOM     29  N   UNL     1       1.194  -2.922  -1.646  0.00  0.00    -0.177 NA
BRANCH  29  30
ATOM     30  C   UNL     1       2.454  -3.120  -2.367  0.00  0.00    +0.106 C 
ATOM     31  C   UNL     1       2.846  -4.598  -2.311  0.00  0.00    +0.022 C 
ENDBRANCH  29  30
BRANCH  29  32
ATOM     32  C   UNL     1      -0.083  -3.142  -2.329  0.00  0.00    +0.106 C 
ATOM     33  C   UNL     1      -0.484  -1.872  -3.082  0.00  0.00    +0.022 C 
ENDBRANCH  29  32
ENDBRANCH  26  29
ENDBRANCH   4  26
TORSDOF 8
