REMARK  Name = ZINC34788575
REMARK  7 active torsions:
REMARK  status: ('A' for Active; 'I' for Inactive)
REMARK    1  A    between atoms: C_1  and  C_2
REMARK    2  A    between atoms: C_2  and  C_3
REMARK    3  A    between atoms: C_12  and  C_14
REMARK    4  A    between atoms: C_12  and  C_15
REMARK    5  A    between atoms: C_16  and  N_19
REMARK    6  A    between atoms: N_19  and  N_20
REMARK    7  A    between atoms: C_21  and  C_23
REMARK                            x       y       z     vdW  Elec       q    Type
REMARK                         _______ _______ _______ _____ _____    ______ ____
ROOT
ATOM      1  C   UNL     1       0.707  -0.490  -1.238  0.00  0.00    +0.097 C 
ATOM      2  N   UNL     1       1.188   0.381  -2.094  0.00  0.00    -0.230 NA
ATOM      3  C   UNL     1       1.849  -0.093  -3.170  0.00  0.00    +0.110 A 
ATOM      4  C   UNL     1       2.283  -1.394  -3.328  0.00  0.00    +0.025 A 
ATOM      5  C   UNL     1       2.951  -1.714  -4.509  0.00  0.00    -0.024 A 
ATOM      6  C   UNL     1       3.129  -0.715  -5.421  0.00  0.00    +0.021 A 
ATOM      7  S   UNL     1       2.371   0.698  -4.665  0.00  0.00    -0.071 S 
ATOM      8  C   UNL     1       3.813  -0.829  -6.743  0.00  0.00    +0.203 C 
ATOM      9  O   UNL     1       4.524  -2.078  -6.766  0.00  0.00    -0.368 OA
ATOM     10  C   UNL     1       3.735  -3.190  -6.335  0.00  0.00    +0.068 C 
ATOM     11  C   UNL     1       3.484  -3.110  -4.827  0.00  0.00    +0.071 C 
ATOM     12  C   UNL     1       4.474  -4.490  -6.657  0.00  0.00    +0.041 C 
ATOM     13  C   UNL     1       2.395  -3.176  -7.073  0.00  0.00    +0.041 C 
ATOM     14  C   UNL     1       1.994  -2.376  -2.193  0.00  0.00    +0.190 C 
ATOM     15  N   UNL     1       0.844  -1.836  -1.455  0.00  0.00    -0.312 N 
ATOM     16  H   UNL     1       0.168  -2.445  -1.117  0.00  0.00    +0.149 HD
ENDROOT
BRANCH   1  18
ATOM     17  C   UNL     1      -0.019   1.526   0.010  0.00  0.00    +0.011 C 
ATOM     18  C   UNL     1       0.002  -0.004   0.002  0.00  0.00    +0.068 C 
ENDBRANCH   1  18
BRANCH  14  19
ATOM     19  N   UNL     1       3.159  -2.474  -1.303  0.00  0.00    -0.216 NA
ATOM     20  H   UNL     1       3.954  -2.859  -1.790  0.00  0.00    +0.147 HD
BRANCH  19  21
ATOM     21  N   UNL     1       3.462  -1.259  -0.757  0.00  0.00    -0.246 N 
ATOM     22  C   UNL     1       4.503  -1.142   0.090  0.00  0.00    +0.278 C 
ATOM     23  O   UNL     1       5.172  -2.115   0.367  0.00  0.00    -0.270 OA
ATOM     24  H   UNL     1       2.927  -0.481  -0.979  0.00  0.00    +0.169 HD
BRANCH  22  25
ATOM     25  C   UNL     1       4.837   0.199   0.693  0.00  0.00    +0.268 C 
ATOM     26 CL   UNL     1       6.270   0.031   1.775  0.00  0.00    -0.074 Cl
ATOM     27 CL   UNL     1       5.211   1.373  -0.623  0.00  0.00    -0.074 Cl
ATOM     28 CL   UNL     1       3.429   0.795   1.649  0.00  0.00    -0.074 Cl
ENDBRANCH  22  25
ENDBRANCH  19  21
ENDBRANCH  14  19
TORSDOF 4
