REMARK  Name = ZINC20181221
REMARK  2 active torsions:
REMARK  status: ('A' for Active; 'I' for Inactive)
REMARK    1  A    between atoms: C_3  and  C_7
REMARK    2  A    between atoms: C_15  and  C_17
REMARK                            x       y       z     vdW  Elec       q    Type
REMARK                         _______ _______ _______ _____ _____    ______ ____
ROOT
ATOM      1  C   UNL     1      -0.014   1.209   0.009  0.00  0.00    +0.245 C 
ATOM      2  O   UNL     1       0.002  -0.004   0.002  0.00  0.00    -0.273 OA
ATOM      3  N   UNL     1       1.143   1.898   0.001  0.00  0.00    -0.296 N 
ATOM      4  C   UNL     1       1.139   3.368   0.003  0.00  0.00    +0.127 C 
ATOM      5  C   UNL     1       1.978   3.855   1.197  0.00  0.00    +0.127 C 
ATOM      6  N   UNL     1       3.268   3.151   1.181  0.00  0.00    -0.298 N 
ATOM      7  C   UNL     1       3.272   1.681   1.173  0.00  0.00    +0.127 C 
ATOM      8  C   UNL     1       2.433   1.194  -0.015  0.00  0.00    +0.127 C 
ATOM      9  C   UNL     1       4.426   3.840   1.173  0.00  0.00    +0.230 C 
ATOM     10  O   UNL     1       5.484   3.248   1.159  0.00  0.00    -0.274 OA
ENDROOT
BRANCH   1  13
ATOM     11  C   UNL     1      -2.805   2.179  -1.907  0.00  0.00    +0.031 C 
ATOM     12  C   UNL     1      -1.498   2.736  -1.293  0.00  0.00    +0.043 C 
ATOM     13  C   UNL     1      -1.330   1.944   0.019  0.00  0.00    +0.204 C 
ATOM     14  O   UNL     1      -2.415   1.005   0.097  0.00  0.00    -0.367 OA
ATOM     15  C   UNL     1      -3.507   1.560  -0.671  0.00  0.00    +0.161 C 
ENDBRANCH   1  13
BRANCH   9  16
ATOM     16  C   UNL     1       4.405   5.347   1.180  0.00  0.00    +0.204 C 
ATOM     17 CL   UNL     1       6.097   5.971   1.166  0.00  0.00    -0.116 Cl
ENDBRANCH   9  16
TORSDOF 2
