REMARK  Name = ZINC64220527
REMARK  10 active torsions:
REMARK  status: ('A' for Active; 'I' for Inactive)
REMARK    1  A    between atoms: C_1  and  C_2
REMARK    2  A    between atoms: C_5  and  C_20
REMARK    3  A    between atoms: C_7  and  S_8
REMARK    4  A    between atoms: S_8  and  N_11
REMARK    5  A    between atoms: N_11  and  C_12
REMARK    6  A    between atoms: C_17  and  O_18
REMARK    7  A    between atoms: O_18  and  C_19
REMARK    8  A    between atoms: N_22  and  N_23
REMARK    9  A    between atoms: C_24  and  C_26
REMARK   10  A    between atoms: C_26  and  C_27
REMARK                            x       y       z     vdW  Elec       q    Type
REMARK                         _______ _______ _______ _____ _____    ______ ____
ROOT
ATOM      1  C   UNL     1      -0.645   1.256  -0.096  0.00  0.00    +0.046 C 
ATOM      2  C   UNL     1      -0.474  -0.239  -0.018  0.00  0.00    -0.024 A 
ATOM      3  C   UNL     1      -0.711  -1.018  -1.137  0.00  0.00    +0.006 A 
ATOM      4  C   UNL     1      -0.557  -2.388  -1.073  0.00  0.00    +0.013 A 
ATOM      5  C   UNL     1      -0.162  -2.987   0.125  0.00  0.00    +0.040 A 
ATOM      6  C   UNL     1       0.075  -2.195   1.249  0.00  0.00    +0.042 A 
ATOM      7  C   UNL     1      -0.077  -0.826   1.170  0.00  0.00    +0.112 A 
ENDROOT
BRANCH   5   8
ATOM      8  C   UNL     1       0.005  -4.454   0.201  0.00  0.00    +0.260 C 
ATOM      9  O   UNL     1       0.349  -4.973   1.245  0.00  0.00    -0.269 OA
ATOM     10  N   UNL     1      -0.225  -5.216  -0.887  0.00  0.00    -0.230 N 
ATOM     11  H   UNL     1      -0.500  -4.802  -1.720  0.00  0.00    +0.173 HD
BRANCH  10  12
ATOM     12  N   UNL     1      -0.067  -6.606  -0.814  0.00  0.00    -0.234 N 
ATOM     13  C   UNL     1      -0.297  -7.368  -1.902  0.00  0.00    +0.233 C 
ATOM     14  O   UNL     1      -0.640  -6.850  -2.943  0.00  0.00    -0.274 OA
ATOM     15  H   UNL     1       0.208  -7.020   0.019  0.00  0.00    +0.173 HD
BRANCH  13  16
ATOM     16  C   UNL     1      -0.127  -8.863  -1.824  0.00  0.00    +0.130 C 
BRANCH  16  17
ATOM     17  C   UNL     1      -0.443  -9.475  -3.165  0.00  0.00    -0.033 C 
ATOM     18  C   UNL     1       0.438  -9.794  -4.141  0.00  0.00    -0.001 A 
ATOM     19  C   UNL     1       1.897  -9.670  -4.243  0.00  0.00    +0.010 A 
ATOM     20  C   UNL     1       2.513 -10.085  -5.373  0.00  0.00    +0.001 A 
ATOM     21  C   UNL     1       1.794 -10.628  -6.447  0.00  0.00    +0.002 A 
ATOM     22  C   UNL     1       0.452 -10.774  -6.428  0.00  0.00    +0.026 A 
ATOM     23  C   UNL     1      -0.298 -10.371  -5.288  0.00  0.00    +0.043 A 
ATOM     24  N   UNL     1      -1.583 -10.408  -5.032  0.00  0.00    -0.380 N 
ATOM     25  C   UNL     1      -1.808  -9.863  -3.688  0.00  0.00    +0.145 C 
ATOM     26  H   UNL     1      -2.270 -10.744  -5.629  0.00  0.00    +0.160 HD
ENDBRANCH  16  17
ENDBRANCH  13  16
ENDBRANCH  10  12
ENDBRANCH   5   8
BRANCH   7  27
ATOM     27  S   UNL     1       0.229   0.176   2.587  0.00  0.00    +0.073 S 
ATOM     28  O   UNL     1       0.572  -0.709   3.644  0.00  0.00    -0.150 OA
ATOM     29  O   UNL     1       1.088   1.226   2.163  0.00  0.00    -0.150 OA
BRANCH  27  30
ATOM     30  N   UNL     1      -1.209   0.881   3.007  0.00  0.00    -0.213 N 
ATOM     31  H   UNL     1      -1.291   1.848   3.017  0.00  0.00    +0.174 HD
BRANCH  30  32
ATOM     32  C   UNL     1      -2.307   0.083   3.348  0.00  0.00    +0.090 A 
ATOM     33  C   UNL     1      -2.115  -1.106   4.036  0.00  0.00    +0.028 A 
ATOM     34  C   UNL     1      -3.201  -1.893   4.373  0.00  0.00    +0.002 A 
ATOM     35  C   UNL     1      -4.479  -1.497   4.025  0.00  0.00    +0.004 A 
ATOM     36  C   UNL     1      -4.678  -0.313   3.338  0.00  0.00    +0.047 A 
ATOM     37  C   UNL     1      -3.596   0.483   3.002  0.00  0.00    +0.142 A 
BRANCH  37  38
ATOM     38  O   UNL     1      -3.791   1.651   2.332  0.00  0.00    -0.493 OA
ATOM     39  C   UNL     1      -5.139   1.997   2.011  0.00  0.00    +0.277 C 
ENDBRANCH  37  38
ENDBRANCH  30  32
ENDBRANCH  27  30
ENDBRANCH   7  27
TORSDOF 8
