REMARK  Name = ZINC33727049
REMARK  5 active torsions:
REMARK  status: ('A' for Active; 'I' for Inactive)
REMARK    1  A    between atoms: C_4  and  C_7
REMARK    2  A    between atoms: C_9  and  C_26
REMARK    3  A    between atoms: C_14  and  N_25
REMARK    4  A    between atoms: C_15  and  C_16
REMARK    5  A    between atoms: N_18  and  C_19
REMARK                            x       y       z     vdW  Elec       q    Type
REMARK                         _______ _______ _______ _____ _____    ______ ____
ROOT
ATOM      1  C   UNL     1       0.085   3.640  -0.507  0.00  0.00    +0.075 C 
ATOM      2  C   UNL     1       1.058   2.769   0.290  0.00  0.00    +0.138 C 
ATOM      3  C   UNL     1       0.963   1.343  -0.185  0.00  0.00    +0.067 C 
ATOM      4  S   UNL     1       2.271   0.424  -0.202  0.00  0.00    -0.039 S 
ATOM      5  N   UNL     1      -0.214   0.837  -0.594  0.00  0.00    -0.300 N 
ATOM      6  C   UNL     1      -1.350   1.612  -0.599  0.00  0.00    +0.094 C 
ATOM      7  C   UNL     1      -1.264   2.970  -0.553  0.00  0.00    +0.058 C 
ATOM      8  H   UNL     1      -0.277  -0.208  -0.930  0.00  0.00    +0.154 HD
ENDROOT
BRANCH   1  12
ATOM      9  C   UNL     1       1.558   4.151  -4.484  0.00  0.00    +0.000 A 
ATOM     10  C   UNL     1       1.357   5.253  -3.674  0.00  0.00    +0.000 A 
ATOM     11  C   UNL     1       0.880   5.088  -2.388  0.00  0.00    +0.004 A 
ATOM     12  C   UNL     1       0.605   3.820  -1.910  0.00  0.00    -0.039 A 
ATOM     13  C   UNL     1       0.811   2.717  -2.717  0.00  0.00    +0.004 A 
ATOM     14  C   UNL     1       1.284   2.883  -4.006  0.00  0.00    +0.000 A 
ENDBRANCH   1  12
BRANCH   2  15
ATOM     15  C   UNL     1       2.464   3.273   0.087  0.00  0.00    +0.221 C 
ATOM     16  O   UNL     1       2.667   4.233  -0.626  0.00  0.00    -0.275 OA
ATOM     17  N   UNL     1       3.495   2.657   0.698  0.00  0.00    -0.329 N 
ATOM     18  H   UNL     1       4.521   3.025   0.549  0.00  0.00    +0.145 HD
ATOM     19  H   UNL     1       3.311   1.787   1.344  0.00  0.00    +0.145 HD
ENDBRANCH   2  15
BRANCH   7  20
ATOM     20  C   UNL     1      -2.433   3.747  -0.553  0.00  0.00    +0.248 C 
ATOM     21  O   UNL     1      -3.524   3.208  -0.476  0.00  0.00    -0.270 OA
ATOM     22  N   UNL     1      -2.350   5.090  -0.637  0.00  0.00    -0.282 N 
ATOM     23  H   UNL     1      -1.373   5.572  -0.791  0.00  0.00    +0.155 HD
BRANCH  22  24
ATOM     24  C   UNL     1      -3.505   5.870  -0.530  0.00  0.00    +0.034 A 
ATOM     25  C   UNL     1      -3.626   7.041  -1.268  0.00  0.00    +0.023 A 
ATOM     26  C   UNL     1      -4.770   7.807  -1.163  0.00  0.00    +0.002 A 
ATOM     27  C   UNL     1      -5.791   7.415  -0.317  0.00  0.00    +0.000 A 
ATOM     28  C   UNL     1      -5.672   6.253   0.423  0.00  0.00    +0.002 A 
ATOM     29  C   UNL     1      -4.533   5.480   0.319  0.00  0.00    +0.023 A 
ENDBRANCH  22  24
ENDBRANCH   7  20
BRANCH   6  30
ATOM     30  N   UNL     1      -2.582   1.012  -0.646  0.00  0.00    -0.346 N 
ATOM     31  H   UNL     1      -3.494   1.628  -0.650  0.00  0.00    +0.143 HD
ATOM     32  H   UNL     1      -2.659  -0.084  -0.679  0.00  0.00    +0.143 HD
ENDBRANCH   6  30
TORSDOF 5
