REMARK  Name = ZINC36643164
REMARK  11 active torsions:
REMARK  status: ('A' for Active; 'I' for Inactive)
REMARK    1  A    between atoms: C_1  and  C_2
REMARK    2  A    between atoms: N_11  and  C_12
REMARK    3  A    between atoms: C_12  and  C_13
REMARK    4  A    between atoms: C_13  and  C_14
REMARK    5  A    between atoms: C_14  and  N_15
REMARK    6  A    between atoms: N_15  and  C_16
REMARK    7  A    between atoms: N_15  and  C_17
REMARK    8  A    between atoms: C_18  and  C_20
REMARK    9  A    between atoms: C_23  and  S_26
REMARK   10  A    between atoms: S_26  and  N_29
REMARK   11  A    between atoms: C_33  and  C_36
REMARK                            x       y       z     vdW  Elec       q    Type
REMARK                         _______ _______ _______ _____ _____    ______ ____
ROOT
ATOM      1  C   UNL     1       1.026   1.470   1.212  0.00  0.00    +0.044 C 
ATOM      2  C   UNL     1       0.775  -0.003   1.013  0.00  0.00    -0.049 A 
ATOM      3  C   UNL     1       0.564  -0.511  -0.261  0.00  0.00    +0.005 A 
ATOM      4  C   UNL     1       0.334  -1.846  -0.470  0.00  0.00    +0.029 A 
ATOM      5  C   UNL     1       0.304  -2.752   0.615  0.00  0.00    +0.080 A 
ATOM      6  C   UNL     1       0.523  -2.199   1.897  0.00  0.00    +0.041 A 
ATOM      7  C   UNL     1       0.758  -0.861   2.096  0.00  0.00    +0.020 A 
ATOM      8  S   UNL     1       0.408  -3.626   2.950  0.00  0.00    -0.052 S 
ATOM      9  C   UNL     1       0.088  -4.827   1.666  0.00  0.00    +0.168 A 
ATOM     10  N   UNL     1       0.092  -4.086   0.582  0.00  0.00    -0.224 NA
ATOM     11  N   UNL     1      -0.113  -6.191   1.784  0.00  0.00    -0.246 N 
ATOM     12  C   UNL     1      -0.080  -6.775   2.998  0.00  0.00    +0.252 C 
ATOM     13  O   UNL     1       0.053  -6.094   3.996  0.00  0.00    -0.270 OA
ENDROOT
BRANCH  12  14
ATOM     14  C   UNL     1      -0.204  -8.243   3.116  0.00  0.00    +0.037 A 
ATOM     15  C   UNL     1       0.431  -9.077   2.195  0.00  0.00    +0.015 A 
ATOM     16  C   UNL     1       0.310 -10.446   2.311  0.00  0.00    +0.029 A 
ATOM     17  C   UNL     1      -0.438 -10.993   3.338  0.00  0.00    +0.106 A 
ATOM     18  C   UNL     1      -1.070 -10.172   4.255  0.00  0.00    +0.029 A 
ATOM     19  C   UNL     1      -0.953  -8.801   4.154  0.00  0.00    +0.015 A 
BRANCH  17  20
ATOM     20  S   UNL     1      -0.587 -12.743   3.479  0.00  0.00    +0.061 S 
ATOM     21  O   UNL     1      -1.786 -12.992   4.200  0.00  0.00    -0.153 OA
ATOM     22  O   UNL     1      -0.353 -13.276   2.182  0.00  0.00    -0.153 OA
BRANCH  20  23
ATOM     23  N   UNL     1       0.659 -13.265   4.437  0.00  0.00    -0.176 NA
ATOM     24  C   UNL     1       1.951 -13.640   3.846  0.00  0.00    +0.109 C 
ATOM     25  C   UNL     1       3.061 -12.850   4.547  0.00  0.00    +0.017 C 
ATOM     26  C   UNL     1       2.970 -13.081   6.057  0.00  0.00    +0.006 C 
ATOM     27  C   UNL     1       1.619 -12.576   6.572  0.00  0.00    +0.002 C 
ATOM     28  C   UNL     1       0.495 -13.357   5.894  0.00  0.00    +0.112 C 
ATOM     29  C   UNL     1       1.543 -12.777   8.086  0.00  0.00    +0.009 C 
ENDBRANCH  20  23
ENDBRANCH  17  20
ENDBRANCH  12  14
BRANCH  11  30
ATOM     30  C   UNL     1      -0.363  -7.001   0.589  0.00  0.00    +0.114 C 
BRANCH  30  31
ATOM     31  C   UNL     1       0.940  -7.168  -0.195  0.00  0.00    +0.001 C 
BRANCH  31  32
ATOM     32  C   UNL     1       0.715  -8.136  -1.359  0.00  0.00    -0.078 C 
BRANCH  32  33
ATOM     33  N   UNL     1       1.966  -8.297  -2.111  0.00  0.00    +0.376 N 
ATOM     34  C   UNL     1       1.783  -9.316  -3.154  0.00  0.00    -0.097 C 
ATOM     35  C   UNL     1       2.330  -7.018  -2.735  0.00  0.00    -0.097 C 
ATOM     36  H   UNL     1       2.701  -8.587  -1.484  0.00  0.00    -0.083 HD
ENDBRANCH  32  33
ENDBRANCH  31  32
ENDBRANCH  30  31
ENDBRANCH  11  30
TORSDOF 7
