REMARK  Name = ZINC36065734
REMARK  10 active torsions:
REMARK  status: ('A' for Active; 'I' for Inactive)
REMARK    1  A    between atoms: C_4  and  C_7
REMARK    2  A    between atoms: C_7  and  N_8
REMARK    3  A    between atoms: C_9  and  C_11
REMARK    4  A    between atoms: C_14  and  C_16
REMARK    5  A    between atoms: C_16  and  N_17
REMARK    6  A    between atoms: N_17  and  C_18
REMARK    7  A    between atoms: N_17  and  C_29
REMARK    8  A    between atoms: C_18  and  C_19
REMARK    9  A    between atoms: C_22  and  C_25
REMARK   10  A    between atoms: C_29  and  C_30
REMARK                            x       y       z     vdW  Elec       q    Type
REMARK                         _______ _______ _______ _____ _____    ______ ____
ROOT
ATOM      1  N   UNL     1       4.149  -3.092   7.134  0.00  0.00    +0.391 N 
ATOM      2  H   UNL     1       3.318  -3.239   6.581  0.00  0.00    -0.080 HD
ENDROOT
BRANCH   1   3
ATOM      3  C   UNL     1       4.837  -1.880   6.671  0.00  0.00    +0.020 C 
BRANCH   3   7
ATOM      4  C   UNL     1       4.900  -1.862   3.049  0.00  0.00    +0.163 A 
ATOM      5  C   UNL     1       6.102  -2.443   3.312  0.00  0.00    +0.230 A 
ATOM      6  O   UNL     1       6.218  -2.516   4.647  0.00  0.00    -0.449 OA
ATOM      7  C   UNL     1       5.112  -1.992   5.194  0.00  0.00    +0.179 A 
ATOM      8  N   UNL     1       4.316  -1.591   4.248  0.00  0.00    -0.210 NA
BRANCH   4  10
ATOM      9  N   UNL     1       3.131  -0.985   1.607  0.00  0.00    -0.306 N 
ATOM     10  C   UNL     1       4.338  -1.574   1.717  0.00  0.00    +0.266 C 
ATOM     11  O   UNL     1       4.965  -1.867   0.717  0.00  0.00    -0.268 OA
ATOM     12  H   UNL     1       2.631  -0.751   2.405  0.00  0.00    +0.149 HD
BRANCH   9  13
ATOM     13  C   UNL     1       2.573  -0.699   0.283  0.00  0.00    +0.140 C 
BRANCH  13  17
ATOM     14  C   UNL     1      -1.250   1.157   0.717  0.00  0.00    +0.000 A 
ATOM     15  C   UNL     1      -0.108   1.933   0.660  0.00  0.00    +0.000 A 
ATOM     16  C   UNL     1       1.130   1.333   0.520  0.00  0.00    +0.005 A 
ATOM     17  C   UNL     1       1.224  -0.044   0.437  0.00  0.00    -0.030 A 
ATOM     18  C   UNL     1       0.082  -0.820   0.495  0.00  0.00    +0.005 A 
ATOM     19  C   UNL     1      -1.155  -0.220   0.634  0.00  0.00    +0.000 A 
ENDBRANCH  13  17
ENDBRANCH   9  13
ENDBRANCH   4  10
ENDBRANCH   3   7
ENDBRANCH   1   3
BRANCH   1  20
ATOM     20  C   UNL     1       3.775  -2.933   8.546  0.00  0.00    -0.042 C 
BRANCH  20  21
ATOM     21  C   UNL     1       2.749  -1.837   8.674  0.00  0.00    -0.064 A 
ATOM     22  C   UNL     1       3.146  -0.552   8.994  0.00  0.00    +0.002 A 
ATOM     23  C   UNL     1       2.205   0.454   9.111  0.00  0.00    +0.012 A 
ATOM     24  C   UNL     1       0.867   0.175   8.908  0.00  0.00    +0.055 A 
ATOM     25  C   UNL     1       0.469  -1.110   8.587  0.00  0.00    +0.012 A 
ATOM     26  C   UNL     1       1.411  -2.115   8.466  0.00  0.00    +0.002 A 
BRANCH  24  27
ATOM     27  C   UNL     1      -0.159   1.271   9.037  0.00  0.00    +0.417 C 
ATOM     28  F   UNL     1      -0.340   1.889   7.795  0.00  0.00    -0.166 F 
ATOM     29  F   UNL     1      -1.373   0.725   9.467  0.00  0.00    -0.166 F 
ATOM     30  F   UNL     1       0.283   2.217   9.968  0.00  0.00    -0.166 F 
ENDBRANCH  24  27
ENDBRANCH  20  21
ENDBRANCH   1  20
BRANCH   1  31
ATOM     31  C   UNL     1       5.043  -4.248   6.992  0.00  0.00    -0.042 C 
BRANCH  31  32
ATOM     32  C   UNL     1       4.296  -5.508   7.347  0.00  0.00    -0.060 A 
ATOM     33  C   UNL     1       4.376  -6.019   8.629  0.00  0.00    +0.005 A 
ATOM     34  C   UNL     1       3.692  -7.174   8.960  0.00  0.00    +0.050 A 
ATOM     35  C   UNL     1       2.925  -7.823   8.007  0.00  0.00    +0.166 A 
ATOM     36  C   UNL     1       2.844  -7.308   6.715  0.00  0.00    +0.166 A 
ATOM     37  C   UNL     1       3.528  -6.147   6.392  0.00  0.00    +0.051 A 
ATOM     38  O   UNL     1       2.036  -8.120   5.972  0.00  0.00    -0.453 OA
ATOM     39  C   UNL     1       1.952  -9.355   6.707  0.00  0.00    +0.466 C 
ATOM     40  O   UNL     1       2.167  -8.956   8.073  0.00  0.00    -0.453 OA
ENDBRANCH  31  32
ENDBRANCH   1  31
TORSDOF 10
