REMARK  Name = ZINC47670313
REMARK  6 active torsions:
REMARK  status: ('A' for Active; 'I' for Inactive)
REMARK    1  A    between atoms: C_5  and  C_6
REMARK    2  A    between atoms: C_6  and  C_7
REMARK    3  A    between atoms: C_7  and  N_8
REMARK    4  A    between atoms: C_9  and  C_11
REMARK    5  A    between atoms: C_11  and  C_12
REMARK    6  A    between atoms: C_12  and  N_13
REMARK                            x       y       z     vdW  Elec       q    Type
REMARK                         _______ _______ _______ _____ _____    ______ ____
ROOT
ATOM      1  N   UNL     1      -2.688  -2.225  -1.425  0.00  0.00    -0.315 N 
ATOM      2  C   UNL     1      -3.217  -2.650  -2.589  0.00  0.00    +0.215 C 
ATOM      3  O   UNL     1      -2.762  -2.257  -3.642  0.00  0.00    -0.276 OA
ATOM      4  H   UNL     1      -3.052  -2.540  -0.583  0.00  0.00    +0.149 HD
ENDROOT
BRANCH   1   5
ATOM      5  C   UNL     1      -1.562  -1.288  -1.432  0.00  0.00    +0.109 C 
BRANCH   5   6
ATOM      6  C   UNL     1      -1.156  -0.969   0.009  0.00  0.00    +0.061 C 
BRANCH   6  11
ATOM      7  C   UNL     1      -0.016   1.351   0.009  0.00  0.00    +0.012 A 
ATOM      8  C   UNL     1       1.183   2.038   0.002  0.00  0.00    +0.023 A 
ATOM      9  C   UNL     1       2.343   1.335  -0.013  0.00  0.00    +0.055 A 
ATOM     10  S   UNL     1       1.753  -0.350  -0.017  0.00  0.00    -0.086 S 
ATOM     11  C   UNL     1       0.002  -0.004   0.002  0.00  0.00    -0.008 A 
ATOM     12 BR   UNL     1       4.123   1.974  -0.027  0.00  0.00    -0.043 Br
ENDBRANCH   6  11
ENDBRANCH   5   6
ENDBRANCH   1   5
BRANCH   2  13
ATOM     13  C   UNL     1      -4.375  -3.615  -2.583  0.00  0.00    +0.114 C 
BRANCH  13  14
ATOM     14  C   UNL     1      -4.781  -3.934  -4.023  0.00  0.00    +0.115 C 
BRANCH  14  15
ATOM     15  N   UNL     1      -5.907  -4.872  -4.016  0.00  0.00    -0.299 N 
ATOM     16  C   UNL     1      -6.436  -5.297  -5.181  0.00  0.00    +0.297 C 
ATOM     17  O   UNL     1      -5.980  -4.902  -6.236  0.00  0.00    -0.253 OA
ATOM     18  N   UNL     1      -7.472  -6.160  -5.175  0.00  0.00    -0.313 N 
ATOM     19  H   UNL     1      -6.271  -5.187  -3.174  0.00  0.00    +0.150 HD
ATOM     20  H   UNL     1      -7.836  -6.474  -4.333  0.00  0.00    +0.146 HD
ATOM     21  H   UNL     1      -7.853  -6.465  -6.013  0.00  0.00    +0.146 HD
ENDBRANCH  14  15
ENDBRANCH  13  14
ENDBRANCH   2  13
TORSDOF 6
