REMARK  Name = ZINC02969018
REMARK  9 active torsions:
REMARK  status: ('A' for Active; 'I' for Inactive)
REMARK    1  A    between atoms: C_1  and  C_2
REMARK    2  A    between atoms: C_2  and  C_3
REMARK    3  A    between atoms: C_2  and  C_4
REMARK    4  A    between atoms: C_4  and  C_5
REMARK    5  A    between atoms: C_5  and  N_6
REMARK    6  A    between atoms: C_7  and  C_9
REMARK    7  A    between atoms: C_9  and  S_10
REMARK    8  A    between atoms: S_10  and  C_11
REMARK    9  A    between atoms: C_22  and  C_24
REMARK                            x       y       z     vdW  Elec       q    Type
REMARK                         _______ _______ _______ _____ _____    ______ ____
ROOT
ATOM      1  C   UNL     1       7.151   2.749  -0.054  0.00  0.00    +0.192 A 
ATOM      2  N   UNL     1       7.808   3.881  -0.054  0.00  0.00    -0.222 NA
ATOM      3  C   UNL     1       7.175   5.078  -0.042  0.00  0.00    +0.077 A 
ATOM      4  C   UNL     1       7.889   6.280  -0.041  0.00  0.00    +0.028 A 
ATOM      5  C   UNL     1       7.212   7.477  -0.029  0.00  0.00    +0.002 A 
ATOM      6  C   UNL     1       5.823   7.509  -0.015  0.00  0.00    +0.001 A 
ATOM      7  C   UNL     1       5.096   6.339  -0.015  0.00  0.00    +0.014 A 
ATOM      8  C   UNL     1       5.761   5.115  -0.028  0.00  0.00    +0.045 A 
ATOM      9  C   UNL     1       5.040   3.837  -0.027  0.00  0.00    +0.168 A 
ATOM     10  N   UNL     1       5.783   2.686  -0.040  0.00  0.00    -0.188 N 
ATOM     11  N   UNL     1       4.864   1.629  -0.031  0.00  0.00    -0.143 NA
ATOM     12  C   UNL     1       3.660   2.164  -0.022  0.00  0.00    +0.182 A 
ATOM     13  N   UNL     1       3.770   3.497  -0.016  0.00  0.00    -0.206 NA
ENDROOT
BRANCH  12  14
ATOM     14  C   UNL     1       2.384   1.408  -0.013  0.00  0.00    +0.021 A 
ATOM     15  C   UNL     1       1.168   2.088   0.002  0.00  0.00    +0.011 A 
ATOM     16  C   UNL     1      -0.017   1.379   0.010  0.00  0.00    +0.001 A 
ATOM     17  C   UNL     1       0.002  -0.004   0.002  0.00  0.00    +0.000 A 
ATOM     18  C   UNL     1       1.206  -0.684  -0.013  0.00  0.00    +0.001 A 
ATOM     19  C   UNL     1       2.397   0.014  -0.020  0.00  0.00    +0.011 A 
ENDBRANCH  12  14
BRANCH   1  20
ATOM     20  S   UNL     1       8.064   1.243  -0.071  0.00  0.00    -0.077 S 
BRANCH  20  21
ATOM     21  C   UNL     1       9.751   1.899  -0.084  0.00  0.00    +0.173 C 
BRANCH  21  23
ATOM     22  N   UNL     1      12.059   1.007  -0.112  0.00  0.00    -0.315 N 
ATOM     23  C   UNL     1      10.734   0.757  -0.100  0.00  0.00    +0.223 C 
ATOM     24  O   UNL     1      10.334  -0.388  -0.102  0.00  0.00    -0.275 OA
ATOM     25  H   UNL     1      12.379   1.923  -0.110  0.00  0.00    +0.149 HD
BRANCH  22  26
ATOM     26  C   UNL     1      13.014  -0.103  -0.127  0.00  0.00    +0.104 C 
BRANCH  26  27
ATOM     27  C   UNL     1      14.440   0.451  -0.138  0.00  0.00    +0.022 C 
BRANCH  27  29
ATOM     28  C   UNL     1      15.296  -1.485  -1.464  0.00  0.00    +0.007 C 
ATOM     29  C   UNL     1      15.438  -0.708  -0.154  0.00  0.00    -0.016 C 
ATOM     30  C   UNL     1      16.861  -0.158  -0.039  0.00  0.00    +0.007 C 
ENDBRANCH  27  29
ENDBRANCH  26  27
ENDBRANCH  22  26
ENDBRANCH  21  23
ENDBRANCH  20  21
ENDBRANCH   1  20
TORSDOF 7
