REMARK  Name = ZINC41585988
REMARK  9 active torsions:
REMARK  status: ('A' for Active; 'I' for Inactive)
REMARK    1  A    between atoms: C_1  and  C_2
REMARK    2  A    between atoms: C_2  and  O_3
REMARK    3  A    between atoms: O_3  and  C_4
REMARK    4  A    between atoms: N_9  and  C_12
REMARK    5  A    between atoms: C_12  and  C_13
REMARK    6  A    between atoms: C_14  and  O_32
REMARK    7  A    between atoms: C_16  and  C_31
REMARK    8  A    between atoms: C_21  and  C_22
REMARK    9  A    between atoms: C_25  and  C_28
REMARK                            x       y       z     vdW  Elec       q    Type
REMARK                         _______ _______ _______ _____ _____    ______ ____
ROOT
ATOM      1  C   UNL     1       4.325  -5.184   4.796  0.00  0.00    +0.051 A 
ATOM      2  C   UNL     1       4.192  -5.387   6.160  0.00  0.00    +0.125 A 
ATOM      3  C   UNL     1       4.458  -6.633   6.720  0.00  0.00    +0.050 A 
ATOM      4  C   UNL     1       4.855  -7.672   5.926  0.00  0.00    -0.033 A 
ATOM      5  C   UNL     1       4.993  -7.482   4.551  0.00  0.00    +0.071 A 
ATOM      6  C   UNL     1       4.723  -6.231   3.974  0.00  0.00    +0.148 A 
ATOM      7  O   UNL     1       4.918  -6.292   2.638  0.00  0.00    -0.451 OA
ATOM      8  C   UNL     1       5.309  -7.526   2.243  0.00  0.00    +0.176 C 
ATOM      9  C   UNL     1       5.585  -7.910   0.972  0.00  0.00    +0.058 C 
ATOM     10  C   UNL     1       5.393  -8.372   3.445  0.00  0.00    +0.232 C 
ATOM     11  O   UNL     1       5.708  -9.547   3.510  0.00  0.00    -0.283 OA
ATOM     12  C   UNL     1       5.143  -9.020   6.534  0.00  0.00    +0.045 C 
ENDROOT
BRANCH   9  13
ATOM     13  C   UNL     1       5.606  -6.914  -0.109  0.00  0.00    -0.021 A 
ATOM     14  C   UNL     1       5.511  -5.550   0.189  0.00  0.00    +0.008 A 
ATOM     15  C   UNL     1       5.531  -4.622  -0.830  0.00  0.00    +0.004 A 
ATOM     16  C   UNL     1       5.644  -5.037  -2.146  0.00  0.00    -0.050 A 
ATOM     17  C   UNL     1       5.738  -6.384  -2.450  0.00  0.00    +0.004 A 
ATOM     18  C   UNL     1       5.726  -7.324  -1.441  0.00  0.00    +0.008 A 
ATOM     19  C   UNL     1       5.665  -4.016  -3.254  0.00  0.00    +0.044 C 
ENDBRANCH   9  13
BRANCH   2  20
ATOM     20  O   UNL     1       3.798  -4.362   6.958  0.00  0.00    -0.506 OA
ATOM     21  H   UNL     1       2.840  -4.298   7.072  0.00  0.00    +0.292 HD
ENDBRANCH   2  20
BRANCH   1  22
ATOM     22  C   UNL     1       4.034  -3.829   4.204  0.00  0.00    +0.127 C 
BRANCH  22  28
ATOM     23  C   UNL     1      -0.428  -3.015   1.226  0.00  0.00    +0.403 C 
ATOM     24  O   UNL     1      -0.747  -3.877   0.431  0.00  0.00    -0.226 OA
ATOM     25  N   UNL     1       0.330  -3.330   2.295  0.00  0.00    -0.265 N 
ATOM     26  C   UNL     1       0.721  -2.303   3.272  0.00  0.00    +0.126 C 
ATOM     27  C   UNL     1       2.238  -2.377   3.475  0.00  0.00    +0.104 C 
ATOM     28  N   UNL     1       2.615  -3.752   3.834  0.00  0.00    -0.295 NA
ATOM     29  C   UNL     1       2.302  -4.690   2.748  0.00  0.00    +0.104 C 
ATOM     30  C   UNL     1       0.782  -4.712   2.518  0.00  0.00    +0.126 C 
BRANCH  23  31
ATOM     31  O   UNL     1      -0.833  -1.744   1.039  0.00  0.00    -0.451 OA
BRANCH  31  33
ATOM     32  C   UNL     1      -1.994   0.005  -0.158  0.00  0.00    +0.048 C 
ATOM     33  C   UNL     1      -1.634  -1.482  -0.115  0.00  0.00    +0.230 C 
ENDBRANCH  31  33
ENDBRANCH  23  31
ENDBRANCH  22  28
ENDBRANCH   1  22
TORSDOF 6
