REMARK  Name = ZINC16121467
REMARK  11 active torsions:
REMARK  status: ('A' for Active; 'I' for Inactive)
REMARK    1  A    between atoms: C_3  and  N_25
REMARK    2  A    between atoms: C_6  and  C_7
REMARK    3  A    between atoms: C_10  and  N_13
REMARK    4  A    between atoms: N_13  and  C1*_14
REMARK    5  A    between atoms: C3*_17  and  O3*_24
REMARK    6  A    between atoms: C4*_19  and  C5*_22
REMARK    7  A    between atoms: C5*_22  and  O5*_23
REMARK    8  A    between atoms: N_25  and  C1*_26
REMARK    9  A    between atoms: C3*_29  and  O3*_36
REMARK   10  A    between atoms: C4*_31  and  C5*_34
REMARK   11  A    between atoms: C5*_34  and  O5*_35
REMARK                            x       y       z     vdW  Elec       q    Type
REMARK                         _______ _______ _______ _____ _____    ______ ____
ROOT
ATOM      1  C   UNL     1       0.203   8.217  -3.214  0.00  0.00    +0.010 A 
ATOM      2  C   UNL     1      -0.430   7.007  -3.406  0.00  0.00    +0.023 A 
ATOM      3  C   UNL     1       0.116   5.844  -2.874  0.00  0.00    +0.029 A 
ATOM      4  C   UNL     1       1.298   5.899  -2.144  0.00  0.00    +0.023 A 
ATOM      5  C   UNL     1       1.936   7.106  -1.954  0.00  0.00    +0.010 A 
ATOM      6  C   UNL     1       1.391   8.274  -2.486  0.00  0.00    -0.018 A 
ENDROOT
BRANCH   6   7
ATOM      7  C   UNL     1       2.073   9.574  -2.279  0.00  0.00    -0.018 A 
ATOM      8  C   UNL     1       1.530  10.741  -2.817  0.00  0.00    +0.010 A 
ATOM      9  C   UNL     1       2.163  11.949  -2.618  0.00  0.00    +0.023 A 
ATOM     10  C   UNL     1       3.348  12.004  -1.893  0.00  0.00    +0.029 A 
ATOM     11  C   UNL     1       3.893  10.841  -1.361  0.00  0.00    +0.023 A 
ATOM     12  C   UNL     1       3.261   9.631  -1.552  0.00  0.00    +0.010 A 
BRANCH  10  13
ATOM     13  N   UNL     1       3.990  13.228  -1.697  0.00  0.00    -0.319 N 
ATOM     14  H   UNL     1       4.816  13.267  -1.190  0.00  0.00    +0.148 HD
BRANCH  13  15
ATOM     15  C1* UNL     1       3.416  14.454  -2.257  0.00  0.00    +0.206 C 
ATOM     16  C2* UNL     1       3.669  15.648  -1.310  0.00  0.00    +0.085 C 
ATOM     17  C3* UNL     1       4.958  16.298  -1.863  0.00  0.00    +0.150 C 
ATOM     18  C4* UNL     1       5.330  15.419  -3.077  0.00  0.00    +0.174 C 
ATOM     19  O4* UNL     1       4.087  14.808  -3.486  0.00  0.00    -0.351 OA
BRANCH  17  20
ATOM     20  O3* UNL     1       4.704  17.642  -2.276  0.00  0.00    -0.389 OA
ATOM     21  H3* UNL     1       4.407  18.223  -1.562  0.00  0.00    +0.210 HD
ENDBRANCH  17  20
BRANCH  18  22
ATOM     22  C5* UNL     1       5.897  16.283  -4.205  0.00  0.00    +0.190 C 
BRANCH  22  23
ATOM     23  O5* UNL     1       6.343  15.443  -5.272  0.00  0.00    -0.392 OA
ATOM     24  H5* UNL     1       6.715  15.924  -6.023  0.00  0.00    +0.210 HD
ENDBRANCH  22  23
ENDBRANCH  18  22
ENDBRANCH  13  15
ENDBRANCH  10  13
ENDBRANCH   6   7
BRANCH   3  25
ATOM     25  N   UNL     1      -0.526   4.620  -3.070  0.00  0.00    -0.319 N 
ATOM     26  H   UNL     1      -1.352   4.581  -3.576  0.00  0.00    +0.148 HD
BRANCH  25  27
ATOM     27  C1* UNL     1       0.049   3.394  -2.510  0.00  0.00    +0.206 C 
ATOM     28  C2* UNL     1      -0.159   2.208  -3.486  0.00  0.00    +0.085 C 
ATOM     29  C3* UNL     1      -0.105   1.006  -2.504  0.00  0.00    +0.150 C 
ATOM     30  C4* UNL     1      -0.753   1.593  -1.232  0.00  0.00    +0.174 C 
ATOM     31  O4* UNL     1      -0.648   3.019  -1.311  0.00  0.00    -0.351 OA
BRANCH  29  32
ATOM     32  O3* UNL     1       1.246   0.614  -2.253  0.00  0.00    -0.389 OA
ATOM     33  H3* UNL     1       1.696   0.239  -3.023  0.00  0.00    +0.210 HD
ENDBRANCH  29  32
BRANCH  30  34
ATOM     34  C5* UNL     1      -0.013   1.086   0.008  0.00  0.00    +0.190 C 
BRANCH  34  35
ATOM     35  O5* UNL     1      -0.682   1.547   1.184  0.00  0.00    -0.392 OA
ATOM     36  H5* UNL     1      -0.266   1.262   2.009  0.00  0.00    +0.210 HD
ENDBRANCH  34  35
ENDBRANCH  30  34
ENDBRANCH  25  27
ENDBRANCH   3  25
TORSDOF 11
