REMARK  Name = ZINC30975735
REMARK  10 active torsions:
REMARK  status: ('A' for Active; 'I' for Inactive)
REMARK    1  A    between atoms: C_1  and  C_2
REMARK    2  A    between atoms: C_5  and  C_8
REMARK    3  A    between atoms: C_10  and  C_13
REMARK    4  A    between atoms: C_13  and  N_14
REMARK    5  A    between atoms: C_17  and  C_20
REMARK    6  A    between atoms: N_22  and  C_23
REMARK    7  A    between atoms: C_23  and  C_24
REMARK    8  A    between atoms: C_24  and  S_25
REMARK    9  A    between atoms: S_25  and  C_26
REMARK   10  A    between atoms: C_26  and  C_27
REMARK                            x       y       z     vdW  Elec       q    Type
REMARK                         _______ _______ _______ _____ _____    ______ ____
ROOT
ATOM      1  N   UNL     1      -3.851   2.500   1.313  0.00  0.00    +0.386 N 
ATOM      2  C   UNL     1      -3.812   1.686   0.091  0.00  0.00    -0.077 C 
ATOM      3  C   UNL     1      -2.481   0.935   0.019  0.00  0.00    -0.006 C 
ATOM      4  C   UNL     1      -1.330   1.944   0.019  0.00  0.00    +0.071 C 
ATOM      5  C   UNL     1      -1.421   2.811   1.278  0.00  0.00    -0.006 C 
ATOM      6  C   UNL     1      -2.783   3.508   1.313  0.00  0.00    -0.077 C 
ATOM      7  H   UNL     1      -3.679   1.829   2.167  0.00  0.00    -0.081 HD
ENDROOT
BRANCH   4   8
ATOM      8  C   UNL     1      -0.014   1.209   0.009  0.00  0.00    +0.216 C 
ATOM      9  O   UNL     1       0.002  -0.004   0.002  0.00  0.00    -0.276 OA
ATOM     10  N   UNL     1       1.143   1.898   0.001  0.00  0.00    -0.314 N 
ATOM     11  H   UNL     1       1.129   2.998   0.007  0.00  0.00    +0.149 HD
BRANCH  10  12
ATOM     12  C   UNL     1       2.422   1.183  -0.015  0.00  0.00    +0.115 C 
BRANCH  12  13
ATOM     13  C   UNL     1       3.571   2.193  -0.020  0.00  0.00    +0.088 C 
BRANCH  13  14
ATOM     14  S   UNL     1       5.154   1.308  -0.040  0.00  0.00    -0.154 S 
BRANCH  14  15
ATOM     15  C   UNL     1       6.397   2.630  -0.045  0.00  0.00    +0.108 C 
BRANCH  15  16
ATOM     16  C   UNL     1       7.776   2.023  -0.061  0.00  0.00    +0.016 A 
ATOM     17  C   UNL     1       8.398   1.750  -1.268  0.00  0.00    +0.129 A 
ATOM     18  C   UNL     1       9.666   1.192  -1.281  0.00  0.00    +0.039 A 
ATOM     19  C   UNL     1      10.309   0.908  -0.091  0.00  0.00    +0.004 A 
ATOM     20  C   UNL     1       9.687   1.181   1.113  0.00  0.00    +0.020 A 
ATOM     21  C   UNL     1       8.423   1.743   1.129  0.00  0.00    +0.048 A 
ATOM     22 CL   UNL     1       7.646   2.091   2.642  0.00  0.00    -0.083 Cl
ATOM     23  F   UNL     1       7.770   2.028  -2.431  0.00  0.00    -0.205 F 
ENDBRANCH  15  16
ENDBRANCH  14  15
ENDBRANCH  13  14
ENDBRANCH  12  13
ENDBRANCH  10  12
ENDBRANCH   4   8
BRANCH   1  24
ATOM     24  C   UNL     1      -5.168   3.127   1.486  0.00  0.00    +0.022 C 
BRANCH  24  27
ATOM     25  C   UNL     1      -5.162   5.076   4.505  0.00  0.00    +0.202 A 
ATOM     26  N   UNL     1      -4.917   4.970   3.180  0.00  0.00    -0.193 NA
ATOM     27  C   UNL     1      -5.253   3.747   2.857  0.00  0.00    +0.211 A 
ATOM     28  O   UNL     1      -5.691   3.152   3.971  0.00  0.00    -0.340 OA
ATOM     29  N   UNL     1      -5.628   3.922   4.905  0.00  0.00    -0.056 NA
BRANCH  25  34
ATOM     30  C   UNL     1      -4.307   9.738   7.778  0.00  0.00    +0.044 C 
ATOM     31  C   UNL     1      -4.531   8.518   6.922  0.00  0.00    -0.050 A 
ATOM     32  C   UNL     1      -5.035   7.362   7.489  0.00  0.00    +0.004 A 
ATOM     33  C   UNL     1      -5.242   6.242   6.709  0.00  0.00    +0.012 A 
ATOM     34  C   UNL     1      -4.942   6.278   5.349  0.00  0.00    +0.022 A 
ATOM     35  C   UNL     1      -4.430   7.444   4.784  0.00  0.00    +0.012 A 
ATOM     36  C   UNL     1      -4.231   8.560   5.572  0.00  0.00    +0.004 A 
ENDBRANCH  25  34
ENDBRANCH  24  27
ENDBRANCH   1  24
TORSDOF 9
