REMARK  Name = ZINC00653949
REMARK  7 active torsions:
REMARK  status: ('A' for Active; 'I' for Inactive)
REMARK    1  A    between atoms: C_1  and  C_2
REMARK    2  A    between atoms: C_5  and  C_8
REMARK    3  A    between atoms: C_19  and  S_24
REMARK    4  A    between atoms: S_24  and  N_27
REMARK    5  A    between atoms: N_27  and  C_28
REMARK    6  A    between atoms: C_31  and  C_35
REMARK    7  A    between atoms: C_33  and  C_34
REMARK                            x       y       z     vdW  Elec       q    Type
REMARK                         _______ _______ _______ _____ _____    ______ ____
ROOT
ATOM      1  C   UNL     1      -0.883  -0.460  -0.294  0.00  0.00    +0.105 C 
ATOM      2  C   UNL     1       0.358   0.205   0.273  0.00  0.00    +0.029 C 
ATOM      3  C   UNL     1       0.395   1.740   0.269  0.00  0.00    +0.033 C 
ATOM      4  C   UNL     1       1.897   2.011   0.160  0.00  0.00    -0.030 C 
ATOM      5  C   UNL     1       2.501   0.984  -0.427  0.00  0.00    -0.023 C 
ATOM      6  C   UNL     1       1.476  -0.029  -0.786  0.00  0.00    +0.049 C 
ATOM      7  C   UNL     1       1.783  -1.476  -0.809  0.00  0.00    -0.018 A 
ATOM      8  C   UNL     1       3.051  -1.959  -1.045  0.00  0.00    +0.034 A 
ATOM      9  C   UNL     1       3.281  -3.322  -1.091  0.00  0.00    +0.109 A 
ATOM     10  C   UNL     1       2.235  -4.206  -0.899  0.00  0.00    +0.030 A 
ATOM     11  C   UNL     1       0.963  -3.732  -0.654  0.00  0.00    +0.025 A 
ATOM     12  C   UNL     1       0.722  -2.364  -0.601  0.00  0.00    +0.031 A 
ATOM     13  N   UNL     1      -0.575  -1.906  -0.336  0.00  0.00    -0.336 N 
ATOM     14  H   UNL     1      -1.284  -2.549  -0.177  0.00  0.00    +0.147 HD
ENDROOT
BRANCH   1  19
ATOM     15  C   UNL     1      -5.421   0.516   3.147  0.00  0.00    +0.044 C 
ATOM     16  C   UNL     1      -4.238   0.261   2.249  0.00  0.00    -0.050 A 
ATOM     17  C   UNL     1      -4.065   1.015   1.104  0.00  0.00    +0.004 A 
ATOM     18  C   UNL     1      -2.979   0.781   0.281  0.00  0.00    +0.006 A 
ATOM     19  C   UNL     1      -2.067  -0.205   0.603  0.00  0.00    -0.027 A 
ATOM     20  C   UNL     1      -2.243  -0.963   1.746  0.00  0.00    +0.006 A 
ATOM     21  C   UNL     1      -3.326  -0.727   2.572  0.00  0.00    +0.004 A 
ENDBRANCH   1  19
BRANCH   9  22
ATOM     22  S   UNL     1       4.906  -3.932  -1.394  0.00  0.00    +0.072 S 
ATOM     23  O   UNL     1       5.805  -2.906  -0.998  0.00  0.00    -0.150 OA
ATOM     24  O   UNL     1       4.956  -5.242  -0.846  0.00  0.00    -0.150 OA
BRANCH  22  25
ATOM     25  N   UNL     1       5.069  -4.098  -3.033  0.00  0.00    -0.216 N 
ATOM     26  H   UNL     1       5.254  -4.970  -3.416  0.00  0.00    +0.174 HD
BRANCH  25  27
ATOM     27  C   UNL     1       4.939  -2.984  -3.865  0.00  0.00    +0.051 A 
ATOM     28  C   UNL     1       5.398  -1.742  -3.441  0.00  0.00    +0.025 A 
ATOM     29  C   UNL     1       5.272  -0.643  -4.267  0.00  0.00    +0.005 A 
ATOM     30  C   UNL     1       4.682  -0.775  -5.511  0.00  0.00    -0.050 A 
ATOM     31  C   UNL     1       4.220  -2.007  -5.934  0.00  0.00    +0.008 A 
ATOM     32  C   UNL     1       4.347  -3.112  -5.114  0.00  0.00    -0.028 A 
ATOM     33  C   UNL     1       3.842  -4.455  -5.575  0.00  0.00    +0.046 C 
ATOM     34  C   UNL     1       4.541   0.429  -6.407  0.00  0.00    +0.044 C 
ENDBRANCH  25  27
ENDBRANCH  22  25
ENDBRANCH   9  22
TORSDOF 4
