REMARK  Name = ZINC33297913
REMARK  10 active torsions:
REMARK  status: ('A' for Active; 'I' for Inactive)
REMARK    1  A    between atoms: C_1  and  C_2
REMARK    2  A    between atoms: C_2  and  C_3
REMARK    3  A    between atoms: N_5  and  C_6
REMARK    4  A    between atoms: C_7  and  C_31
REMARK    5  A    between atoms: C_10  and  C_11
REMARK    6  A    between atoms: C_12  and  C_13
REMARK    7  A    between atoms: C_16  and  S_19
REMARK    8  A    between atoms: S_19  and  N_22
REMARK    9  A    between atoms: N_22  and  C_23
REMARK   10  A    between atoms: C_26  and  C_30
REMARK                            x       y       z     vdW  Elec       q    Type
REMARK                         _______ _______ _______ _____ _____    ______ ____
ROOT
ATOM      1  C   UNL     1      -6.678   0.550   1.095  0.00  0.00    -0.025 A 
ATOM      2  C   UNL     1      -6.543  -0.840   1.170  0.00  0.00    +0.010 A 
ATOM      3  C   UNL     1      -7.662  -1.631   1.316  0.00  0.00    +0.029 A 
ATOM      4  C   UNL     1      -8.919  -1.054   1.377  0.00  0.00    +0.109 A 
ATOM      5  C   UNL     1      -9.062   0.320   1.298  0.00  0.00    +0.029 A 
ATOM      6  C   UNL     1      -7.951   1.125   1.158  0.00  0.00    +0.010 A 
ENDROOT
BRANCH   4   7
ATOM      7  S   UNL     1     -10.344  -2.075   1.557  0.00  0.00    +0.072 S 
ATOM      8  O   UNL     1      -9.903  -3.286   2.155  0.00  0.00    -0.150 OA
ATOM      9  O   UNL     1     -11.355  -1.262   2.137  0.00  0.00    -0.150 OA
BRANCH   7  10
ATOM     10  N   UNL     1     -10.864  -2.462   0.033  0.00  0.00    -0.215 N 
ATOM     11  H   UNL     1     -11.862  -2.143  -0.305  0.00  0.00    +0.174 HD
BRANCH  10  12
ATOM     12  C   UNL     1     -10.037  -3.192  -0.824  0.00  0.00    +0.066 A 
ATOM     13  C   UNL     1      -9.199  -4.175  -0.312  0.00  0.00    +0.026 A 
ATOM     14  C   UNL     1      -8.382  -4.895  -1.162  0.00  0.00    +0.005 A 
ATOM     15  C   UNL     1      -8.397  -4.639  -2.521  0.00  0.00    -0.049 A 
ATOM     16  C   UNL     1      -9.230  -3.662  -3.034  0.00  0.00    +0.025 A 
ATOM     17  C   UNL     1     -10.054  -2.941  -2.191  0.00  0.00    +0.064 A 
ATOM     18 CL   UNL     1     -11.105  -1.719  -2.837  0.00  0.00    -0.082 Cl
ATOM     19  C   UNL     1      -7.505  -5.428  -3.444  0.00  0.00    +0.044 C 
ENDBRANCH  10  12
ENDBRANCH   7  10
ENDBRANCH   4   7
BRANCH   1  21
ATOM     20  C   UNL     1      -4.390   1.165   1.691  0.00  0.00    +0.051 C 
ATOM     21  C   UNL     1      -5.487   1.403   0.945  0.00  0.00    +0.011 C 
BRANCH  20  26
ATOM     22  C   UNL     1      -3.387  -0.253   3.564  0.00  0.00    +0.103 A 
ATOM     23  C   UNL     1      -3.998  -1.152   4.469  0.00  0.00    +0.102 A 
ATOM     24  N   UNL     1      -5.271  -1.151   4.194  0.00  0.00    -0.081 NA
ATOM     25  O   UNL     1      -5.545  -0.415   3.276  0.00  0.00    -0.353 OA
ATOM     26  C   UNL     1      -4.449   0.206   2.795  0.00  0.00    +0.182 A 
ATOM     27  C   UNL     1      -3.310  -1.955   5.543  0.00  0.00    +0.071 C 
BRANCH  22  30
ATOM     28  C   UNL     1      -1.246   0.056   4.559  0.00  0.00    +0.217 C 
ATOM     29  O   UNL     1      -1.724  -0.212   5.641  0.00  0.00    -0.275 OA
ATOM     30  N   UNL     1      -2.032   0.090   3.465  0.00  0.00    -0.281 N 
ATOM     31  H   UNL     1      -1.610   0.387   2.494  0.00  0.00    +0.155 HD
BRANCH  28  33
ATOM     32  C   UNL     1       0.885   0.234   5.815  0.00  0.00    +0.013 C 
ATOM     33  C   UNL     1       0.228   0.345   4.437  0.00  0.00    +0.093 C 
ENDBRANCH  28  33
ENDBRANCH  22  30
ENDBRANCH  20  26
ENDBRANCH   1  21
TORSDOF 7
