REMARK  Name = ZINC65739436
REMARK  13 active torsions:
REMARK  status: ('A' for Active; 'I' for Inactive)
REMARK    1  A    between atoms: C_1  and  C_2
REMARK    2  A    between atoms: C_2  and  C_3
REMARK    3  A    between atoms: C_6  and  C_11
REMARK    4  A    between atoms: N_8  and  C_10
REMARK    5  A    between atoms: N_13  and  C_14
REMARK    6  A    between atoms: C_14  and  C_16
REMARK    7  A    between atoms: C_14  and  C_32
REMARK    8  A    between atoms: C_18  and  O_31
REMARK    9  A    between atoms: C_20  and  O_30
REMARK   10  A    between atoms: C_22  and  O_29
REMARK   11  A    between atoms: C_24  and  S_27
REMARK   12  A    between atoms: S_27  and  C_28
REMARK   13  A    between atoms: C_32  and  C_34
REMARK                            x       y       z     vdW  Elec       q    Type
REMARK                         _______ _______ _______ _____ _____    ______ ____
ROOT
ATOM      1  C   UNL     1      -6.257   0.097  -2.805  0.00  0.00    +0.122 C 
ENDROOT
BRANCH   1   2
ATOM      2  C   UNL     1      -6.393   1.473  -3.459  0.00  0.00    +0.172 C 
ATOM      3  C   UNL     1      -5.671   2.519  -2.605  0.00  0.00    +0.176 C 
ATOM      4  C   UNL     1      -5.863   3.902  -3.235  0.00  0.00    +0.177 C 
ATOM      5  C   UNL     1      -7.362   4.189  -3.362  0.00  0.00    +0.184 C 
ATOM      6  C   UNL     1      -8.019   3.079  -4.187  0.00  0.00    +0.207 C 
ATOM      7  O   UNL     1      -7.776   1.817  -3.563  0.00  0.00    -0.356 OA
BRANCH   6   8
ATOM      8  S   UNL     1      -9.806   3.373  -4.284  0.00  0.00    -0.131 S 
ATOM      9  C   UNL     1     -10.404   2.078  -5.404  0.00  0.00    +0.087 C 
ENDBRANCH   6   8
BRANCH   5  10
ATOM     10  O   UNL     1      -7.953   4.232  -2.061  0.00  0.00    -0.386 OA
ATOM     11  H   UNL     1      -8.903   4.410  -2.066  0.00  0.00    +0.210 HD
ENDBRANCH   5  10
BRANCH   4  12
ATOM     12  O   UNL     1      -5.253   4.893  -2.406  0.00  0.00    -0.386 OA
ATOM     13  H   UNL     1      -5.337   5.795  -2.745  0.00  0.00    +0.210 HD
ENDBRANCH   4  12
BRANCH   3  14
ATOM     14  O   UNL     1      -6.216   2.514  -1.284  0.00  0.00    -0.387 OA
ATOM     15  H   UNL     1      -5.805   3.154  -0.687  0.00  0.00    +0.210 HD
ENDBRANCH   3  14
ENDBRANCH   1   2
BRANCH   1  18
ATOM     16  C   UNL     1      -4.429  -1.123  -1.752  0.00  0.00    +0.200 C 
ATOM     17  O   UNL     1      -5.234  -1.612  -0.989  0.00  0.00    -0.278 OA
ATOM     18  N   UNL     1      -4.839  -0.255  -2.698  0.00  0.00    -0.310 N 
ATOM     19  H   UNL     1      -4.195   0.137  -3.308  0.00  0.00    +0.149 HD
BRANCH  16  22
ATOM     20  C   UNL     1      -1.433  -0.534   0.013  0.00  0.00    -0.029 C 
ATOM     21  C   UNL     1      -2.140  -0.226  -1.327  0.00  0.00    -0.005 C 
ATOM     22  C   UNL     1      -2.970  -1.484  -1.642  0.00  0.00    +0.019 C 
ATOM     23  N   UNL     1      -2.765  -2.431  -0.524  0.00  0.00    +0.386 N 
ATOM     24  C   UNL     1      -1.446  -2.082   0.069  0.00  0.00    -0.075 C 
ATOM     25  C   UNL     1      -2.746  -3.811  -1.026  0.00  0.00    -0.095 C 
ATOM     26  H   UNL     1      -3.493  -2.319   0.165  0.00  0.00    -0.081 HD
BRANCH  20  28
ATOM     27  C   UNL     1      -0.019   1.526   0.010  0.00  0.00    +0.004 C 
ATOM     28  C   UNL     1       0.002  -0.004   0.002  0.00  0.00    -0.002 C 
ENDBRANCH  20  28
ENDBRANCH  16  22
ENDBRANCH   1  18
BRANCH   1  29
ATOM     29  C   UNL     1      -6.979  -0.948  -3.658  0.00  0.00    +0.100 C 
ATOM     30  C   UNL     1      -6.842  -2.324  -3.004  0.00  0.00    +0.026 C 
ATOM     31 CL   UNL     1      -8.724  -0.515  -3.790  0.00  0.00    -0.120 Cl
ENDBRANCH   1  29
TORSDOF 9
