REMARK  Name = ZINC59842642
REMARK  7 active torsions:
REMARK  status: ('A' for Active; 'I' for Inactive)
REMARK    1  A    between atoms: C_1  and  C_2
REMARK    2  A    between atoms: C_2  and  C_4
REMARK    3  A    between atoms: C_2  and  N_14
REMARK    4  A    between atoms: C_15  and  C_17
REMARK    5  A    between atoms: C_17  and  S_18
REMARK    6  A    between atoms: S_18  and  C_19
REMARK    7  A    between atoms: C_25  and  N_27
REMARK                            x       y       z     vdW  Elec       q    Type
REMARK                         _______ _______ _______ _____ _____    ______ ____
ROOT
ATOM      1  N   UNL     1       0.711  -0.489   1.189  0.00  0.00    -0.312 N 
ATOM      2  C   UNL     1       0.051  -0.633   2.355  0.00  0.00    +0.224 C 
ATOM      3  O   UNL     1      -1.129  -0.361   2.423  0.00  0.00    -0.275 OA
ATOM      4  H   UNL     1       1.654  -0.707   1.135  0.00  0.00    +0.149 HD
ENDROOT
BRANCH   1   6
ATOM      5  C   UNL     1      -0.019   1.526   0.010  0.00  0.00    +0.028 C 
ATOM      6  C   UNL     1       0.002  -0.004   0.002  0.00  0.00    +0.076 C 
BRANCH   6   7
ATOM      7  C   UNL     1       0.718  -0.497  -1.257  0.00  0.00    -0.010 C 
ATOM      8  C   UNL     1       0.739  -2.027  -1.265  0.00  0.00    +0.012 C 
ATOM      9  C   UNL     1       1.455  -2.521  -2.524  0.00  0.00    -0.010 C 
ATOM     10  C   UNL     1       0.715  -2.014  -3.764  0.00  0.00    +0.007 C 
ATOM     11  C   UNL     1       0.694  -0.484  -3.755  0.00  0.00    -0.010 C 
ATOM     12  C   UNL     1      -0.022   0.009  -2.496  0.00  0.00    +0.012 C 
ATOM     13  C   UNL     1       2.130   0.045  -3.766  0.00  0.00    +0.007 C 
ATOM     14  C   UNL     1       2.870  -0.461  -2.526  0.00  0.00    -0.010 C 
ATOM     15  C   UNL     1       2.890  -1.991  -2.535  0.00  0.00    +0.007 C 
ATOM     16  C   UNL     1       2.154   0.032  -1.268  0.00  0.00    +0.012 C 
ENDBRANCH   6   7
ENDBRANCH   1   6
BRANCH   2  17
ATOM     17  C   UNL     1       0.780  -1.133   3.576  0.00  0.00    +0.173 C 
BRANCH  17  18
ATOM     18  S   UNL     1      -0.371  -1.217   4.976  0.00  0.00    -0.078 S 
BRANCH  18  19
ATOM     19  C   UNL     1       0.619  -1.809   6.307  0.00  0.00    +0.171 A 
ATOM     20  N   UNL     1       0.049  -1.996   7.530  0.00  0.00    -0.302 N 
ATOM     21  H   UNL     1      -0.892  -1.804   7.660  0.00  0.00    +0.171 HD
ATOM     22  C   UNL     1       0.793  -2.450   8.562  0.00  0.00    +0.254 A 
ATOM     23  O   UNL     1       0.290  -2.620   9.661  0.00  0.00    -0.268 OA
ATOM     24  C   UNL     1       2.148  -2.720   8.350  0.00  0.00    +0.113 A 
ATOM     25  C   UNL     1       2.680  -2.513   7.085  0.00  0.00    +0.124 A 
ATOM     26  N   UNL     1       1.893  -2.068   6.098  0.00  0.00    -0.209 NA
BRANCH  25  27
ATOM     27  N   UNL     1       4.014  -2.772   6.843  0.00  0.00    -0.343 N 
ATOM     28  H   UNL     1       4.582  -3.099   7.559  0.00  0.00    +0.144 HD
ATOM     29  H   UNL     1       4.384  -2.626   5.959  0.00  0.00    +0.144 HD
ENDBRANCH  25  27
ENDBRANCH  18  19
ENDBRANCH  17  18
ENDBRANCH   2  17
TORSDOF 6
