REMARK  Name = ZINC06392707
REMARK  8 active torsions:
REMARK  status: ('A' for Active; 'I' for Inactive)
REMARK    1  A    between atoms: C_4  and  C_7
REMARK    2  A    between atoms: C_8  and  C_9
REMARK    3  A    between atoms: N_11  and  C_12
REMARK    4  A    between atoms: C_12  and  N_14
REMARK    5  A    between atoms: N_14  and  N_15
REMARK    6  A    between atoms: N_15  and  C_16
REMARK    7  A    between atoms: C_16  and  N_18
REMARK    8  A    between atoms: N_18  and  C_19
REMARK                            x       y       z     vdW  Elec       q    Type
REMARK                         _______ _______ _______ _____ _____    ______ ____
ROOT
ATOM      1  C   UNL     1       0.126  -4.063   0.284  0.00  0.00    +0.153 C 
ATOM      2  S   UNL     1       1.623  -4.893   0.265  0.00  0.00    -0.017 S 
ENDROOT
BRANCH   1   5
ATOM      3  C   UNL     1      -1.000  -6.097   0.487  0.00  0.00    +0.242 C 
ATOM      4  O   UNL     1       0.063  -6.688   0.473  0.00  0.00    -0.270 OA
ATOM      5  N   UNL     1      -1.026  -4.753   0.393  0.00  0.00    -0.263 N 
ATOM      6  H   UNL     1      -1.874  -4.282   0.403  0.00  0.00    +0.157 HD
BRANCH   3   8
ATOM      7  C   UNL     1      -2.226  -8.192   0.699  0.00  0.00    +0.013 C 
ATOM      8  C   UNL     1      -2.252  -6.846   0.605  0.00  0.00    +0.068 C 
BRANCH   7  12
ATOM      9  C   UNL     1      -5.853 -10.364   1.043  0.00  0.00    +0.000 A 
ATOM     10  C   UNL     1      -4.645 -11.039   1.028  0.00  0.00    +0.001 A 
ATOM     11  C   UNL     1      -3.462 -10.340   0.916  0.00  0.00    +0.008 A 
ATOM     12  C   UNL     1      -3.484  -8.945   0.818  0.00  0.00    -0.025 A 
ATOM     13  C   UNL     1      -4.709  -8.270   0.840  0.00  0.00    +0.008 A 
ATOM     14  C   UNL     1      -5.884  -8.983   0.947  0.00  0.00    +0.001 A 
ENDBRANCH   7  12
ENDBRANCH   3   8
ENDBRANCH   1   5
BRANCH   1  15
ATOM     15  N   UNL     1       0.100  -2.718   0.190  0.00  0.00    -0.246 N 
ATOM     16  H   UNL     1       0.930  -2.222   0.111  0.00  0.00    +0.172 HD
BRANCH  15  17
ATOM     17  N   UNL     1      -1.125  -2.038   0.205  0.00  0.00    -0.246 N 
ATOM     18  H   UNL     1      -1.954  -2.535   0.284  0.00  0.00    +0.172 HD
BRANCH  17  19
ATOM     19  C   UNL     1      -1.150  -0.694   0.111  0.00  0.00    +0.151 C 
ATOM     20  S   UNL     1      -2.647   0.137   0.130  0.00  0.00    -0.017 S 
BRANCH  19  21
ATOM     21  N   UNL     1       0.002  -0.004   0.002  0.00  0.00    -0.296 N 
ATOM     22  H   UNL     1       0.844  -0.477  -0.090  0.00  0.00    +0.154 HD
BRANCH  21  23
ATOM     23  C   UNL     1      -0.016   1.395   0.021  0.00  0.00    +0.033 A 
ATOM     24  C   UNL     1       0.788   2.113  -0.855  0.00  0.00    +0.023 A 
ATOM     25  C   UNL     1       0.764   3.494  -0.836  0.00  0.00    +0.002 A 
ATOM     26  C   UNL     1      -0.050   4.161   0.060  0.00  0.00    +0.000 A 
ATOM     27  C   UNL     1      -0.848   3.449   0.937  0.00  0.00    +0.002 A 
ATOM     28  C   UNL     1      -0.833   2.068   0.920  0.00  0.00    +0.023 A 
ENDBRANCH  21  23
ENDBRANCH  19  21
ENDBRANCH  17  19
ENDBRANCH  15  17
ENDBRANCH   1  15
TORSDOF 8
