REMARK  Name = ZINC22232211
REMARK  5 active torsions:
REMARK  status: ('A' for Active; 'I' for Inactive)
REMARK    1  A    between atoms: C_1  and  C_2
REMARK    2  A    between atoms: C_6  and  C_23
REMARK    3  A    between atoms: C_16  and  C_17
REMARK    4  A    between atoms: N_25  and  C_26
REMARK    5  A    between atoms: C_26  and  C_27
REMARK                            x       y       z     vdW  Elec       q    Type
REMARK                         _______ _______ _______ _____ _____    ______ ____
ROOT
ATOM      1  C   UNL     1       0.120   2.051   2.675  0.00  0.00    +0.008 C 
ATOM      2  C   UNL     1      -0.625   2.354   1.374  0.00  0.00    -0.005 C 
ATOM      3  C   UNL     1       0.170   1.805   0.192  0.00  0.00    +0.041 C 
ATOM      4  C   UNL     1      -0.592   1.959  -1.095  0.00  0.00    -0.009 A 
ATOM      5  C   UNL     1       0.110   1.964  -2.292  0.00  0.00    +0.051 A 
ATOM      6  C   UNL     1      -0.657   2.111  -3.529  0.00  0.00    +0.013 A 
ATOM      7  C   UNL     1      -0.033   2.126  -4.780  0.00  0.00    +0.011 A 
ATOM      8  C   UNL     1      -0.786   2.264  -5.908  0.00  0.00    +0.001 A 
ATOM      9  C   UNL     1      -2.171   2.390  -5.830  0.00  0.00    +0.002 A 
ATOM     10  C   UNL     1      -2.811   2.379  -4.629  0.00  0.00    +0.028 A 
ATOM     11  C   UNL     1      -2.067   2.239  -3.442  0.00  0.00    +0.072 A 
ATOM     12  N   UNL     1      -2.664   2.225  -2.252  0.00  0.00    -0.247 NA
ATOM     13  C   UNL     1      -1.992   2.096  -1.118  0.00  0.00    +0.072 A 
ATOM     14  C   UNL     1      -2.742   2.104   0.155  0.00  0.00    -0.018 C 
ATOM     15  C   UNL     1      -4.042   2.468   0.197  0.00  0.00    +0.052 C 
ATOM     16  C   UNL     1      -2.006   1.689   1.410  0.00  0.00    +0.041 C 
ENDROOT
BRANCH  15  17
ATOM     17  C   UNL     1      -4.810   2.296   1.430  0.00  0.00    +0.128 A 
ATOM     18  C   UNL     1      -6.084   2.739   1.650  0.00  0.00    +0.049 A 
ATOM     19  C   UNL     1      -6.423   2.358   2.960  0.00  0.00    +0.042 A 
ATOM     20  C   UNL     1      -5.357   1.708   3.474  0.00  0.00    +0.195 A 
ATOM     21  O   UNL     1      -4.388   1.668   2.546  0.00  0.00    -0.464 OA
ENDBRANCH  15  17
BRANCH   5  22
ATOM     22  C   UNL     1       1.583   1.827  -2.316  0.00  0.00    +0.245 C 
ATOM     23  O   UNL     1       2.089   0.724  -2.389  0.00  0.00    -0.270 OA
ATOM     24  N   UNL     1       2.363   2.924  -2.258  0.00  0.00    -0.304 N 
ATOM     25  H   UNL     1       1.905   3.922  -2.192  0.00  0.00    +0.149 HD
BRANCH  24  26
ATOM     26  C   UNL     1       3.822   2.787  -2.282  0.00  0.00    +0.181 C 
BRANCH  26  27
ATOM     27  C   UNL     1       4.455   4.152  -2.205  0.00  0.00    +0.155 A 
ATOM     28  N   UNL     1       4.774   4.915  -3.219  0.00  0.00    -0.132 NA
ATOM     29  N   UNL     1       5.295   6.016  -2.803  0.00  0.00    -0.129 NA
ATOM     30  C   UNL     1       5.343   6.009  -1.481  0.00  0.00    +0.161 A 
ATOM     31  N   UNL     1       4.806   4.814  -1.069  0.00  0.00    -0.285 N 
ATOM     32  C   UNL     1       4.719   4.516   0.259  0.00  0.00    +0.094 A 
ATOM     33  C   UNL     1       5.160   5.391   1.187  0.00  0.00    +0.018 A 
ATOM     34  C   UNL     1       5.714   6.622   0.797  0.00  0.00    +0.005 A 
ATOM     35  C   UNL     1       5.807   6.932  -0.524  0.00  0.00    +0.048 A 
ENDBRANCH  26  27
ENDBRANCH  24  26
ENDBRANCH   5  22
TORSDOF 4
