REMARK  Name = ZINC38847367
REMARK  8 active torsions:
REMARK  status: ('A' for Active; 'I' for Inactive)
REMARK    1  A    between atoms: C_1  and  N_2
REMARK    2  A    between atoms: N_2  and  C_3
REMARK    3  A    between atoms: N_2  and  C_4
REMARK    4  A    between atoms: C_4  and  C_5
REMARK    5  A    between atoms: C_5  and  N_6
REMARK    6  A    between atoms: C_17  and  C_19
REMARK    7  A    between atoms: N_22  and  S_25
REMARK    8  A    between atoms: S_25  and  C_28
REMARK                            x       y       z     vdW  Elec       q    Type
REMARK                         _______ _______ _______ _____ _____    ______ ____
ROOT
ATOM      1  N   UNL     1       2.581  -0.732  -2.492  0.00  0.00    -0.252 N 
ATOM      2  C   UNL     1       1.734  -0.436  -1.436  0.00  0.00    +0.168 A 
ATOM      3  N   UNL     1       0.804   0.486  -1.360  0.00  0.00    -0.224 NA
ATOM      4  C   UNL     1       0.045   0.664  -0.257  0.00  0.00    +0.080 A 
ATOM      5  C   UNL     1      -0.982   1.614  -0.047  0.00  0.00    +0.030 A 
ATOM      6  C   UNL     1      -1.659   1.661   1.143  0.00  0.00    +0.022 A 
ATOM      7  C   UNL     1      -1.367   0.785   2.180  0.00  0.00    +0.042 A 
ATOM      8  C   UNL     1      -0.369  -0.158   2.009  0.00  0.00    +0.037 A 
ATOM      9  C   UNL     1       0.315  -0.212   0.819  0.00  0.00    +0.042 A 
ATOM     10  S   UNL     1       1.625  -1.220   0.167  0.00  0.00    -0.052 S 
ATOM     11 CL   UNL     1      -2.244   0.872   3.676  0.00  0.00    -0.084 Cl
ATOM     12  C   UNL     1       3.390  -1.808  -2.425  0.00  0.00    +0.224 C 
ATOM     13  O   UNL     1       4.204  -2.009  -3.302  0.00  0.00    -0.275 OA
ENDROOT
BRANCH  12  14
ATOM     14  C   UNL     1       3.284  -2.760  -1.262  0.00  0.00    +0.078 C 
ATOM     15  C   UNL     1       4.099  -2.220  -0.085  0.00  0.00    +0.030 C 
ATOM     16  C   UNL     1       3.961  -3.172   1.107  0.00  0.00    +0.110 C 
ATOM     17  N   UNL     1       4.344  -4.525   0.677  0.00  0.00    -0.177 NA
ATOM     18  C   UNL     1       3.686  -5.105  -0.501  0.00  0.00    +0.110 C 
ATOM     19  C   UNL     1       3.827  -4.130  -1.674  0.00  0.00    +0.030 C 
BRANCH  17  20
ATOM     20  S   UNL     1       5.496  -5.378   1.506  0.00  0.00    +0.061 S 
ATOM     21  O   UNL     1       6.034  -6.325   0.594  0.00  0.00    -0.153 OA
ATOM     22  O   UNL     1       6.306  -4.422   2.177  0.00  0.00    -0.153 OA
BRANCH  20  23
ATOM     23  C   UNL     1       4.664  -6.299   2.756  0.00  0.00    +0.106 A 
ATOM     24  C   UNL     1       4.463  -5.743   4.006  0.00  0.00    +0.031 A 
ATOM     25  C   UNL     1       3.809  -6.464   4.987  0.00  0.00    +0.040 A 
ATOM     26  C   UNL     1       3.356  -7.744   4.718  0.00  0.00    +0.124 A 
ATOM     27  C   UNL     1       3.558  -8.300   3.466  0.00  0.00    +0.040 A 
ATOM     28  C   UNL     1       4.207  -7.575   2.485  0.00  0.00    +0.031 A 
ATOM     29  F   UNL     1       2.717  -8.450   5.677  0.00  0.00    -0.205 F 
ENDBRANCH  20  23
ENDBRANCH  17  20
ENDBRANCH  12  14
BRANCH   1  30
ATOM     30  C   UNL     1       2.596   0.124  -3.680  0.00  0.00    +0.097 C 
BRANCH  30  31
ATOM     31  C   UNL     1       3.701   1.173  -3.539  0.00  0.00    -0.060 C 
BRANCH  31  33
ATOM     32  C   UNL     1       2.463   2.795  -4.801  0.00  0.00    -0.097 C 
ATOM     33  N   UNL     1       3.717   2.031  -4.731  0.00  0.00    +0.377 N 
ATOM     34  C   UNL     1       4.852   2.960  -4.651  0.00  0.00    -0.097 C 
ATOM     35  H   UNL     1       3.808   1.459  -5.557  0.00  0.00    -0.083 HD
ENDBRANCH  31  33
ENDBRANCH  30  31
ENDBRANCH   1  30
TORSDOF 6
