REMARK  Name = ZINC34748169
REMARK  8 active torsions:
REMARK  status: ('A' for Active; 'I' for Inactive)
REMARK    1  A    between atoms: C_1  and  C_2
REMARK    2  A    between atoms: C_2  and  C_3
REMARK    3  A    between atoms: C_3  and  C_4
REMARK    4  A    between atoms: C_4  and  N_5
REMARK    5  A    between atoms: N_18  and  C_21
REMARK    6  A    between atoms: C_21  and  C_22
REMARK    7  A    between atoms: N_24  and  C_25
REMARK    8  A    between atoms: C_28  and  C_31
REMARK                            x       y       z     vdW  Elec       q    Type
REMARK                         _______ _______ _______ _____ _____    ______ ____
ROOT
ATOM      1  N   UNL     1      -4.189  -1.923  -0.552  0.00  0.00    -0.280 N 
ATOM      2  C   UNL     1      -4.752  -2.127   0.654  0.00  0.00    +0.264 A 
ATOM      3  O   UNL     1      -5.343  -1.225   1.223  0.00  0.00    -0.267 OA
ATOM      4  C   UNL     1      -4.644  -3.419   1.258  0.00  0.00    +0.076 A 
ATOM      5  C   UNL     1      -5.178  -3.859   2.558  0.00  0.00    -0.023 A 
ATOM      6  C   UNL     1      -4.945  -5.133   2.911  0.00  0.00    -0.004 A 
ATOM      7  S   UNL     1      -4.018  -5.822   1.559  0.00  0.00    -0.073 S 
ATOM      8  C   UNL     1      -3.945  -4.386   0.522  0.00  0.00    +0.117 A 
ATOM      9  N   UNL     1      -3.412  -4.120  -0.666  0.00  0.00    -0.208 NA
ATOM     10  C   UNL     1      -3.530  -2.923  -1.203  0.00  0.00    +0.202 A 
ATOM     11  N   UNL     1      -2.974  -2.677  -2.434  0.00  0.00    -0.304 N 
ATOM     12  C   UNL     1      -1.562  -2.284  -2.562  0.00  0.00    +0.089 C 
ATOM     13  C   UNL     1      -0.900  -3.188  -3.608  0.00  0.00    -0.059 C 
ATOM     14  N   UNL     1      -1.663  -3.125  -4.861  0.00  0.00    +0.387 N 
ATOM     15  C   UNL     1      -3.008  -3.678  -4.656  0.00  0.00    -0.059 C 
ATOM     16  C   UNL     1      -3.773  -2.804  -3.663  0.00  0.00    +0.089 C 
ATOM     17  C   UNL     1      -5.531  -5.468   4.256  0.00  0.00    +0.043 C 
ATOM     18  C   UNL     1      -5.806  -4.096   4.911  0.00  0.00    +0.010 C 
ATOM     19  C   UNL     1      -5.984  -3.190   3.676  0.00  0.00    +0.037 C 
ATOM     20  H   UNL     1      -1.738  -2.164  -5.160  0.00  0.00    -0.081 HD
ENDROOT
BRANCH   1  21
ATOM     21  C   UNL     1      -4.294  -0.604  -1.180  0.00  0.00    +0.128 C 
BRANCH  21  22
ATOM     22  C   UNL     1      -5.509  -0.576  -2.109  0.00  0.00    +0.021 C 
BRANCH  22  24
ATOM     23  C   UNL     1      -6.833   0.830  -3.695  0.00  0.00    +0.004 C 
ATOM     24  C   UNL     1      -5.619   0.802  -2.765  0.00  0.00    -0.002 C 
ENDBRANCH  22  24
ENDBRANCH  21  22
ENDBRANCH   1  21
BRANCH  14  25
ATOM     25  C   UNL     1      -0.968  -3.904  -5.895  0.00  0.00    +0.019 C 
BRANCH  25  26
ATOM     26  C   UNL     1      -1.682  -3.741  -7.212  0.00  0.00    +0.201 C 
ATOM     27  O   UNL     1      -2.673  -3.045  -7.282  0.00  0.00    -0.278 OA
ATOM     28  N   UNL     1      -1.220  -4.369  -8.311  0.00  0.00    -0.287 N 
ATOM     29  H   UNL     1      -0.482  -4.994  -8.239  0.00  0.00    +0.155 HD
BRANCH  28  30
ATOM     30  C   UNL     1      -1.806  -4.119  -9.557  0.00  0.00    +0.033 A 
ATOM     31  C   UNL     1      -2.435  -2.905  -9.800  0.00  0.00    +0.023 A 
ATOM     32  C   UNL     1      -3.012  -2.662 -11.031  0.00  0.00    +0.005 A 
ATOM     33  C   UNL     1      -2.963  -3.625 -12.022  0.00  0.00    -0.050 A 
ATOM     34  C   UNL     1      -2.337  -4.835 -11.783  0.00  0.00    +0.005 A 
ATOM     35  C   UNL     1      -1.753  -5.082 -10.556  0.00  0.00    +0.023 A 
ATOM     36  C   UNL     1      -3.593  -3.356 -13.364  0.00  0.00    +0.044 C 
ENDBRANCH  28  30
ENDBRANCH  25  26
ENDBRANCH  14  25
TORSDOF 6
