REMARK  Name = ZINC41002025
REMARK  16 active torsions:
REMARK  status: ('A' for Active; 'I' for Inactive)
REMARK    1  A    between atoms: C_1  and  C_2
REMARK    2  A    between atoms: C_2  and  O_3
REMARK    3  A    between atoms: O_3  and  C_4
REMARK    4  A    between atoms: C_6  and  C_19
REMARK    5  A    between atoms: C_9  and  O_10
REMARK    6  A    between atoms: O_10  and  C_11
REMARK    7  A    between atoms: C_11  and  C_12
REMARK    8  A    between atoms: C_21  and  C_33
REMARK    9  A    between atoms: C_22  and  C_32
REMARK   10  A    between atoms: C_27  and  S_29
REMARK   11  A    between atoms: S_29  and  C_30
REMARK   12  A    between atoms: C_30  and  C_31
REMARK   13  A    between atoms: C_33  and  O_35
REMARK   14  A    between atoms: O_35  and  C_36
REMARK   15  A    between atoms: C_36  and  C_37
REMARK   16  A    between atoms: C_36  and  C_38
REMARK                            x       y       z     vdW  Elec       q    Type
REMARK                         _______ _______ _______ _____ _____    ______ ____
ROOT
ATOM      1  C   UNL     1      -0.343  -4.986   0.483  0.00  0.00    +0.179 C 
ATOM      2  C   UNL     1       0.705  -5.806   1.187  0.00  0.00    +0.082 C 
ATOM      3  C   UNL     1       0.940  -7.096   0.901  0.00  0.00    +0.020 C 
ATOM      4  N   UNL     1       0.228  -7.774  -0.056  0.00  0.00    -0.287 N 
ATOM      5  C   UNL     1      -0.923  -7.170  -0.544  0.00  0.00    +0.219 A 
ATOM      6  N   UNL     1      -1.207  -5.868  -0.297  0.00  0.00    -0.220 N 
ATOM      7  N   UNL     1      -2.425  -5.599  -0.920  0.00  0.00    -0.141 NA
ATOM      8  C   UNL     1      -2.807  -6.716  -1.502  0.00  0.00    +0.210 A 
ATOM      9  N   UNL     1      -1.888  -7.666  -1.270  0.00  0.00    -0.187 NA
ATOM     10  C   UNL     1       2.022  -7.824   1.656  0.00  0.00    +0.061 C 
ATOM     11  H   UNL     1       0.518  -8.641  -0.380  0.00  0.00    +0.155 HD
ENDROOT
BRANCH   1  14
ATOM     12  C   UNL     1       0.739  -1.732  -1.102  0.00  0.00    +0.162 A 
ATOM     13  C   UNL     1       0.124  -2.642  -0.257  0.00  0.00    +0.055 A 
ATOM     14  C   UNL     1       0.327  -3.997  -0.437  0.00  0.00    -0.015 A 
ATOM     15  C   UNL     1       1.142  -4.448  -1.458  0.00  0.00    +0.010 A 
ATOM     16  C   UNL     1       1.759  -3.546  -2.304  0.00  0.00    +0.050 A 
ATOM     17  C   UNL     1       1.556  -2.186  -2.133  0.00  0.00    +0.162 A 
BRANCH  12  18
ATOM     18  O   UNL     1       0.541  -0.398  -0.927  0.00  0.00    -0.489 OA
BRANCH  18  20
ATOM     19  C   UNL     1      -0.411   1.522   0.191  0.00  0.00    +0.048 C 
ATOM     20  C   UNL     1      -0.309  -0.004   0.153  0.00  0.00    +0.226 C 
ENDBRANCH  18  20
ENDBRANCH  12  18
BRANCH  17  21
ATOM     21  O   UNL     1       2.157  -1.296  -2.968  0.00  0.00    -0.484 OA
BRANCH  21  22
ATOM     22  C   UNL     1       2.981  -1.834  -4.005  0.00  0.00    +0.267 C 
BRANCH  22  23
ATOM     23  C   UNL     1       3.558  -0.708  -4.823  0.00  0.00    +0.025 A 
ATOM     24  C   UNL     1       3.257   0.603  -4.504  0.00  0.00    +0.010 A 
ATOM     25  C   UNL     1       3.787   1.636  -5.255  0.00  0.00    +0.001 A 
ATOM     26  C   UNL     1       4.617   1.359  -6.325  0.00  0.00    +0.003 A 
ATOM     27  C   UNL     1       4.919   0.049  -6.646  0.00  0.00    +0.039 A 
ATOM     28  C   UNL     1       4.394  -0.986  -5.891  0.00  0.00    +0.130 A 
ATOM     29  F   UNL     1       4.692  -2.267  -6.200  0.00  0.00    -0.205 F 
ENDBRANCH  22  23
ENDBRANCH  21  22
ENDBRANCH  17  21
ENDBRANCH   1  14
BRANCH   2  30
ATOM     30  C   UNL     1       1.478  -5.188   2.196  0.00  0.00    +0.339 C 
ATOM     31  O   UNL     1       1.026  -5.066   3.319  0.00  0.00    -0.245 OA
BRANCH  30  32
ATOM     32  O   UNL     1       2.717  -4.733   1.914  0.00  0.00    -0.459 OA
BRANCH  32  33
ATOM     33  C   UNL     1       3.441  -4.119   2.981  0.00  0.00    +0.171 C 
ATOM     34  C   UNL     1       4.253  -5.183   3.724  0.00  0.00    +0.052 C 
ATOM     35  C   UNL     1       4.388  -3.060   2.413  0.00  0.00    +0.052 C 
ENDBRANCH  32  33
ENDBRANCH  30  32
ENDBRANCH   2  30
BRANCH   8  36
ATOM     36  S   UNL     1      -4.286  -6.930  -2.435  0.00  0.00    -0.085 S 
BRANCH  36  37
ATOM     37  C   UNL     1      -4.227  -8.665  -2.959  0.00  0.00    +0.074 C 
ATOM     38  C   UNL     1      -5.470  -8.989  -3.790  0.00  0.00    +0.016 C 
ENDBRANCH  36  37
ENDBRANCH   8  36
TORSDOF 11
