REMARK  Name = ZINC13065300
REMARK  16 active torsions:
REMARK  status: ('A' for Active; 'I' for Inactive)
REMARK    1  A    between atoms: C_1  and  C_2
REMARK    2  A    between atoms: C_2  and  C_3
REMARK    3  A    between atoms: C_3  and  C_5
REMARK    4  A    between atoms: C_3  and  N_71
REMARK    5  A    between atoms: N_9  and  C_10
REMARK    6  A    between atoms: C_10  and  C_11
REMARK    7  A    between atoms: C_11  and  O_13
REMARK    8  A    between atoms: O_13  and  C_14
REMARK    9  A    between atoms: C_14  and  C_15
REMARK   10  A    between atoms: C_16  and  C_17
REMARK   11  A    between atoms: C_16  and  N_71
REMARK   12  A    between atoms: C_20  and  C_23
REMARK   13  A    between atoms: C_24  and  C_25
REMARK   14  A    between atoms: C_24  and  N_71
REMARK   15  A    between atoms: C_28  and  C_38
REMARK   16  A    between atoms: C_31  and  C_37
REMARK                            x       y       z     vdW  Elec       q    Type
REMARK                         _______ _______ _______ _____ _____    ______ ____
ROOT
ATOM      1  N   UNL     1       0.213   0.361   0.475  0.00  0.00    +0.392 N 
ATOM      2  H   UNL     1       0.796   0.576   1.292  0.00  0.00    -0.080 HD
ENDROOT
BRANCH   1   3
ATOM      3  C   UNL     1      -1.044  -0.266   0.934  0.00  0.00    +0.003 C 
BRANCH   3   4
ATOM      4  C   UNL     1      -1.808  -0.836  -0.234  0.00  0.00    +0.139 A 
ATOM      5  N   UNL     1      -1.325  -1.589  -1.192  0.00  0.00    -0.115 NA
ATOM      6  N   UNL     1      -2.289  -1.873  -1.998  0.00  0.00    -0.023 NA
ATOM      7  N   UNL     1      -3.372  -1.314  -1.584  0.00  0.00    -0.043 NA
ATOM      8  N   UNL     1      -3.116  -0.665  -0.499  0.00  0.00    -0.220 N 
BRANCH   8   9
ATOM      9  C   UNL     1      -4.071   0.112   0.296  0.00  0.00    +0.267 C 
BRANCH   9  10
ATOM     10  C   UNL     1      -4.092   1.536  -0.196  0.00  0.00    +0.329 C 
ATOM     11  O   UNL     1      -3.383   1.868  -1.116  0.00  0.00    -0.249 OA
BRANCH  10  12
ATOM     12  O   UNL     1      -4.899   2.436   0.388  0.00  0.00    -0.464 OA
BRANCH  12  13
ATOM     13  C   UNL     1      -4.868   3.789  -0.138  0.00  0.00    +0.229 C 
ATOM     14  C   UNL     1      -5.846   4.665   0.648  0.00  0.00    +0.048 C 
ENDBRANCH  12  13
ENDBRANCH  10  12
ENDBRANCH   9  10
ENDBRANCH   8   9
ENDBRANCH   3   4
BRANCH   3  16
ATOM     15  C   UNL     1       0.024  -0.801   3.128  0.00  0.00    +0.002 C 
ATOM     16  C   UNL     1      -0.705  -1.388   1.918  0.00  0.00    -0.011 C 
ENDBRANCH   3  16
ENDBRANCH   1   3
BRANCH   1  17
ATOM     17  C   UNL     1      -0.083   1.616  -0.248  0.00  0.00    -0.042 C 
BRANCH  17  18
ATOM     18  C   UNL     1      -0.338   2.705   0.762  0.00  0.00    -0.064 A 
ATOM     19  C   UNL     1      -1.614   2.907   1.254  0.00  0.00    +0.002 A 
ATOM     20  C   UNL     1      -1.847   3.903   2.183  0.00  0.00    +0.003 A 
ATOM     21  C   UNL     1      -0.806   4.703   2.615  0.00  0.00    -0.050 A 
ATOM     22  C   UNL     1       0.469   4.504   2.120  0.00  0.00    +0.003 A 
ATOM     23  C   UNL     1       0.704   3.505   1.193  0.00  0.00    +0.002 A 
ATOM     24  C   UNL     1      -1.061   5.792   3.625  0.00  0.00    +0.044 C 
ENDBRANCH  17  18
ENDBRANCH   1  17
BRANCH   1  25
ATOM     25  C   UNL     1       0.948  -0.569  -0.408  0.00  0.00    -0.036 C 
BRANCH  25  26
ATOM     26  C   UNL     1       2.394  -0.147  -0.458  0.00  0.00    +0.001 A 
ATOM     27  C   UNL     1       3.283  -0.678   0.418  0.00  0.00    +0.017 A 
ATOM     28  C   UNL     1       4.681  -0.250   0.340  0.00  0.00    +0.002 A 
ATOM     29  C   UNL     1       5.645  -0.767   1.213  0.00  0.00    -0.041 A 
ATOM     30  C   UNL     1       6.940  -0.344   1.117  0.00  0.00    +0.004 A 
ATOM     31  C   UNL     1       7.309   0.594   0.162  0.00  0.00    +0.005 A 
ATOM     32  C   UNL     1       6.376   1.117  -0.707  0.00  0.00    -0.026 A 
ATOM     33  C   UNL     1       5.051   0.701  -0.629  0.00  0.00    +0.052 A 
ATOM     34  N   UNL     1       4.097   1.206  -1.487  0.00  0.00    -0.322 N 
ATOM     35  H   UNL     1       4.354   1.861  -2.154  0.00  0.00    +0.169 HD
ATOM     36  C   UNL     1       2.816   0.804  -1.411  0.00  0.00    +0.251 A 
ATOM     37  O   UNL     1       2.000   1.272  -2.185  0.00  0.00    -0.268 OA
ATOM     38  C   UNL     1       6.790   2.134  -1.739  0.00  0.00    +0.046 C 
ATOM     39  C   UNL     1       5.256  -1.786   2.253  0.00  0.00    +0.044 C 
ENDBRANCH  25  26
ENDBRANCH   1  25
TORSDOF 11
