REMARK  Name = ZINC39612212
REMARK  10 active torsions:
REMARK  status: ('A' for Active; 'I' for Inactive)
REMARK    1  A    between atoms: C_1  and  C_2
REMARK    2  A    between atoms: C_5  and  C_39
REMARK    3  A    between atoms: C_10  and  C_12
REMARK    4  A    between atoms: C_12  and  O_13
REMARK    5  A    between atoms: O_13  and  C_14
REMARK    6  A    between atoms: C_14  and  C_16
REMARK    7  A    between atoms: C_16  and  C_18
REMARK    8  A    between atoms: C_16  and  N_29
REMARK    9  A    between atoms: C_18  and  C_19
REMARK   10  A    between atoms: C_30  and  C_32
REMARK                            x       y       z     vdW  Elec       q    Type
REMARK                         _______ _______ _______ _____ _____    ______ ____
ROOT
ATOM      1  C   UNL     1       6.498  -3.693   1.770  0.00  0.00    +0.186 C 
ENDROOT
BRANCH   1   2
ATOM      2  N   UNL     1       7.783  -2.993   1.838  0.00  0.00    -0.298 N 
ATOM      3  C   UNL     1       8.841  -3.583   2.430  0.00  0.00    +0.246 C 
ATOM      4  O   UNL     1       8.728  -4.695   2.907  0.00  0.00    -0.270 OA
ATOM      5  H   UNL     1       7.873  -2.106   1.457  0.00  0.00    +0.150 HD
BRANCH   3   6
ATOM      6  C   UNL     1      10.138  -2.877   2.498  0.00  0.00    +0.055 A 
ATOM      7  C   UNL     1      10.269  -1.597   1.955  0.00  0.00    +0.014 A 
ATOM      8  C   UNL     1      11.482  -0.944   2.022  0.00  0.00    +0.001 A 
ATOM      9  C   UNL     1      12.568  -1.554   2.626  0.00  0.00    +0.001 A 
ATOM     10  C   UNL     1      12.447  -2.822   3.165  0.00  0.00    +0.021 A 
ATOM     11  C   UNL     1      11.236  -3.485   3.110  0.00  0.00    +0.053 A 
ATOM     12 CL   UNL     1      11.082  -5.073   3.795  0.00  0.00    -0.083 Cl
ENDBRANCH   3   6
ENDBRANCH   1   2
BRANCH   1  13
ATOM     13  C   UNL     1       5.383  -2.685   1.654  0.00  0.00    +0.328 C 
ATOM     14  O   UNL     1       5.637  -1.504   1.631  0.00  0.00    -0.249 OA
BRANCH  13  15
ATOM     15  O   UNL     1       4.109  -3.100   1.578  0.00  0.00    -0.454 OA
BRANCH  15  16
ATOM     16  C   UNL     1       3.103  -2.090   1.470  0.00  0.00    +0.327 C 
BRANCH  16  24
ATOM     17  C   UNL     1      -0.019   1.526   0.010  0.00  0.00    +0.009 C 
ATOM     18  C   UNL     1       0.002  -0.004   0.002  0.00  0.00    +0.004 C 
ATOM     19  C   UNL     1      -1.433  -0.534   0.015  0.00  0.00    +0.009 C 
ATOM     20  C   UNL     1      -1.414  -2.064  -0.027  0.00  0.00    +0.004 C 
ATOM     21  C   UNL     1      -0.692  -2.596   1.215  0.00  0.00    +0.111 C 
ATOM     22  N   UNL     1       0.639  -1.977   1.288  0.00  0.00    -0.298 N 
ATOM     23  C   UNL     1       0.742  -0.512   1.244  0.00  0.00    +0.111 C 
ATOM     24  C   UNL     1       1.746  -2.740   1.395  0.00  0.00    +0.253 C 
ATOM     25  O   UNL     1       1.648  -3.948   1.431  0.00  0.00    -0.272 OA
ATOM     26  C   UNL     1      -2.850  -2.592  -0.049  0.00  0.00    +0.009 C 
ENDBRANCH  16  24
ENDBRANCH  15  16
ENDBRANCH  13  15
ENDBRANCH   1  13
BRANCH   1  27
ATOM     27  C   UNL     1       6.482  -4.614   0.549  0.00  0.00    +0.071 C 
BRANCH  27  28
ATOM     28  C   UNL     1       7.516  -5.696   0.722  0.00  0.00    -0.020 A 
ATOM     29  C   UNL     1       8.775  -5.680   0.256  0.00  0.00    +0.087 A 
ATOM     30  N   UNL     1       9.418  -6.835   0.608  0.00  0.00    -0.360 N 
ATOM     31  H   UNL     1      10.336  -7.052   0.384  0.00  0.00    +0.165 HD
ATOM     32  C   UNL     1       8.567  -7.643   1.328  0.00  0.00    +0.047 A 
ATOM     33  C   UNL     1       7.340  -6.963   1.437  0.00  0.00    +0.003 A 
ATOM     34  C   UNL     1       6.278  -7.547   2.128  0.00  0.00    +0.010 A 
ATOM     35  C   UNL     1       6.437  -8.778   2.701  0.00  0.00    +0.001 A 
ATOM     36  C   UNL     1       7.646  -9.452   2.600  0.00  0.00    +0.002 A 
ATOM     37  C   UNL     1       8.705  -8.897   1.914  0.00  0.00    +0.026 A 
ENDBRANCH  27  28
ENDBRANCH   1  27
TORSDOF 8
