REMARK  Name = ZINC13064587
REMARK  11 active torsions:
REMARK  status: ('A' for Active; 'I' for Inactive)
REMARK    1  A    between atoms: C_1  and  C_2
REMARK    2  A    between atoms: C_2  and  C_3
REMARK    3  A    between atoms: C_3  and  C_5
REMARK    4  A    between atoms: C_3  and  N_72
REMARK    5  A    between atoms: N_9  and  C_10
REMARK    6  A    between atoms: C_15  and  C_16
REMARK    7  A    between atoms: C_15  and  N_72
REMARK    8  A    between atoms: C_25  and  C_26
REMARK    9  A    between atoms: C_25  and  N_72
REMARK   10  A    between atoms: C_30  and  C_39
REMARK   11  A    between atoms: C_31  and  C_38
REMARK                            x       y       z     vdW  Elec       q    Type
REMARK                         _______ _______ _______ _____ _____    ______ ____
ROOT
ATOM      1  N   UNL     1       0.397   1.639   1.141  0.00  0.00    +0.392 N 
ATOM      2  H   UNL     1       1.148   1.501   1.828  0.00  0.00    -0.080 HD
ENDROOT
BRANCH   1   3
ATOM      3  C   UNL     1      -0.654   0.625   1.370  0.00  0.00    +0.003 C 
BRANCH   3   4
ATOM      4  C   UNL     1      -0.699   0.303   2.842  0.00  0.00    +0.138 A 
ATOM      5  N   UNL     1      -0.435   1.123   3.830  0.00  0.00    -0.115 NA
ATOM      6  N   UNL     1      -0.586   0.476   4.934  0.00  0.00    -0.023 NA
ATOM      7  N   UNL     1      -0.931  -0.737   4.676  0.00  0.00    -0.044 NA
ATOM      8  N   UNL     1      -1.011  -0.883   3.396  0.00  0.00    -0.228 N 
BRANCH   8   9
ATOM      9  C   UNL     1      -1.375  -2.109   2.681  0.00  0.00    +0.111 C 
ATOM     10  C   UNL     1      -2.813  -2.527   3.048  0.00  0.00    +0.027 C 
ATOM     11  C   UNL     1      -2.756  -4.075   3.101  0.00  0.00    +0.002 C 
ATOM     12  C   UNL     1      -1.368  -4.345   3.732  0.00  0.00    +0.002 C 
ATOM     13  C   UNL     1      -0.456  -3.264   3.115  0.00  0.00    +0.027 C 
ENDBRANCH   8   9
ENDBRANCH   3   4
BRANCH   3  15
ATOM     14  C   UNL     1      -2.028   1.316  -0.599  0.00  0.00    +0.002 C 
ATOM     15  C   UNL     1      -2.017   1.158   0.923  0.00  0.00    -0.011 C 
ENDBRANCH   3  15
ENDBRANCH   1   3
BRANCH   1  16
ATOM     16  C   UNL     1      -0.165   2.995   1.309  0.00  0.00    -0.041 C 
BRANCH  16  17
ATOM     17  C   UNL     1      -0.344   3.266   2.780  0.00  0.00    -0.060 A 
ATOM     18  C   UNL     1      -1.612   3.272   3.332  0.00  0.00    +0.005 A 
ATOM     19  C   UNL     1      -1.780   3.514   4.682  0.00  0.00    +0.050 A 
ATOM     20  C   UNL     1      -0.679   3.764   5.484  0.00  0.00    +0.166 A 
ATOM     21  C   UNL     1       0.598   3.763   4.928  0.00  0.00    +0.166 A 
ATOM     22  C   UNL     1       0.760   3.513   3.575  0.00  0.00    +0.051 A 
ATOM     23  O   UNL     1       1.503   4.031   5.914  0.00  0.00    -0.453 OA
ATOM     24  C   UNL     1       0.739   4.599   6.994  0.00  0.00    +0.466 C 
ATOM     25  O   UNL     1      -0.574   4.033   6.819  0.00  0.00    -0.453 OA
ENDBRANCH  16  17
ENDBRANCH   1  16
BRANCH   1  26
ATOM     26  C   UNL     1       0.956   1.488  -0.219  0.00  0.00    -0.036 C 
BRANCH  26  27
ATOM     27  C   UNL     1       1.870   0.290  -0.235  0.00  0.00    +0.001 A 
ATOM     28  C   UNL     1       1.424  -0.893  -0.726  0.00  0.00    +0.017 A 
ATOM     29  C   UNL     1       2.337  -2.038  -0.728  0.00  0.00    -0.001 A 
ATOM     30  C   UNL     1       1.934  -3.283  -1.221  0.00  0.00    +0.013 A 
ATOM     31  C   UNL     1       2.810  -4.332  -1.209  0.00  0.00    -0.047 A 
ATOM     32  C   UNL     1       4.096  -4.172  -0.712  0.00  0.00    -0.046 A 
ATOM     33  C   UNL     1       4.515  -2.954  -0.221  0.00  0.00    +0.030 A 
ATOM     34  C   UNL     1       3.640  -1.872  -0.223  0.00  0.00    +0.049 A 
ATOM     35  N   UNL     1       4.032  -0.642   0.261  0.00  0.00    -0.322 N 
ATOM     36  H   UNL     1       4.931  -0.530   0.609  0.00  0.00    +0.169 HD
ATOM     37  C   UNL     1       3.189   0.405   0.254  0.00  0.00    +0.251 A 
ATOM     38  O   UNL     1       3.571   1.478   0.686  0.00  0.00    -0.268 OA
ATOM     39  C   UNL     1       5.045  -5.343  -0.708  0.00  0.00    +0.044 C 
ATOM     40  C   UNL     1       2.376  -5.674  -1.740  0.00  0.00    +0.044 C 
ENDBRANCH  26  27
ENDBRANCH   1  26
TORSDOF 8
