REMARK  Name = ZINC20719111
REMARK  5 active torsions:
REMARK  status: ('A' for Active; 'I' for Inactive)
REMARK    1  A    between atoms: C_1  and  N_2
REMARK    2  A    between atoms: C_8  and  C_10
REMARK    3  A    between atoms: C_17  and  C_26
REMARK    4  A    between atoms: C_35  and  O_36
REMARK    5  A    between atoms: O_36  and  C_37
REMARK                            x       y       z     vdW  Elec       q    Type
REMARK                         _______ _______ _______ _____ _____    ______ ____
ROOT
ATOM      1  C   UNL     1      -5.815   2.448  -1.419  0.00  0.00    +0.058 A 
ATOM      2  C   UNL     1      -7.165   2.439  -1.071  0.00  0.00    +0.015 A 
ATOM      3  C   UNL     1      -7.607   1.643  -0.038  0.00  0.00    +0.001 A 
ATOM      4  C   UNL     1      -6.708   0.846   0.652  0.00  0.00    +0.006 A 
ATOM      5  C   UNL     1      -5.372   0.837   0.319  0.00  0.00    -0.019 A 
ATOM      6  C   UNL     1      -4.892   1.645  -0.717  0.00  0.00    +0.044 A 
ATOM      7  N   UNL     1      -3.561   1.726  -1.088  0.00  0.00    -0.336 N 
ATOM      8  C   UNL     1      -2.622   0.826  -0.400  0.00  0.00    +0.109 C 
ATOM      9  C   UNL     1      -3.047   0.764   1.052  0.00  0.00    +0.029 C 
ATOM     10  C   UNL     1      -4.398  -0.018   1.032  0.00  0.00    +0.049 C 
ATOM     11  C   UNL     1      -4.573  -0.421   2.449  0.00  0.00    -0.023 C 
ATOM     12  C   UNL     1      -3.372  -0.543   3.005  0.00  0.00    -0.030 C 
ATOM     13  C   UNL     1      -2.287  -0.185   1.985  0.00  0.00    +0.033 C 
ATOM     14  H   UNL     1      -3.192   2.421  -1.857  0.00  0.00    +0.147 HD
ENDROOT
BRANCH   1  22
ATOM     15  C   UNL     1      -4.644   8.620  -1.715  0.00  0.00    -0.096 C 
ATOM     16  N   UNL     1      -5.275   7.354  -2.111  0.00  0.00    +0.380 N 
ATOM     17  C   UNL     1      -4.498   6.685  -3.163  0.00  0.00    -0.060 C 
ATOM     18  C   UNL     1      -5.277   5.468  -3.673  0.00  0.00    +0.089 C 
ATOM     19  N   UNL     1      -5.626   4.620  -2.523  0.00  0.00    -0.301 N 
ATOM     20  C   UNL     1      -6.291   5.249  -1.372  0.00  0.00    +0.089 C 
ATOM     21  C   UNL     1      -5.467   6.476  -0.949  0.00  0.00    -0.060 C 
ATOM     22  C   UNL     1      -5.349   3.302  -2.526  0.00  0.00    +0.248 C 
ATOM     23  O   UNL     1      -4.715   2.816  -3.443  0.00  0.00    -0.270 OA
ATOM     24  H   UNL     1      -6.268   7.584  -2.524  0.00  0.00    -0.082 HD
ENDBRANCH   1  22
BRANCH   8  25
ATOM     25  C   UNL     1      -1.220   1.370  -0.502  0.00  0.00    +0.022 A 
ATOM     26  C   UNL     1      -0.157   0.522  -0.852  0.00  0.00    -0.009 A 
ATOM     27  C   UNL     1      -0.369  -0.843  -1.114  0.00  0.00    +0.009 A 
ATOM     28  C   UNL     1       0.684  -1.635  -1.456  0.00  0.00    +0.001 A 
ATOM     29  C   UNL     1       1.973  -1.113  -1.551  0.00  0.00    +0.001 A 
ATOM     30  C   UNL     1       2.216   0.203  -1.305  0.00  0.00    +0.008 A 
ATOM     31  C   UNL     1       1.154   1.052  -0.949  0.00  0.00    -0.017 A 
ATOM     32  C   UNL     1       1.368   2.417  -0.688  0.00  0.00    +0.012 A 
ATOM     33  C   UNL     1       0.319   3.211  -0.346  0.00  0.00    +0.046 A 
ATOM     34  C   UNL     1      -0.976   2.690  -0.251  0.00  0.00    +0.126 A 
BRANCH  34  35
ATOM     35  O   UNL     1      -2.005   3.509   0.092  0.00  0.00    -0.495 OA
ATOM     36  C   UNL     1      -1.688   4.880   0.338  0.00  0.00    +0.277 C 
ENDBRANCH  34  35
ENDBRANCH   8  25
TORSDOF 3
