REMARK  Name = ZINC34313125
REMARK  12 active torsions:
REMARK  status: ('A' for Active; 'I' for Inactive)
REMARK    1  A    between atoms: C_1  and  C_2
REMARK    2  A    between atoms: C_2  and  C_3
REMARK    3  A    between atoms: C_3  and  C_4
REMARK    4  A    between atoms: C_10  and  C_12
REMARK    5  A    between atoms: C_14  and  S_21
REMARK    6  A    between atoms: C_17  and  O_18
REMARK    7  A    between atoms: O_18  and  C_19
REMARK    8  A    between atoms: C_19  and  C_20
REMARK    9  A    between atoms: S_21  and  N_24
REMARK   10  A    between atoms: C_26  and  C_33
REMARK   11  A    between atoms: C_29  and  C_32
REMARK   12  A    between atoms: N_34  and  C_36
REMARK                            x       y       z     vdW  Elec       q    Type
REMARK                         _______ _______ _______ _____ _____    ______ ____
ROOT
ATOM      1  C   UNL     1      -1.420  -3.233  -4.785  0.00  0.00    +0.061 A 
ATOM      2  C   UNL     1      -1.416  -4.249  -5.743  0.00  0.00    +0.043 A 
ATOM      3  C   UNL     1      -1.427  -3.930  -7.084  0.00  0.00    +0.106 A 
ATOM      4  C   UNL     1      -1.441  -2.604  -7.486  0.00  0.00    +0.032 A 
ATOM      5  C   UNL     1      -1.445  -1.590  -6.549  0.00  0.00    +0.048 A 
ATOM      6  C   UNL     1      -1.440  -1.894  -5.196  0.00  0.00    +0.131 A 
ENDROOT
BRANCH   1  13
ATOM      7  C   UNL     1      -1.413  -2.041   0.005  0.00  0.00    +0.089 A 
ATOM      8  C   UNL     1      -1.407  -2.855  -1.145  0.00  0.00    +0.119 A 
ATOM      9  C   UNL     1      -1.386  -4.184  -0.703  0.00  0.00    +0.151 A 
ATOM     10  C   UNL     1      -1.377  -5.221  -1.664  0.00  0.00    +0.278 A 
ATOM     11  O   UNL     1      -1.359  -6.391  -1.321  0.00  0.00    -0.265 OA
ATOM     12  N   UNL     1      -1.389  -4.885  -2.973  0.00  0.00    -0.305 N 
ATOM     13  C   UNL     1      -1.409  -3.569  -3.348  0.00  0.00    +0.145 A 
ATOM     14  N   UNL     1      -1.417  -2.597  -2.468  0.00  0.00    -0.225 NA
ATOM     15  N   UNL     1      -1.380  -4.150   0.664  0.00  0.00    -0.260 N 
ATOM     16  N   UNL     1      -1.392  -2.807   1.061  0.00  0.00    -0.174 NA
ATOM     17  C   UNL     1      -1.360  -5.313   1.555  0.00  0.00    +0.173 C 
ATOM     18  H   UNL     1      -1.383  -5.579  -3.650  0.00  0.00    +0.170 HD
BRANCH   7  19
ATOM     19  C   UNL     1      -1.433  -0.534   0.013  0.00  0.00    +0.059 C 
BRANCH  19  21
ATOM     20  C   UNL     1      -0.019   1.526   0.010  0.00  0.00    +0.004 C 
ATOM     21  C   UNL     1       0.002  -0.004   0.002  0.00  0.00    +0.003 C 
ENDBRANCH  19  21
ENDBRANCH   7  19
ENDBRANCH   1  13
BRANCH   3  22
ATOM     22  S   UNL     1      -1.423  -5.213  -8.292  0.00  0.00    +0.061 S 
ATOM     23  O   UNL     1      -0.884  -4.650  -9.480  0.00  0.00    -0.153 OA
ATOM     24  O   UNL     1      -0.858  -6.357  -7.666  0.00  0.00    -0.153 OA
BRANCH  22  25
ATOM     25  N   UNL     1      -3.003  -5.584  -8.618  0.00  0.00    -0.180 NA
ATOM     26  C   UNL     1      -3.714  -6.614  -7.844  0.00  0.00    +0.093 C 
ATOM     27  C   UNL     1      -4.377  -7.586  -8.825  0.00  0.00    -0.059 C 
ATOM     28  N   UNL     1      -5.227  -6.836  -9.758  0.00  0.00    +0.384 N 
ATOM     29  C   UNL     1      -4.399  -5.947 -10.583  0.00  0.00    -0.059 C 
ATOM     30  C   UNL     1      -3.738  -4.889  -9.686  0.00  0.00    +0.093 C 
ATOM     31  C   UNL     1      -5.278  -5.253 -11.625  0.00  0.00    -0.012 C 
ATOM     32  C   UNL     1      -5.234  -8.588  -8.048  0.00  0.00    -0.012 C 
ATOM     33  H   UNL     1      -5.721  -7.482 -10.354  0.00  0.00    -0.085 HD
ATOM     34  H   UNL     1      -5.893  -6.285  -9.237  0.00  0.00    -0.085 HD
ENDBRANCH  22  25
ENDBRANCH   3  22
BRANCH   6  35
ATOM     35  O   UNL     1      -1.450  -0.898  -4.274  0.00  0.00    -0.492 OA
BRANCH  35  36
ATOM     36  C   UNL     1      -1.471   0.443  -4.767  0.00  0.00    +0.226 C 
ATOM     37  C   UNL     1      -1.479   1.419  -3.589  0.00  0.00    +0.048 C 
ENDBRANCH  35  36
ENDBRANCH   6  35
TORSDOF 7
