REMARK  Name = ZINC23434886
REMARK  6 active torsions:
REMARK  status: ('A' for Active; 'I' for Inactive)
REMARK    1  A    between atoms: C_5  and  C_7
REMARK    2  A    between atoms: C_7  and  C_8
REMARK    3  A    between atoms: C_8  and  N_9
REMARK    4  A    between atoms: C_19  and  C_24
REMARK    5  A    between atoms: N_26  and  C_27
REMARK    6  A    between atoms: C_27  and  C_28
REMARK                            x       y       z     vdW  Elec       q    Type
REMARK                         _______ _______ _______ _____ _____    ______ ____
ROOT
ATOM      1  N   UNL     1      -2.801   1.629   0.247  0.00  0.00    -0.299 N 
ATOM      2  C   UNL     1      -1.568   2.136   0.053  0.00  0.00    +0.302 C 
ATOM      3  O   UNL     1      -0.609   1.392  -0.019  0.00  0.00    -0.253 OA
ATOM      4  N   UNL     1      -1.397   3.468  -0.062  0.00  0.00    -0.283 N 
ATOM      5  C   UNL     1      -0.077   4.035  -0.378  0.00  0.00    +0.128 C 
ATOM      6  C   UNL     1      -0.238   4.997  -1.566  0.00  0.00    +0.125 C 
ATOM      7  N   UNL     1      -1.279   5.985  -1.253  0.00  0.00    -0.312 N 
ATOM      8  C   UNL     1      -2.587   5.341  -1.072  0.00  0.00    +0.125 C 
ATOM      9  C   UNL     1      -2.524   4.393   0.130  0.00  0.00    +0.128 C 
ATOM     10  C   UNL     1      -1.340   6.966  -2.225  0.00  0.00    +0.134 A 
ATOM     11  C   UNL     1      -0.611   8.157  -2.063  0.00  0.00    +0.077 A 
ATOM     12  C   UNL     1      -0.688   9.135  -3.061  0.00  0.00    +0.018 A 
ATOM     13  C   UNL     1      -1.482   8.886  -4.166  0.00  0.00    +0.021 A 
ATOM     14  C   UNL     1      -2.171   7.689  -4.254  0.00  0.00    +0.113 A 
ATOM     15  N   UNL     1      -2.080   6.777  -3.306  0.00  0.00    -0.240 NA
ATOM     16  H   UNL     1      -3.657   2.305   0.392  0.00  0.00    +0.150 HD
ENDROOT
BRANCH  11  17
ATOM     17  C   UNL     1       0.220   8.371  -0.864  0.00  0.00    +0.248 C 
ATOM     18  O   UNL     1       0.204   7.558   0.040  0.00  0.00    -0.270 OA
ATOM     19  N   UNL     1       0.997   9.468  -0.770  0.00  0.00    -0.307 N 
ATOM     20  H   UNL     1       1.012  10.204  -1.588  0.00  0.00    +0.149 HD
BRANCH  19  21
ATOM     21  C   UNL     1       1.823   9.681   0.421  0.00  0.00    +0.140 C 
BRANCH  21  22
ATOM     22  C   UNL     1       2.590  10.970   0.277  0.00  0.00    -0.027 A 
ATOM     23  C   UNL     1       3.845  10.965  -0.303  0.00  0.00    +0.009 A 
ATOM     24  C   UNL     1       4.550  12.146  -0.443  0.00  0.00    +0.050 A 
ATOM     25  C   UNL     1       4.005  13.336   0.009  0.00  0.00    +0.166 A 
ATOM     26  C   UNL     1       2.743  13.341   0.598  0.00  0.00    +0.167 A 
ATOM     27  C   UNL     1       2.039  12.155   0.729  0.00  0.00    +0.054 A 
ATOM     28  O   UNL     1       2.432  14.621   0.955  0.00  0.00    -0.453 OA
ATOM     29  C   UNL     1       3.683  15.335   0.951  0.00  0.00    +0.466 C 
ATOM     30  O   UNL     1       4.485  14.614  -0.003  0.00  0.00    -0.453 OA
ENDBRANCH  21  22
ENDBRANCH  19  21
ENDBRANCH  11  17
BRANCH   1  31
ATOM     31  C   UNL     1      -3.002   0.178   0.267  0.00  0.00    +0.110 C 
BRANCH  31  32
ATOM     32  C   UNL     1      -4.481  -0.129   0.510  0.00  0.00    +0.057 C 
BRANCH  32  37
ATOM     33  C   UNL     1      -5.270  -3.650  -0.603  0.00  0.00    +0.000 A 
ATOM     34  C   UNL     1      -5.067  -4.362   0.565  0.00  0.00    +0.003 A 
ATOM     35  C   UNL     1      -4.674  -3.705   1.716  0.00  0.00    +0.038 A 
ATOM     36  C   UNL     1      -4.484  -2.334   1.699  0.00  0.00    +0.127 A 
ATOM     37  C   UNL     1      -4.688  -1.622   0.529  0.00  0.00    -0.011 A 
ATOM     38  C   UNL     1      -5.086  -2.280  -0.619  0.00  0.00    +0.006 A 
ATOM     39  F   UNL     1      -4.101  -1.691   2.824  0.00  0.00    -0.205 F 
ENDBRANCH  32  37
ENDBRANCH  31  32
ENDBRANCH   1  31
TORSDOF 6
