REMARK  Name = ZINC35091481
REMARK  14 active torsions:
REMARK  status: ('A' for Active; 'I' for Inactive)
REMARK    1  A    between atoms: C_1  and  C_2
REMARK    2  A    between atoms: C_2  and  C_3
REMARK    3  A    between atoms: C_6  and  N_9
REMARK    4  A    between atoms: C_19  and  C_20
REMARK    5  A    between atoms: C_20  and  C_22
REMARK    6  A    between atoms: C_20  and  N_23
REMARK    7  A    between atoms: N_23  and  C_24
REMARK    8  A    between atoms: C_24  and  C_25
REMARK    9  A    between atoms: C_25  and  N_26
REMARK   10  A    between atoms: N_26  and  C_27
REMARK   11  A    between atoms: N_26  and  C_28
REMARK   12  A    between atoms: C_29  and  C_31
REMARK   13  A    between atoms: C_31  and  O_32
REMARK   14  A    between atoms: O_32  and  C_33
REMARK                            x       y       z     vdW  Elec       q    Type
REMARK                         _______ _______ _______ _____ _____    ______ ____
ROOT
ATOM      1  C   UNL     1       4.573  -1.665  -3.289  0.00  0.00    +0.139 C 
ATOM      2  C   UNL     1       4.077  -0.303  -2.797  0.00  0.00    +0.036 C 
ENDROOT
BRANCH   1  13
ATOM      3  N   UNL     1       3.237  -3.144  -4.736  0.00  0.00    -0.263 N 
ATOM      4  C   UNL     1       2.639  -3.472  -5.905  0.00  0.00    +0.266 A 
ATOM      5  O   UNL     1       2.008  -4.506  -6.025  0.00  0.00    -0.267 OA
ATOM      6  C   UNL     1       2.783  -2.531  -7.026  0.00  0.00    +0.065 A 
ATOM      7  C   UNL     1       2.206  -2.774  -8.271  0.00  0.00    +0.015 A 
ATOM      8  C   UNL     1       2.371  -1.858  -9.286  0.00  0.00    +0.001 A 
ATOM      9  C   UNL     1       3.106  -0.698  -9.078  0.00  0.00    +0.002 A 
ATOM     10  C   UNL     1       3.684  -0.439  -7.856  0.00  0.00    +0.028 A 
ATOM     11  C   UNL     1       3.530  -1.352  -6.810  0.00  0.00    +0.078 A 
ATOM     12  N   UNL     1       4.082  -1.136  -5.590  0.00  0.00    -0.231 NA
ATOM     13  C   UNL     1       3.934  -1.982  -4.616  0.00  0.00    +0.138 A 
BRANCH   3  17
ATOM     14  C   UNL     1       2.923  -5.709  -1.466  0.00  0.00    -0.047 A 
ATOM     15  C   UNL     1       3.893  -5.931  -2.427  0.00  0.00    +0.005 A 
ATOM     16  C   UNL     1       3.999  -5.083  -3.511  0.00  0.00    +0.026 A 
ATOM     17  C   UNL     1       3.131  -4.006  -3.637  0.00  0.00    +0.051 A 
ATOM     18  C   UNL     1       2.158  -3.786  -2.671  0.00  0.00    +0.026 A 
ATOM     19  C   UNL     1       2.054  -4.641  -1.591  0.00  0.00    +0.005 A 
BRANCH  14  21
ATOM     20  C   UNL     1       1.856  -7.783  -0.624  0.00  0.00    +0.009 C 
ATOM     21  C   UNL     1       2.810  -6.636  -0.283  0.00  0.00    +0.032 C 
ENDBRANCH  14  21
ENDBRANCH   3  17
ENDBRANCH   1  13
BRANCH   1  22
ATOM     22  N   UNL     1       6.029  -1.627  -3.445  0.00  0.00    -0.291 N 
ATOM     23  C   UNL     1       6.805  -2.471  -2.736  0.00  0.00    +0.254 C 
ATOM     24  O   UNL     1       6.297  -3.262  -1.970  0.00  0.00    -0.272 OA
BRANCH  22  25
ATOM     25  C   UNL     1       6.642  -0.671  -4.370  0.00  0.00    +0.090 C 
BRANCH  25  26
ATOM     26  C   UNL     1       6.944   0.634  -3.631  0.00  0.00    -0.060 C 
BRANCH  26  27
ATOM     27  N   UNL     1       7.559   1.592  -4.559  0.00  0.00    +0.377 N 
ATOM     28  C   UNL     1       6.591   1.952  -5.603  0.00  0.00    -0.097 C 
ATOM     29  C   UNL     1       7.958   2.799  -3.823  0.00  0.00    -0.097 C 
ATOM     30  H   UNL     1       8.372   1.173  -4.984  0.00  0.00    -0.083 HD
ENDBRANCH  26  27
ENDBRANCH  25  26
ENDBRANCH  22  25
BRANCH  23  31
ATOM     31  C   UNL     1       8.303  -2.432  -2.896  0.00  0.00    +0.324 C 
BRANCH  31  32
ATOM     32  O   UNL     1       8.898  -3.415  -2.046  0.00  0.00    -0.483 OA
BRANCH  32  33
ATOM     33  C   UNL     1      10.254  -3.511  -2.071  0.00  0.00    +0.121 A 
ATOM     34  C   UNL     1      10.995  -2.674  -2.891  0.00  0.00    +0.047 A 
ATOM     35  C   UNL     1      12.373  -2.774  -2.914  0.00  0.00    +0.023 A 
ATOM     36  C   UNL     1      13.013  -3.709  -2.120  0.00  0.00    +0.041 A 
ATOM     37  C   UNL     1      12.275  -4.545  -1.301  0.00  0.00    +0.023 A 
ATOM     38  C   UNL     1      10.898  -4.444  -1.270  0.00  0.00    +0.047 A 
ATOM     39 CL   UNL     1      14.744  -3.833  -2.151  0.00  0.00    -0.084 Cl
ENDBRANCH  32  33
ENDBRANCH  31  32
ENDBRANCH  23  31
ENDBRANCH   1  22
TORSDOF 10
