REMARK  Name = ZINC44409449
REMARK  7 active torsions:
REMARK  status: ('A' for Active; 'I' for Inactive)
REMARK    1  A    between atoms: C_1  and  C_2
REMARK    2  A    between atoms: C_2  and  C_3
REMARK    3  A    between atoms: C_3  and  C_5
REMARK    4  A    between atoms: C_3  and  N_20
REMARK    5  A    between atoms: C_5  and  C_6
REMARK    6  A    between atoms: C_9  and  C_19
REMARK    7  A    between atoms: CA_15  and  C_16
REMARK                            x       y       z     vdW  Elec       q    Type
REMARK                         _______ _______ _______ _____ _____    ______ ____
ROOT
ATOM      1  C   UNL     1       1.277  -2.528   2.581  0.00  0.00    -0.009 A 
ATOM      2  C   UNL     1       2.636  -2.872   2.771  0.00  0.00    +0.004 A 
ATOM      3  C   UNL     1       3.755  -2.875   1.927  0.00  0.00    +0.013 A 
ATOM      4  C   UNL     1       4.968  -3.270   2.410  0.00  0.00    -0.050 A 
ATOM      5  C   UNL     1       5.107  -3.670   3.733  0.00  0.00    +0.005 A 
ATOM      6  C   UNL     1       4.023  -3.676   4.583  0.00  0.00    +0.026 A 
ATOM      7  C   UNL     1       2.774  -3.276   4.114  0.00  0.00    +0.047 A 
ATOM      8  N   UNL     1       1.537  -3.177   4.704  0.00  0.00    -0.349 N 
ATOM      9  H   UNL     1       1.333  -3.391   5.627  0.00  0.00    +0.166 HD
ATOM     10  CA  UNL     1       0.633  -2.715   3.765  0.00  0.00    +0.133 A 
ATOM     11  C   UNL     1       6.169  -3.273   1.499  0.00  0.00    +0.044 C 
ENDROOT
BRANCH  10  12
ATOM     12  C   UNL     1      -0.793  -2.470   4.006  0.00  0.00    +0.403 C 
ATOM     13  O   UNL     1      -1.270  -2.673   5.115  0.00  0.00    -0.239 OA
ATOM     14  OXT UNL     1      -1.506  -2.063   3.098  0.00  0.00    -0.239 OA
ENDBRANCH  10  12
BRANCH   1  15
ATOM     15  C   UNL     1       0.655  -2.037   1.299  0.00  0.00    +0.022 C 
BRANCH  15  16
ATOM     16  C   UNL     1       0.742  -0.511   1.242  0.00  0.00    -0.071 C 
BRANCH  16  17
ATOM     17  N   UNL     1       2.151  -0.103   1.171  0.00  0.00    +0.380 N 
ATOM     18  H   UNL     1       2.574  -0.495   0.344  0.00  0.00    -0.090 HD
ATOM     19  H   UNL     1       2.209   0.904   1.134  0.00  0.00    -0.090 HD
ATOM     20  H   UNL     1       2.639  -0.437   1.989  0.00  0.00    -0.090 HD
ENDBRANCH  16  17
BRANCH  16  22
ATOM     21  C   UNL     1      -0.019   1.526   0.010  0.00  0.00    +0.002 C 
ATOM     22  C   UNL     1       0.002  -0.004   0.002  0.00  0.00    -0.019 C 
ENDBRANCH  16  22
ENDBRANCH  15  16
ENDBRANCH   1  15
TORSDOF 5
