REMARK  Name = ZINC20235789
REMARK  15 active torsions:
REMARK  status: ('A' for Active; 'I' for Inactive)
REMARK    1  A    between atoms: C_1  and  C_2
REMARK    2  A    between atoms: C_5  and  S_8
REMARK    3  A    between atoms: S_8  and  N_11
REMARK    4  A    between atoms: N_11  and  C_12
REMARK    5  A    between atoms: N_11  and  C_26
REMARK    6  A    between atoms: C_12  and  C_13
REMARK    7  A    between atoms: N_15  and  C_16
REMARK    8  A    between atoms: C_16  and  C_17
REMARK    9  A    between atoms: C_17  and  C_18
REMARK   10  A    between atoms: C_21  and  O_24
REMARK   11  A    between atoms: O_24  and  C_25
REMARK   12  A    between atoms: C_29  and  O_34
REMARK   13  A    between atoms: C_31  and  O_32
REMARK   14  A    between atoms: O_32  and  C_33
REMARK   15  A    between atoms: O_34  and  C_35
REMARK                            x       y       z     vdW  Elec       q    Type
REMARK                         _______ _______ _______ _____ _____    ______ ____
ROOT
ATOM      1  N   UNL     1       1.291  -2.644  -2.232  0.00  0.00    -0.191 N 
ENDROOT
BRANCH   1   2
ATOM      2  C   UNL     1       0.582  -2.781  -3.434  0.00  0.00    +0.094 A 
ATOM      3  C   UNL     1       0.415  -1.687  -4.269  0.00  0.00    +0.032 A 
ATOM      4  C   UNL     1      -0.284  -1.822  -5.455  0.00  0.00    +0.048 A 
ATOM      5  C   UNL     1      -0.819  -3.051  -5.810  0.00  0.00    +0.124 A 
ATOM      6  C   UNL     1      -0.654  -4.148  -4.978  0.00  0.00    +0.093 A 
ATOM      7  C   UNL     1       0.050  -4.017  -3.792  0.00  0.00    +0.146 A 
BRANCH   7   8
ATOM      8  O   UNL     1       0.217  -5.093  -2.977  0.00  0.00    -0.493 OA
ATOM      9  C   UNL     1      -0.355  -6.329  -3.408  0.00  0.00    +0.277 C 
ENDBRANCH   7   8
BRANCH   5  10
ATOM     10  O   UNL     1      -1.505  -3.181  -6.977  0.00  0.00    -0.495 OA
ATOM     11  C   UNL     1      -1.636  -2.011  -7.786  0.00  0.00    +0.277 C 
ENDBRANCH   5  10
ENDBRANCH   1   2
BRANCH   1  12
ATOM     12  S   UNL     1       2.904  -3.016  -2.175  0.00  0.00    +0.075 S 
ATOM     13  O   UNL     1       3.397  -2.890  -3.501  0.00  0.00    -0.150 OA
ATOM     14  O   UNL     1       3.451  -2.285  -1.086  0.00  0.00    -0.150 OA
BRANCH  12  19
ATOM     15  C   UNL     1       3.337  -8.857  -0.724  0.00  0.00    +0.044 C 
ATOM     16  C   UNL     1       3.229  -7.398  -1.086  0.00  0.00    -0.050 A 
ATOM     17  C   UNL     1       3.152  -7.019  -2.413  0.00  0.00    +0.005 A 
ATOM     18  C   UNL     1       3.054  -5.681  -2.746  0.00  0.00    +0.029 A 
ATOM     19  C   UNL     1       3.030  -4.722  -1.751  0.00  0.00    +0.109 A 
ATOM     20  C   UNL     1       3.111  -5.100  -0.424  0.00  0.00    +0.029 A 
ATOM     21  C   UNL     1       3.206  -6.438  -0.091  0.00  0.00    +0.005 A 
ENDBRANCH  12  19
ENDBRANCH   1  12
BRANCH   1  22
ATOM     22  C   UNL     1       0.606  -2.171  -1.026  0.00  0.00    +0.227 C 
BRANCH  22  23
ATOM     23  C   UNL     1       0.585  -0.664  -1.018  0.00  0.00    +0.232 C 
ATOM     24  O   UNL     1       1.093  -0.046  -1.929  0.00  0.00    -0.274 OA
ATOM     25  N   UNL     1       0.002  -0.004   0.002  0.00  0.00    -0.314 N 
ATOM     26  H   UNL     1      -0.459  -0.565   0.828  0.00  0.00    +0.149 HD
BRANCH  25  27
ATOM     27  C   UNL     1      -0.018   1.461   0.010  0.00  0.00    +0.109 C 
BRANCH  27  28
ATOM     28  C   UNL     1      -0.734   1.954   1.269  0.00  0.00    +0.054 C 
BRANCH  28  29
ATOM     29  C   UNL     1      -0.754   3.461   1.277  0.00  0.00    -0.046 A 
ATOM     30  C   UNL     1       0.277   4.162   1.875  0.00  0.00    +0.007 A 
ATOM     31  C   UNL     1       0.263   5.543   1.879  0.00  0.00    +0.046 A 
ATOM     32  C   UNL     1      -0.792   6.227   1.292  0.00  0.00    +0.120 A 
ATOM     33  C   UNL     1      -1.828   5.521   0.698  0.00  0.00    +0.046 A 
ATOM     34  C   UNL     1      -1.807   4.140   0.692  0.00  0.00    +0.007 A 
BRANCH  32  35
ATOM     35  O   UNL     1      -0.810   7.586   1.300  0.00  0.00    -0.495 OA
ATOM     36  C   UNL     1       0.290   8.246   1.929  0.00  0.00    +0.277 C 
ENDBRANCH  32  35
ENDBRANCH  28  29
ENDBRANCH  27  28
ENDBRANCH  25  27
ENDBRANCH  22  23
ENDBRANCH   1  22
TORSDOF 11
