REMARK  Name = ZINC40999065
REMARK  4 active torsions:
REMARK  status: ('A' for Active; 'I' for Inactive)
REMARK    1  A    between atoms: C_1  and  C_2
REMARK    2  A    between atoms: C_2  and  C_4
REMARK    3  A    between atoms: C_2  and  N_14
REMARK    4  A    between atoms: N_14  and  C_15
REMARK                            x       y       z     vdW  Elec       q    Type
REMARK                         _______ _______ _______ _____ _____    ______ ____
ROOT
ATOM      1  C   UNL     1      -0.019   1.526   0.010  0.00  0.00    +0.028 C 
ATOM      2  C   UNL     1       0.002  -0.004   0.002  0.00  0.00    +0.074 C 
ENDROOT
BRANCH   2   3
ATOM      3  C   UNL     1       0.742  -0.511   1.242  0.00  0.00    -0.010 C 
ATOM      4  C   UNL     1       2.178   0.019   1.231  0.00  0.00    +0.012 C 
ATOM      5  C   UNL     1       2.917  -0.488   2.470  0.00  0.00    -0.010 C 
ATOM      6  C   UNL     1       2.201   0.005   3.729  0.00  0.00    +0.007 C 
ATOM      7  C   UNL     1       0.766  -0.524   3.740  0.00  0.00    -0.010 C 
ATOM      8  C   UNL     1       0.026  -0.018   2.500  0.00  0.00    +0.012 C 
ATOM      9  C   UNL     1       0.787  -2.054   3.732  0.00  0.00    +0.007 C 
ATOM     10  C   UNL     1       1.503  -2.548   2.473  0.00  0.00    -0.010 C 
ATOM     11  C   UNL     1       2.938  -2.018   2.462  0.00  0.00    +0.007 C 
ATOM     12  C   UNL     1       0.763  -2.041   1.233  0.00  0.00    +0.012 C 
ENDBRANCH   2   3
BRANCH   2  13
ATOM     13  N   UNL     1       0.688  -0.476  -1.203  0.00  0.00    -0.337 N 
ATOM     14  H   UNL     1       1.632  -0.695  -1.170  0.00  0.00    +0.146 HD
BRANCH  13  15
ATOM     15  C   UNL     1      -0.025  -0.614  -2.412  0.00  0.00    +0.087 A 
ATOM     16  C   UNL     1      -1.339  -0.340  -2.599  0.00  0.00    +0.129 A 
ATOM     17  N   UNL     1      -1.635  -0.605  -3.901  0.00  0.00    -0.281 N 
ATOM     18  H   UNL     1      -2.503  -0.501  -4.321  0.00  0.00    +0.188 HD
ATOM     19  N   UNL     1      -0.465  -1.053  -4.526  0.00  0.00    -0.157 NA
ATOM     20  C   UNL     1       0.502  -1.055  -3.640  0.00  0.00    +0.159 A 
ATOM     21  N   UNL     1       1.831  -1.433  -3.875  0.00  0.00    -0.340 N 
ATOM     22  H   UNL     1       2.479  -1.404  -3.153  0.00  0.00    +0.144 HD
ATOM     23  H   UNL     1       2.104  -1.725  -4.759  0.00  0.00    +0.144 HD
ENDBRANCH  13  15
ENDBRANCH   2  13
TORSDOF 3
