REMARK  Name = ZINC61881675
REMARK  6 active torsions:
REMARK  status: ('A' for Active; 'I' for Inactive)
REMARK    1  A    between atoms: C_4  and  S_9
REMARK    2  A    between atoms: C_6  and  N_7
REMARK    3  A    between atoms: S_9  and  N_12
REMARK    4  A    between atoms: N_12  and  C_13
REMARK    5  A    between atoms: C_13  and  C_14
REMARK    6  A    between atoms: C_14  and  O_15
REMARK                            x       y       z     vdW  Elec       q    Type
REMARK                         _______ _______ _______ _____ _____    ______ ____
ROOT
ATOM      1  C   UNL     1      -0.131   0.735  -0.673  0.00  0.00    +0.044 A 
ATOM      2  C   UNL     1       0.307  -0.329  -1.440  0.00  0.00    +0.045 A 
ATOM      3  C   UNL     1       1.583  -0.833  -1.261  0.00  0.00    +0.049 A 
ATOM      4  C   UNL     1       2.424  -0.275  -0.316  0.00  0.00    +0.122 A 
ATOM      5  C   UNL     1       1.992   0.788   0.454  0.00  0.00    +0.065 A 
ATOM      6  C   UNL     1       0.711   1.297   0.277  0.00  0.00    +0.042 A 
ATOM      7 BR   UNL     1       3.143   1.549   1.747  0.00  0.00    -0.046 Br
ATOM      8 CL   UNL     1      -0.746  -1.033  -2.627  0.00  0.00    -0.083 Cl
ENDROOT
BRANCH   6   9
ATOM      9  N   UNL     1       0.272   2.373   1.053  0.00  0.00    -0.357 N 
ATOM     10  H   UNL     1      -0.622   2.728   0.929  0.00  0.00    +0.142 HD
ATOM     11  H   UNL     1       0.861   2.765   1.716  0.00  0.00    +0.142 HD
ENDBRANCH   6   9
BRANCH   4  12
ATOM     12  S   UNL     1       4.048  -0.921  -0.092  0.00  0.00    +0.060 S 
ATOM     13  O   UNL     1       4.174  -2.021  -0.983  0.00  0.00    -0.153 OA
ATOM     14  O   UNL     1       4.934   0.189  -0.123  0.00  0.00    -0.153 OA
BRANCH  12  15
ATOM     15  N   UNL     1       4.121  -1.543   1.441  0.00  0.00    -0.188 NA
ATOM     16  H   UNL     1       4.727  -1.157   2.093  0.00  0.00    +0.148 HD
BRANCH  15  17
ATOM     17  C   UNL     1       3.270  -2.676   1.813  0.00  0.00    +0.133 C 
BRANCH  17  18
ATOM     18  C   UNL     1       3.796  -3.306   3.105  0.00  0.00    +0.172 C 
BRANCH  18  19
ATOM     19  O   UNL     1       3.670  -2.370   4.177  0.00  0.00    -0.394 OA
ATOM     20  H   UNL     1       3.985  -2.703   5.029  0.00  0.00    +0.209 HD
ENDBRANCH  18  19
ENDBRANCH  17  18
ENDBRANCH  15  17
ENDBRANCH  12  15
ENDBRANCH   4  12
TORSDOF 6
