REMARK  Name = ZINC39685780
REMARK  12 active torsions:
REMARK  status: ('A' for Active; 'I' for Inactive)
REMARK    1  A    between atoms: C_1  and  C_2
REMARK    2  A    between atoms: C_2  and  C_3
REMARK    3  A    between atoms: C_2  and  C_4
REMARK    4  A    between atoms: C_4  and  C_6
REMARK    5  A    between atoms: C_4  and  N_13
REMARK    6  A    between atoms: N_8  and  C_9
REMARK    7  A    between atoms: C_9  and  C_10
REMARK    8  A    between atoms: C_9  and  C_11
REMARK    9  A    between atoms: C_9  and  C_12
REMARK   10  A    between atoms: C_14  and  C_16
REMARK   11  A    between atoms: C_27  and  C_29
REMARK   12  A    between atoms: C_29  and  C_30
REMARK                            x       y       z     vdW  Elec       q    Type
REMARK                         _______ _______ _______ _____ _____    ______ ____
ROOT
ATOM      1  C   UNL     1      -2.896  -0.063  -3.415  0.00  0.00    +0.100 C 
ATOM      2  C   UNL     1      -4.373   0.207  -3.054  0.00  0.00    +0.121 C 
ATOM      3  N   UNL     1      -5.135  -0.213  -4.255  0.00  0.00    -0.300 N 
ATOM      4  C   UNL     1      -4.445  -1.441  -4.718  0.00  0.00    +0.115 C 
ATOM      5  C   UNL     1      -2.946  -1.145  -4.506  0.00  0.00    -0.004 C 
ATOM      6  C   UNL     1      -2.223  -2.404  -4.037  0.00  0.00    -0.010 C 
ATOM      7  C   UNL     1      -2.236  -3.444  -5.160  0.00  0.00    -0.082 C 
ATOM      8  N   UNL     1      -1.577  -2.891  -6.350  0.00  0.00    +0.379 N 
ATOM      9  C   UNL     1      -2.333  -1.736  -6.850  0.00  0.00    -0.082 C 
ATOM     10  C   UNL     1      -2.324  -0.624  -5.798  0.00  0.00    -0.010 C 
ATOM     11  C   UNL     1      -6.210   0.387  -4.802  0.00  0.00    +0.220 C 
ATOM     12  O   UNL     1      -6.727  -0.082  -5.794  0.00  0.00    -0.275 OA
ATOM     13  H   UNL     1      -0.641  -2.600  -6.110  0.00  0.00    -0.086 HD
ATOM     14  H   UNL     1      -1.533  -3.599  -7.068  0.00  0.00    -0.086 HD
ENDROOT
BRANCH   1  16
ATOM     15  N   UNL     1      -0.820  -0.348  -2.100  0.00  0.00    -0.303 N 
ATOM     16  C   UNL     1      -2.145  -0.568  -2.210  0.00  0.00    +0.219 C 
ATOM     17  O   UNL     1      -2.734  -1.172  -1.338  0.00  0.00    -0.275 OA
ATOM     18  H   UNL     1      -0.355   0.165  -2.780  0.00  0.00    +0.149 HD
BRANCH  15  19
ATOM     19  C   UNL     1      -0.081  -0.884  -0.954  0.00  0.00    +0.161 C 
BRANCH  19  20
ATOM     20  C   UNL     1       1.017   0.075  -0.572  0.00  0.00    +0.234 C 
ATOM     21  O   UNL     1       1.380   0.925  -1.357  0.00  0.00    -0.274 OA
ATOM     22  N   UNL     1       1.596  -0.012   0.642  0.00  0.00    -0.309 N 
ATOM     23  H   UNL     1       1.358  -0.737   1.241  0.00  0.00    +0.149 HD
BRANCH  22  24
ATOM     24  C   UNL     1       2.584   0.987   1.056  0.00  0.00    +0.026 C 
ATOM     25  C   UNL     1       1.939   2.374   1.053  0.00  0.00    +0.031 C 
ATOM     26  C   UNL     1       3.082   0.659   2.465  0.00  0.00    +0.031 C 
ATOM     27  C   UNL     1       3.764   0.971   0.082  0.00  0.00    +0.031 C 
ENDBRANCH  22  24
ENDBRANCH  19  20
BRANCH  19  29
ATOM     28  C   UNL     1      -0.588  -3.260  -1.537  0.00  0.00    +0.009 C 
ATOM     29  C   UNL     1       0.530  -2.236  -1.328  0.00  0.00    +0.012 C 
ATOM     30  C   UNL     1       1.338  -2.091  -2.619  0.00  0.00    +0.009 C 
ENDBRANCH  19  29
ENDBRANCH  15  19
ENDBRANCH   1  16
BRANCH  11  31
ATOM     31  C   UNL     1      -6.771   1.641  -4.182  0.00  0.00    +0.131 C 
BRANCH  31  32
ATOM     32  C   UNL     1      -7.962   2.106  -4.979  0.00  0.00    -0.039 A 
ATOM     33  C   UNL     1      -7.787   2.978  -6.037  0.00  0.00    +0.005 A 
ATOM     34  C   UNL     1      -8.880   3.405  -6.769  0.00  0.00    +0.020 A 
ATOM     35  C   UNL     1     -10.148   2.960  -6.442  0.00  0.00    +0.041 A 
ATOM     36  C   UNL     1     -10.322   2.087  -5.383  0.00  0.00    +0.020 A 
ATOM     37  C   UNL     1      -9.229   1.656  -4.656  0.00  0.00    +0.005 A 
ATOM     38 CL   UNL     1     -11.520   3.496  -7.360  0.00  0.00    -0.084 Cl
ENDBRANCH  31  32
ENDBRANCH  11  31
TORSDOF 7
