REMARK  Name = ZINC37053964
REMARK  5 active torsions:
REMARK  status: ('A' for Active; 'I' for Inactive)
REMARK    1  A    between atoms: C_6  and  C_7
REMARK    2  A    between atoms: C_7  and  N_8
REMARK    3  A    between atoms: N_8  and  S_9
REMARK    4  A    between atoms: S_9  and  C_12
REMARK    5  A    between atoms: C_15  and  N_19
REMARK                            x       y       z     vdW  Elec       q    Type
REMARK                         _______ _______ _______ _____ _____    ______ ____
ROOT
ATOM      1  S   UNL     1      -2.807  -2.228  -1.695  0.00  0.00    +0.060 S 
ATOM      2  O   UNL     1      -2.992  -2.404  -3.093  0.00  0.00    -0.153 OA
ATOM      3  O   UNL     1      -2.329  -3.268  -0.853  0.00  0.00    -0.153 OA
ENDROOT
BRANCH   1   4
ATOM      4  C   UNL     1      -4.365  -1.727  -1.040  0.00  0.00    +0.119 A 
ATOM      5  C   UNL     1      -4.889  -2.372   0.065  0.00  0.00    +0.031 A 
ATOM      6  C   UNL     1      -6.109  -1.982   0.580  0.00  0.00    +0.025 A 
ATOM      7  C   UNL     1      -6.811  -0.940  -0.013  0.00  0.00    +0.026 A 
ATOM      8  C   UNL     1      -6.282  -0.293  -1.122  0.00  0.00    +0.040 A 
ATOM      9  C   UNL     1      -5.058  -0.685  -1.630  0.00  0.00    +0.046 A 
ATOM     10 BR   UNL     1      -4.333   0.200  -3.136  0.00  0.00    -0.048 Br
BRANCH   7  11
ATOM     11  N   UNL     1      -8.046  -0.544   0.506  0.00  0.00    -0.358 N 
ATOM     12  H   UNL     1      -8.414  -0.996   1.281  0.00  0.00    +0.142 HD
ATOM     13  H   UNL     1      -8.535   0.184   0.091  0.00  0.00    +0.142 HD
ENDBRANCH   7  11
ENDBRANCH   1   4
BRANCH   1  14
ATOM     14  N   UNL     1      -1.766  -0.954  -1.511  0.00  0.00    -0.186 NA
ATOM     15  H   UNL     1      -1.400  -0.510  -2.292  0.00  0.00    +0.148 HD
BRANCH  14  16
ATOM     16  C   UNL     1      -1.398  -0.496  -0.169  0.00  0.00    +0.141 C 
BRANCH  16  22
ATOM     17  C   UNL     1      -0.331   1.753  -0.429  0.00  0.00    +0.006 A 
ATOM     18  C   UNL     1       0.785   2.566  -0.509  0.00  0.00    +0.020 A 
ATOM     19  C   UNL     1       2.050   2.014  -0.416  0.00  0.00    +0.041 A 
ATOM     20  C   UNL     1       2.199   0.650  -0.243  0.00  0.00    +0.020 A 
ATOM     21  C   UNL     1       1.083  -0.162  -0.164  0.00  0.00    +0.006 A 
ATOM     22  C   UNL     1      -0.181   0.389  -0.257  0.00  0.00    -0.032 A 
ATOM     23 CL   UNL     1       3.451   3.035  -0.517  0.00  0.00    -0.084 Cl
ENDBRANCH  16  22
ENDBRANCH  14  16
ENDBRANCH   1  14
TORSDOF 5
