REMARK  Name = ZINC60238984
REMARK  10 active torsions:
REMARK  status: ('A' for Active; 'I' for Inactive)
REMARK    1  A    between atoms: C_1  and  C_2
REMARK    2  A    between atoms: C_5  and  C_8
REMARK    3  A    between atoms: C_8  and  C_10
REMARK    4  A    between atoms: C_8  and  N_31
REMARK    5  A    between atoms: C_10  and  N_11
REMARK    6  A    between atoms: C_12  and  C_14
REMARK    7  A    between atoms: C_14  and  C_15
REMARK    8  A    between atoms: C_15  and  C_16
REMARK    9  A    between atoms: C_19  and  S_22
REMARK   10  A    between atoms: S_22  and  N_25
REMARK                            x       y       z     vdW  Elec       q    Type
REMARK                         _______ _______ _______ _____ _____    ______ ____
ROOT
ATOM      1  N   UNL     1      -1.243  -6.321   0.358  0.00  0.00    -0.317 N 
ATOM      2  C   UNL     1      -2.354  -7.052   0.573  0.00  0.00    +0.213 C 
ATOM      3  O   UNL     1      -3.414  -6.499   0.779  0.00  0.00    -0.276 OA
ATOM      4  H   UNL     1      -0.396  -6.763   0.193  0.00  0.00    +0.149 HD
ENDROOT
BRANCH   1   5
ATOM      5  C   UNL     1      -1.315  -4.857   0.372  0.00  0.00    +0.093 C 
BRANCH   5   6
ATOM      6  C   UNL     1       0.042  -4.276  -0.029  0.00  0.00    -0.020 C 
BRANCH   6  11
ATOM      7  C   UNL     1       1.182  -5.664  -5.521  0.00  0.00    +0.044 C 
ATOM      8  C   UNL     1       0.884  -5.302  -4.089  0.00  0.00    -0.050 A 
ATOM      9  C   UNL     1       1.460  -6.023  -3.060  0.00  0.00    +0.003 A 
ATOM     10  C   UNL     1       1.188  -5.691  -1.746  0.00  0.00    +0.002 A 
ATOM     11  C   UNL     1       0.340  -4.637  -1.461  0.00  0.00    -0.059 A 
ATOM     12  C   UNL     1      -0.235  -3.915  -2.490  0.00  0.00    +0.002 A 
ATOM     13  C   UNL     1       0.041  -4.245  -3.804  0.00  0.00    +0.003 A 
ENDBRANCH   6  11
BRANCH   6  14
ATOM     14  N   UNL     1       0.009  -2.814   0.110  0.00  0.00    +0.385 N 
ATOM     15  C   UNL     1      -0.207  -2.440   1.532  0.00  0.00    -0.078 C 
ATOM     16  C   UNL     1       0.334  -0.990   1.602  0.00  0.00    -0.020 C 
ATOM     17  C   UNL     1       1.563  -1.034   0.666  0.00  0.00    -0.020 C 
ATOM     18  C   UNL     1       1.317  -2.236  -0.264  0.00  0.00    -0.078 C 
ATOM     19  H   UNL     1      -0.722  -2.425  -0.468  0.00  0.00    -0.081 HD
ENDBRANCH   6  14
ENDBRANCH   5   6
ENDBRANCH   1   5
BRANCH   2  20
ATOM     20  C   UNL     1      -2.280  -8.557   0.558  0.00  0.00    +0.100 C 
BRANCH  20  21
ATOM     21  C   UNL     1      -3.669  -9.139   0.828  0.00  0.00    +0.044 C 
BRANCH  21  22
ATOM     22  C   UNL     1      -3.595 -10.644   0.813  0.00  0.00    -0.047 A 
ATOM     23  C   UNL     1      -3.784 -11.334  -0.370  0.00  0.00    +0.005 A 
ATOM     24  C   UNL     1      -3.716 -12.714  -0.384  0.00  0.00    +0.029 A 
ATOM     25  C   UNL     1      -3.458 -13.405   0.785  0.00  0.00    +0.105 A 
ATOM     26  C   UNL     1      -3.269 -12.716   1.968  0.00  0.00    +0.029 A 
ATOM     27  C   UNL     1      -3.333 -11.335   1.981  0.00  0.00    +0.005 A 
BRANCH  25  28
ATOM     28  S   UNL     1      -3.373 -15.165   0.768  0.00  0.00    +0.061 S 
ATOM     29  O   UNL     1      -3.661 -15.599   2.091  0.00  0.00    -0.153 OA
ATOM     30  O   UNL     1      -4.126 -15.598  -0.356  0.00  0.00    -0.153 OA
BRANCH  28  31
ATOM     31  N   UNL     1      -1.797 -15.576   0.469  0.00  0.00    -0.177 NA
ATOM     32  C   UNL     1      -1.319 -15.755  -0.909  0.00  0.00    +0.109 C 
ATOM     33  C   UNL     1      -0.087 -14.870  -1.122  0.00  0.00    +0.017 C 
ATOM     34  C   UNL     1       0.957 -15.188  -0.048  0.00  0.00    +0.003 C 
ATOM     35  C   UNL     1       0.377 -14.883   1.335  0.00  0.00    +0.017 C 
ATOM     36  C   UNL     1      -0.849 -15.762   1.576  0.00  0.00    +0.109 C 
ENDBRANCH  28  31
ENDBRANCH  25  28
ENDBRANCH  21  22
ENDBRANCH  20  21
ENDBRANCH   2  20
TORSDOF 9
