REMARK  Name = ZINC36051548
REMARK  12 active torsions:
REMARK  status: ('A' for Active; 'I' for Inactive)
REMARK    1  A    between atoms: C_1  and  C_2
REMARK    2  A    between atoms: C_5  and  N_9
REMARK    3  A    between atoms: C_11  and  C_33
REMARK    4  A    between atoms: C_15  and  C_17
REMARK    5  A    between atoms: C_17  and  N_18
REMARK    6  A    between atoms: N_18  and  C_19
REMARK    7  A    between atoms: C_19  and  C_20
REMARK    8  A    between atoms: C_20  and  C_21
REMARK    9  A    between atoms: C_20  and  C_22
REMARK   10  A    between atoms: C_23  and  C_25
REMARK   11  A    between atoms: C_28  and  O_31
REMARK   12  A    between atoms: O_31  and  C_32
REMARK                            x       y       z     vdW  Elec       q    Type
REMARK                         _______ _______ _______ _____ _____    ______ ____
ROOT
ATOM      1  N   UNL     1       1.863  -2.162  -0.129  0.00  0.00    -0.287 N 
ATOM      2  C   UNL     1       1.232  -2.563  -1.282  0.00  0.00    +0.122 A 
ATOM      3  C   UNL     1       1.378  -3.910  -1.361  0.00  0.00    +0.091 A 
ATOM      4  N   UNL     1       2.080  -4.319  -0.282  0.00  0.00    -0.214 NA
ATOM      5  C   UNL     1       2.379  -3.280   0.458  0.00  0.00    +0.207 A 
ATOM      6  N   UNL     1       3.100  -3.311   1.644  0.00  0.00    -0.254 N 
ATOM      7  C   UNL     1       3.559  -4.484   2.123  0.00  0.00    +0.237 C 
ATOM      8  O   UNL     1       3.343  -5.513   1.517  0.00  0.00    -0.274 OA
ATOM      9  H   UNL     1       3.272  -2.489   2.129  0.00  0.00    +0.158 HD
ENDROOT
BRANCH   1  14
ATOM     10  C   UNL     1       2.264   3.158   1.810  0.00  0.00    +0.047 C 
ATOM     11  C   UNL     1       2.157   1.746   1.296  0.00  0.00    -0.015 A 
ATOM     12  C   UNL     1       2.486   1.462  -0.017  0.00  0.00    +0.008 A 
ATOM     13  C   UNL     1       2.389   0.169  -0.491  0.00  0.00    +0.026 A 
ATOM     14  C   UNL     1       1.962  -0.849   0.351  0.00  0.00    +0.052 A 
ATOM     15  C   UNL     1       1.632  -0.564   1.669  0.00  0.00    +0.064 A 
ATOM     16  C   UNL     1       1.735   0.732   2.141  0.00  0.00    +0.128 A 
ATOM     17  F   UNL     1       1.420   1.011   3.425  0.00  0.00    -0.205 F 
ENDBRANCH   1  14
BRANCH   3  18
ATOM     18  C   UNL     1       0.857  -4.782  -2.442  0.00  0.00    +0.002 A 
ATOM     19  C   UNL     1       0.148  -4.227  -3.507  0.00  0.00    +0.010 A 
ATOM     20  C   UNL     1      -0.334  -5.043  -4.510  0.00  0.00    +0.001 A 
ATOM     21  C   UNL     1      -0.116  -6.408  -4.461  0.00  0.00    +0.000 A 
ATOM     22  C   UNL     1       0.586  -6.963  -3.406  0.00  0.00    +0.001 A 
ATOM     23  C   UNL     1       1.079  -6.157  -2.401  0.00  0.00    +0.010 A 
ENDBRANCH   3  18
BRANCH   7  24
ATOM     24  C   UNL     1       4.341  -4.519   3.410  0.00  0.00    +0.204 C 
BRANCH  24  25
ATOM     25  N   UNL     1       4.724  -5.900   3.712  0.00  0.00    -0.288 N 
ATOM     26  C   UNL     1       4.016  -6.615   4.608  0.00  0.00    +0.247 C 
ATOM     27  O   UNL     1       4.348  -7.754   4.877  0.00  0.00    -0.270 OA
BRANCH  26  28
ATOM     28  C   UNL     1       2.836  -6.017   5.263  0.00  0.00    +0.037 A 
ATOM     29  C   UNL     1       2.163  -4.952   4.658  0.00  0.00    +0.016 A 
ATOM     30  C   UNL     1       1.063  -4.397   5.272  0.00  0.00    +0.046 A 
ATOM     31  C   UNL     1       0.621  -4.894   6.493  0.00  0.00    +0.120 A 
ATOM     32  C   UNL     1       1.288  -5.953   7.098  0.00  0.00    +0.046 A 
ATOM     33  C   UNL     1       2.385  -6.518   6.488  0.00  0.00    +0.016 A 
BRANCH  31  34
ATOM     34  O   UNL     1      -0.463  -4.344   7.095  0.00  0.00    -0.495 OA
ATOM     35  C   UNL     1      -0.863  -4.903   8.348  0.00  0.00    +0.277 C 
ENDBRANCH  31  34
ENDBRANCH  26  28
BRANCH  25  36
ATOM     36  C   UNL     1       5.878  -6.504   3.041  0.00  0.00    +0.111 C 
BRANCH  36  37
ATOM     37  C   UNL     1       7.160  -6.112   3.778  0.00  0.00    +0.000 C 
ATOM     38  C   UNL     1       7.146  -6.721   5.182  0.00  0.00    +0.009 C 
ATOM     39  C   UNL     1       8.372  -6.637   3.007  0.00  0.00    +0.009 C 
ENDBRANCH  36  37
ENDBRANCH  25  36
ENDBRANCH  24  25
ENDBRANCH   7  24
TORSDOF 8
