REMARK  Name = ZINC15895258
REMARK  10 active torsions:
REMARK  status: ('A' for Active; 'I' for Inactive)
REMARK    1  A    between atoms: C_1  and  C_2
REMARK    2  A    between atoms: C_7  and  C_37
REMARK    3  A    between atoms: N_9  and  C_10
REMARK    4  A    between atoms: C_10  and  C_11
REMARK    5  A    between atoms: C_11  and  N_12
REMARK    6  A    between atoms: C_13  and  C_15
REMARK    7  A    between atoms: C_15  and  N_16
REMARK    8  A    between atoms: C_19  and  S_27
REMARK    9  A    between atoms: S_27  and  N_30
REMARK   10  A    between atoms: C_33  and  C_36
REMARK                            x       y       z     vdW  Elec       q    Type
REMARK                         _______ _______ _______ _____ _____    ______ ____
ROOT
ATOM      1  N   UNL     1       0.892   0.123   8.465  0.00  0.00    -0.261 N 
ATOM      2  C   UNL     1       0.554  -1.083   9.073  0.00  0.00    +0.052 A 
ATOM      3  C   UNL     1      -0.126  -2.051   8.342  0.00  0.00    +0.053 A 
ATOM      4  C   UNL     1      -0.473  -3.251   8.931  0.00  0.00    +0.107 A 
ATOM      5  C   UNL     1      -0.150  -3.503  10.252  0.00  0.00    +0.030 A 
ATOM      6  C   UNL     1       0.528  -2.550  10.990  0.00  0.00    +0.018 A 
ATOM      7  C   UNL     1       0.881  -1.346  10.404  0.00  0.00    +0.030 A 
ATOM      8  S   UNL     1       1.757  -0.126  11.331  0.00  0.00    -0.114 S 
ATOM      9  C   UNL     1       2.731   0.719  10.050  0.00  0.00    +0.170 C 
ATOM     10  C   UNL     1       1.855   0.956   8.850  0.00  0.00    +0.230 C 
ATOM     11  O   UNL     1       2.033   1.965   8.200  0.00  0.00    -0.274 OA
ENDROOT
BRANCH   4  12
ATOM     12  S   UNL     1      -1.336  -4.468   7.994  0.00  0.00    +0.061 S 
ATOM     13  O   UNL     1      -2.027  -5.285   8.928  0.00  0.00    -0.153 OA
ATOM     14  O   UNL     1      -2.002  -3.777   6.946  0.00  0.00    -0.153 OA
BRANCH  12  15
ATOM     15  N   UNL     1      -0.196  -5.431   7.275  0.00  0.00    -0.177 NA
ATOM     16  C   UNL     1       0.337  -5.097   5.947  0.00  0.00    +0.110 C 
ATOM     17  C   UNL     1       0.173  -6.313   5.030  0.00  0.00    +0.020 C 
ATOM     18  C   UNL     1       0.831  -7.531   5.683  0.00  0.00    -0.012 C 
ATOM     19  C   UNL     1       0.140  -7.834   7.015  0.00  0.00    +0.020 C 
ATOM     20  C   UNL     1       0.307  -6.632   7.957  0.00  0.00    +0.110 C 
ATOM     21  C   UNL     1       0.699  -8.740   4.755  0.00  0.00    +0.007 C 
ENDBRANCH  12  15
ENDBRANCH   4  12
BRANCH   1  22
ATOM     22  C   UNL     1       0.117   0.509   7.283  0.00  0.00    +0.209 C 
BRANCH  22  24
ATOM     23  N   UNL     1       0.236   0.185   4.834  0.00  0.00    -0.316 N 
ATOM     24  C   UNL     1       0.777  -0.045   6.046  0.00  0.00    +0.231 C 
ATOM     25  O   UNL     1       1.795  -0.697   6.143  0.00  0.00    -0.274 OA
ATOM     26  H   UNL     1      -0.578   0.707   4.757  0.00  0.00    +0.149 HD
BRANCH  23  27
ATOM     27  C   UNL     1       0.877  -0.353   3.631  0.00  0.00    +0.086 C 
BRANCH  27  28
ATOM     28  C   UNL     1       0.067   0.050   2.397  0.00  0.00    -0.059 C 
BRANCH  28  35
ATOM     29  C   UNL     1      -0.019   1.526   0.010  0.00  0.00    -0.013 C 
ATOM     30  C   UNL     1       0.002  -0.004   0.002  0.00  0.00    -0.071 C 
ATOM     31  C   UNL     1       0.717  -0.497  -1.258  0.00  0.00    -0.016 C 
ATOM     32  C   UNL     1       0.735  -2.028  -1.262  0.00  0.00    -0.003 C 
ATOM     33  C   UNL     1       1.410  -2.524   0.020  0.00  0.00    -0.016 C 
ATOM     34  C   UNL     1       0.669  -1.956   1.232  0.00  0.00    -0.071 C 
ATOM     35  N   UNL     1       0.711  -0.490   1.192  0.00  0.00    +0.384 N 
ATOM     36  C   UNL     1      -0.787  -2.426   1.206  0.00  0.00    -0.013 C 
ATOM     37  H   UNL     1       1.671  -0.182   1.159  0.00  0.00    -0.081 HD
ENDBRANCH  28  35
ENDBRANCH  27  28
ENDBRANCH  23  27
ENDBRANCH  22  24
ENDBRANCH   1  22
TORSDOF 7
