REMARK  Name = ZINC16819884
REMARK  13 active torsions:
REMARK  status: ('A' for Active; 'I' for Inactive)
REMARK    1  A    between atoms: C_1  and  C_2
REMARK    2  A    between atoms: C_2  and  C_4
REMARK    3  A    between atoms: C_2  and  S_14
REMARK    4  A    between atoms: N_9  and  C_10
REMARK    5  A    between atoms: C_10  and  C_11
REMARK    6  A    between atoms: C_10  and  C_12
REMARK    7  A    between atoms: C_10  and  C_13
REMARK    8  A    between atoms: S_14  and  C_15
REMARK    9  A    between atoms: N_25  and  C_26
REMARK   10  A    between atoms: C_26  and  C_27
REMARK   11  A    between atoms: C_27  and  C_28
REMARK   12  A    between atoms: C_28  and  C_29
REMARK   13  A    between atoms: C_28  and  C_30
REMARK                            x       y       z     vdW  Elec       q    Type
REMARK                         _______ _______ _______ _____ _____    ______ ____
ROOT
ATOM      1  C   UNL     1       2.509  -0.029  -1.285  0.00  0.00    +0.173 A 
ATOM      2  N   UNL     1       2.813   0.640  -0.200  0.00  0.00    -0.223 NA
ATOM      3  C   UNL     1       4.067   1.099   0.021  0.00  0.00    +0.080 A 
ATOM      4  C   UNL     1       4.392   1.811   1.179  0.00  0.00    +0.048 A 
ATOM      5  C   UNL     1       5.683   2.258   1.360  0.00  0.00    +0.043 A 
ATOM      6  C   UNL     1       6.663   2.009   0.406  0.00  0.00    +0.021 A 
ATOM      7  C   UNL     1       6.369   1.314  -0.733  0.00  0.00    +0.017 A 
ATOM      8  C   UNL     1       5.071   0.850  -0.943  0.00  0.00    +0.065 A 
ATOM      9  C   UNL     1       4.702   0.099  -2.150  0.00  0.00    +0.262 A 
ATOM     10  O   UNL     1       5.522  -0.147  -3.015  0.00  0.00    -0.267 OA
ATOM     11  N   UNL     1       3.419  -0.316  -2.262  0.00  0.00    -0.287 N 
ATOM     12 CL   UNL     1       6.089   3.144   2.797  0.00  0.00    -0.083 Cl
ENDROOT
BRANCH   1  13
ATOM     13  S   UNL     1       0.851  -0.589  -1.490  0.00  0.00    -0.075 S 
BRANCH  13  15
ATOM     14  C   UNL     1      -0.019   1.526   0.010  0.00  0.00    +0.029 C 
ATOM     15  C   UNL     1       0.002  -0.004   0.002  0.00  0.00    +0.137 C 
BRANCH  15  16
ATOM     16  C   UNL     1      -1.412  -0.526   0.013  0.00  0.00    +0.233 C 
ATOM     17  O   UNL     1      -1.927  -0.901  -1.018  0.00  0.00    -0.274 OA
ATOM     18  N   UNL     1      -2.103  -0.575   1.169  0.00  0.00    -0.239 N 
ATOM     19  C   UNL     1      -3.368  -1.042   1.178  0.00  0.00    +0.306 C 
ATOM     20  O   UNL     1      -3.884  -1.418   0.144  0.00  0.00    -0.252 OA
ATOM     21  N   UNL     1      -4.059  -1.091   2.334  0.00  0.00    -0.294 N 
ATOM     22  H   UNL     1      -1.691  -0.275   1.994  0.00  0.00    +0.159 HD
ATOM     23  H   UNL     1      -3.647  -0.790   3.159  0.00  0.00    +0.151 HD
BRANCH  21  24
ATOM     24  C   UNL     1      -5.433  -1.598   2.344  0.00  0.00    +0.028 C 
ATOM     25  C   UNL     1      -5.447  -3.043   1.843  0.00  0.00    +0.031 C 
ATOM     26  C   UNL     1      -5.985  -1.547   3.771  0.00  0.00    +0.031 C 
ATOM     27  C   UNL     1      -6.303  -0.733   1.430  0.00  0.00    +0.031 C 
ENDBRANCH  21  24
ENDBRANCH  15  16
ENDBRANCH  13  15
ENDBRANCH   1  13
BRANCH  11  28
ATOM     28  C   UNL     1       3.001  -1.074  -3.444  0.00  0.00    +0.127 C 
BRANCH  28  29
ATOM     29  C   UNL     1       2.523  -0.106  -4.528  0.00  0.00    +0.025 C 
BRANCH  29  30
ATOM     30  C   UNL     1       2.086  -0.898  -5.762  0.00  0.00    -0.016 C 
ATOM     31  C   UNL     1       0.866  -1.752  -5.415  0.00  0.00    +0.007 C 
ATOM     32  C   UNL     1       1.726   0.072  -6.889  0.00  0.00    +0.007 C 
ENDBRANCH  29  30
ENDBRANCH  28  29
ENDBRANCH  11  28
TORSDOF 7
