REMARK  Name = ZINC40795169
REMARK  8 active torsions:
REMARK  status: ('A' for Active; 'I' for Inactive)
REMARK    1  A    between atoms: C_1  and  N_2
REMARK    2  A    between atoms: C_5  and  N_8
REMARK    3  A    between atoms: N_8  and  C_9
REMARK    4  A    between atoms: C_11  and  N_27
REMARK    5  A    between atoms: C_12  and  N_16
REMARK    6  A    between atoms: N_16  and  N_17
REMARK    7  A    between atoms: C_18  and  C_20
REMARK    8  A    between atoms: C_20  and  C_21
REMARK                            x       y       z     vdW  Elec       q    Type
REMARK                         _______ _______ _______ _____ _____    ______ ____
ROOT
ATOM      1  N   UNL     1       1.230  -4.033  -0.015  0.00  0.00    -0.314 N 
ATOM      2  C   UNL     1       0.602  -3.599  -1.266  0.00  0.00    +0.131 C 
ATOM      3  C   UNL     1       2.375  -4.819  -0.049  0.00  0.00    +0.147 A 
ATOM      4  C   UNL     1       2.280  -6.206  -0.179  0.00  0.00    +0.107 A 
ATOM      5  C   UNL     1       3.461  -6.948  -0.208  0.00  0.00    +0.161 A 
ATOM      6  N   UNL     1       4.626  -6.310  -0.111  0.00  0.00    -0.217 NA
ATOM      7  C   UNL     1       4.672  -4.999   0.010  0.00  0.00    +0.225 A 
ATOM      8  N   UNL     1       3.580  -4.261   0.036  0.00  0.00    -0.219 NA
ENDROOT
BRANCH   1  13
ATOM      9  C   UNL     1      -2.094  -1.753   3.931  0.00  0.00    -0.096 C 
ATOM     10  N   UNL     1      -1.422  -2.212   2.708  0.00  0.00    +0.378 N 
ATOM     11  C   UNL     1      -0.046  -1.703   2.687  0.00  0.00    -0.077 C 
ATOM     12  C   UNL     1       0.633  -2.110   1.377  0.00  0.00    +0.004 C 
ATOM     13  C   UNL     1       0.650  -3.638   1.271  0.00  0.00    +0.071 C 
ATOM     14  C   UNL     1      -0.785  -4.162   1.368  0.00  0.00    +0.004 C 
ATOM     15  C   UNL     1      -1.411  -3.679   2.678  0.00  0.00    -0.077 C 
ATOM     16  H   UNL     1      -1.920  -1.864   1.901  0.00  0.00    -0.082 HD
ENDBRANCH   1  13
BRANCH   4  17
ATOM     17  N   UNL     1       1.028  -6.837  -0.277  0.00  0.00    -0.353 N 
ATOM     18  H   UNL     1       0.220  -6.304  -0.335  0.00  0.00    +0.143 HD
ATOM     19  H   UNL     1       0.973  -7.805  -0.287  0.00  0.00    +0.143 HD
ENDBRANCH   4  17
BRANCH   5  20
ATOM     20  N   UNL     1       3.422  -8.332  -0.335  0.00  0.00    -0.247 N 
ATOM     21  H   UNL     1       2.570  -8.789  -0.404  0.00  0.00    +0.172 HD
BRANCH  20  22
ATOM     22  N   UNL     1       4.615  -9.066  -0.363  0.00  0.00    -0.235 N 
ATOM     23  C   UNL     1       4.578 -10.408  -0.486  0.00  0.00    +0.233 C 
ATOM     24  O   UNL     1       3.512 -10.979  -0.573  0.00  0.00    -0.274 OA
ATOM     25  H   UNL     1       5.468  -8.609  -0.293  0.00  0.00    +0.173 HD
BRANCH  23  26
ATOM     26  C   UNL     1       5.861 -11.197  -0.516  0.00  0.00    +0.132 C 
BRANCH  26  27
ATOM     27  C   UNL     1       5.545 -12.664  -0.659  0.00  0.00    -0.039 A 
ATOM     28  C   UNL     1       5.355 -13.444   0.466  0.00  0.00    +0.004 A 
ATOM     29  C   UNL     1       5.065 -14.789   0.334  0.00  0.00    +0.000 A 
ATOM     30  C   UNL     1       4.964 -15.354  -0.923  0.00  0.00    +0.000 A 
ATOM     31  C   UNL     1       5.152 -14.574  -2.049  0.00  0.00    +0.000 A 
ATOM     32  C   UNL     1       5.438 -13.228  -1.917  0.00  0.00    +0.004 A 
ENDBRANCH  26  27
ENDBRANCH  23  26
ENDBRANCH  20  22
ENDBRANCH   5  20
TORSDOF 6
