REMARK  Name = ZINC49542245
REMARK  9 active torsions:
REMARK  status: ('A' for Active; 'I' for Inactive)
REMARK    1  A    between atoms: C_1  and  C_2
REMARK    2  A    between atoms: C_2  and  C_4
REMARK    3  A    between atoms: C_2  and  O_22
REMARK    4  A    between atoms: C_9  and  N_10
REMARK    5  A    between atoms: N_10  and  C_11
REMARK    6  A    between atoms: C_11  and  C_13
REMARK    7  A    between atoms: C_11  and  C_14
REMARK    8  A    between atoms: C_16  and  O_21
REMARK    9  A    between atoms: C_19  and  O_20
REMARK                            x       y       z     vdW  Elec       q    Type
REMARK                         _______ _______ _______ _____ _____    ______ ____
ROOT
ATOM      1  N   UNL     1      -1.507  -0.315  -2.390  0.00  0.00    -0.337 N 
ATOM      2  H   UNL     1      -0.597   0.021  -2.398  0.00  0.00    +0.147 HD
ENDROOT
BRANCH   1   8
ATOM      3  C   UNL     1      -1.412  -0.526   0.013  0.00  0.00    +0.001 A 
ATOM      4  C   UNL     1      -2.015  -0.864   1.208  0.00  0.00    +0.008 A 
ATOM      5  C   UNL     1      -3.312  -1.343   1.219  0.00  0.00    +0.000 A 
ATOM      6  C   UNL     1      -4.010  -1.485   0.034  0.00  0.00    +0.002 A 
ATOM      7  C   UNL     1      -3.413  -1.148  -1.165  0.00  0.00    +0.023 A 
ATOM      8  C   UNL     1      -2.112  -0.662  -1.179  0.00  0.00    +0.033 A 
BRANCH   3  10
ATOM      9  C   UNL     1      -0.019   1.526   0.010  0.00  0.00    +0.043 C 
ATOM     10  C   UNL     1       0.002  -0.004   0.002  0.00  0.00    +0.143 C 
BRANCH  10  11
ATOM     11  O   UNL     1       0.693  -0.477   1.160  0.00  0.00    -0.387 OA
ATOM     12  H   UNL     1       1.611  -0.180   1.219  0.00  0.00    +0.210 HD
ENDBRANCH  10  11
ENDBRANCH   3  10
ENDBRANCH   1   8
BRANCH   1  13
ATOM     13  C   UNL     1      -2.247  -0.459  -3.646  0.00  0.00    +0.101 C 
ATOM     14  C   UNL     1      -2.109  -1.895  -4.157  0.00  0.00    +0.033 C 
BRANCH  13  15
ATOM     15  C   UNL     1      -1.687   0.494  -4.670  0.00  0.00    +0.017 A 
ATOM     16  C   UNL     1      -0.380   0.927  -4.569  0.00  0.00    +0.054 A 
ATOM     17  C   UNL     1       0.135   1.804  -5.512  0.00  0.00    +0.117 A 
ATOM     18  C   UNL     1      -0.663   2.247  -6.557  0.00  0.00    +0.049 A 
ATOM     19  C   UNL     1      -1.971   1.813  -6.658  0.00  0.00    +0.049 A 
ATOM     20  C   UNL     1      -2.484   0.932  -5.718  0.00  0.00    +0.122 A 
BRANCH  20  21
ATOM     21  O   UNL     1      -3.769   0.501  -5.820  0.00  0.00    -0.506 OA
ATOM     22  H   UNL     1      -4.410   1.061  -5.360  0.00  0.00    +0.292 HD
ENDBRANCH  20  21
BRANCH  17  23
ATOM     23  O   UNL     1       1.423   2.231  -5.412  0.00  0.00    -0.507 OA
ATOM     24  H   UNL     1       2.060   1.671  -5.875  0.00  0.00    +0.292 HD
ENDBRANCH  17  23
ENDBRANCH  13  15
ENDBRANCH   1  13
TORSDOF 7
