REMARK  Name = ZINC08431523
REMARK  12 active torsions:
REMARK  status: ('A' for Active; 'I' for Inactive)
REMARK    1  A    between atoms: C_1  and  C_2
REMARK    2  A    between atoms: C_6  and  C_38
REMARK    3  A    between atoms: C_8  and  O_11
REMARK    4  A    between atoms: O_11  and  C_12
REMARK    5  A    between atoms: C_12  and  C_13
REMARK    6  A    between atoms: C_13  and  C_15
REMARK    7  A    between atoms: C_13  and  O_37
REMARK    8  A    between atoms: C_15  and  N_79
REMARK    9  A    between atoms: C_18  and  C_21
REMARK   10  A    between atoms: C_21  and  N_22
REMARK   11  A    between atoms: C_38  and  C_39
REMARK   12  A    between atoms: C_38  and  C_40
REMARK                            x       y       z     vdW  Elec       q    Type
REMARK                         _______ _______ _______ _____ _____    ______ ____
ROOT
ATOM      1  C   UNL     1       4.323   1.618  -2.808  0.00  0.00    -0.078 C 
ATOM      2  C   UNL     1       4.958   1.009  -4.061  0.00  0.00    -0.014 C 
ATOM      3  C   UNL     1       5.627   2.118  -4.878  0.00  0.00    +0.003 C 
ATOM      4  C   UNL     1       6.667   2.827  -4.006  0.00  0.00    -0.014 C 
ATOM      5  C   UNL     1       5.983   3.383  -2.756  0.00  0.00    -0.078 C 
ATOM      6  N   UNL     1       5.380   2.264  -2.001  0.00  0.00    +0.381 N 
ATOM      7  H   UNL     1       6.109   1.572  -1.792  0.00  0.00    -0.082 HD
ENDROOT
BRANCH   6   8
ATOM      8  C   UNL     1       4.811   2.761  -0.731  0.00  0.00    -0.045 C 
BRANCH   8   9
ATOM      9  C   UNL     1       4.091   1.611  -0.024  0.00  0.00    +0.124 C 
BRANCH   9  10
ATOM     10  O   UNL     1       5.008   0.538   0.198  0.00  0.00    -0.391 OA
ATOM     11  H   UNL     1       5.769   0.778   0.746  0.00  0.00    +0.210 HD
ENDBRANCH   9  10
BRANCH   9  12
ATOM     12  C   UNL     1       3.544   2.100   1.319  0.00  0.00    +0.189 C 
BRANCH  12  13
ATOM     13  O   UNL     1       2.772   1.062   1.926  0.00  0.00    -0.374 OA
BRANCH  13  19
ATOM     14  C   UNL     1       3.580   1.067   6.774  0.00  0.00    +0.007 C 
ATOM     15  C   UNL     1       2.597   1.433   5.660  0.00  0.00    -0.012 C 
ATOM     16  C   UNL     1       1.285   0.674   5.869  0.00  0.00    +0.004 C 
ATOM     17  C   UNL     1       0.301   1.039   4.756  0.00  0.00    +0.006 C 
ATOM     18  C   UNL     1       0.900   0.658   3.400  0.00  0.00    +0.020 C 
ATOM     19  C   UNL     1       2.212   1.417   3.191  0.00  0.00    +0.122 C 
ATOM     20  C   UNL     1       3.196   1.052   4.305  0.00  0.00    +0.035 C 
BRANCH  18  21
ATOM     21  C   UNL     1      -0.083   1.024   2.287  0.00  0.00    -0.012 C 
ATOM     22  C   UNL     1      -1.337   0.156   2.409  0.00  0.00    +0.007 C 
ATOM     23  C   UNL     1      -0.470   2.499   2.412  0.00  0.00    +0.007 C 
ENDBRANCH  18  21
ENDBRANCH  13  19
ENDBRANCH  12  13
ENDBRANCH   9  12
ENDBRANCH   8   9
ENDBRANCH   6   8
BRANCH   3  24
ATOM     24  C   UNL     1       6.316   1.507  -6.100  0.00  0.00    +0.120 C 
BRANCH  24  25
ATOM     25  N   UNL     1       5.306   0.932  -6.993  0.00  0.00    -0.234 N 
ATOM     26  C   UNL     1       4.951  -0.356  -6.826  0.00  0.00    +0.254 C 
ATOM     27  O   UNL     1       5.468  -1.017  -5.946  0.00  0.00    -0.270 OA
ATOM     28  C   UNL     1       3.938  -0.967  -7.700  0.00  0.00    +0.046 A 
ATOM     29  C   UNL     1       3.539  -2.288  -7.560  0.00  0.00    +0.014 A 
ATOM     30  C   UNL     1       2.580  -2.821  -8.413  0.00  0.00    +0.001 A 
ATOM     31  C   UNL     1       2.008  -2.075  -9.403  0.00  0.00    +0.008 A 
ATOM     32  C   UNL     1       2.385  -0.732  -9.578  0.00  0.00    -0.016 A 
ATOM     33  C   UNL     1       3.357  -0.179  -8.719  0.00  0.00    +0.006 A 
ATOM     34  C   UNL     1       3.756   1.169  -8.869  0.00  0.00    +0.046 A 
ATOM     35  C   UNL     1       3.179   1.934  -9.871  0.00  0.00    +0.014 A 
ATOM     36  C   UNL     1       2.223   1.378 -10.712  0.00  0.00    +0.001 A 
ATOM     37  C   UNL     1       1.825   0.078 -10.582  0.00  0.00    +0.008 A 
ATOM     38  C   UNL     1       4.772   1.710  -7.954  0.00  0.00    +0.254 C 
ATOM     39  O   UNL     1       5.131   2.866  -8.065  0.00  0.00    -0.270 OA
ENDBRANCH  24  25
ENDBRANCH   3  24
TORSDOF 9
