REMARK  Name = ZINC55174603
REMARK  3 active torsions:
REMARK  status: ('A' for Active; 'I' for Inactive)
REMARK    1  A    between atoms: C_1  and  C_2
REMARK    2  A    between atoms: C_3  and  C_8
REMARK    3  A    between atoms: C_13  and  C_16
REMARK                            x       y       z     vdW  Elec       q    Type
REMARK                         _______ _______ _______ _____ _____    ______ ____
ROOT
ATOM      1  C   UNL     1      -0.008  -0.258  -2.565  0.00  0.00    +0.255 C 
ATOM      2  O   UNL     1       0.108  -0.650  -1.418  0.00  0.00    -0.269 OA
ATOM      3  N   UNL     1      -0.103  -1.146  -3.575  0.00  0.00    -0.297 N 
ATOM      4  C   UNL     1      -0.198  -2.586  -3.298  0.00  0.00    +0.109 C 
ATOM      5  C   UNL     1       0.897  -3.312  -4.086  0.00  0.00    +0.034 C 
ATOM      6  C   UNL     1       0.781  -2.948  -5.568  0.00  0.00    +0.105 C 
ATOM      7  C   UNL     1       0.981  -1.440  -5.741  0.00  0.00    +0.034 C 
ATOM      8  C   UNL     1      -0.118  -0.692  -4.972  0.00  0.00    +0.109 C 
ENDROOT
BRANCH   1  11
ATOM      9  C   UNL     1       1.553   1.986  -1.060  0.00  0.00    +0.067 C 
ATOM     10  C   UNL     1       0.621   2.220  -2.221  0.00  0.00    +0.060 A 
ATOM     11  C   UNL     1      -0.045   1.177  -2.848  0.00  0.00    +0.098 A 
ATOM     12  S   UNL     1      -0.958   2.071  -4.095  0.00  0.00    -0.048 S 
ATOM     13  C   UNL     1      -0.424   3.619  -3.711  0.00  0.00    +0.156 A 
ATOM     14  N   UNL     1       0.391   3.421  -2.690  0.00  0.00    -0.230 NA
ATOM     15  N   UNL     1      -0.760   4.812  -4.315  0.00  0.00    -0.337 N 
ATOM     16  H   UNL     1      -1.380   4.820  -5.061  0.00  0.00    +0.144 HD
ATOM     17  H   UNL     1      -0.378   5.643  -3.993  0.00  0.00    +0.144 HD
ENDBRANCH   1  11
BRANCH   6  18
ATOM     18  C   UNL     1       1.835  -3.687  -6.351  0.00  0.00    +0.359 C 
ATOM     19  O   UNL     1       1.565  -4.158  -7.443  0.00  0.00    -0.246 OA
ATOM     20  O   UNL     1       2.958  -3.815  -5.892  0.00  0.00    -0.246 OA
ENDBRANCH   6  18
TORSDOF 2
