REMARK  Name = ZINC35730295
REMARK  14 active torsions:
REMARK  status: ('A' for Active; 'I' for Inactive)
REMARK    1  A    between atoms: C_1  and  C_2
REMARK    2  A    between atoms: C_6  and  C_8
REMARK    3  A    between atoms: C_8  and  S_9
REMARK    4  A    between atoms: S_9  and  C_10
REMARK    5  A    between atoms: C_13  and  C_23
REMARK    6  A    between atoms: N_14  and  C_15
REMARK    7  A    between atoms: C_20  and  C_21
REMARK    8  A    between atoms: C_23  and  N_24
REMARK    9  A    between atoms: C_25  and  C_27
REMARK   10  A    between atoms: C_27  and  C_28
REMARK   11  A    between atoms: C_28  and  C_29
REMARK   12  A    between atoms: C_29  and  C_30
REMARK   13  A    between atoms: C_30  and  C_31
REMARK   14  A    between atoms: C_31  and  N_32
REMARK                            x       y       z     vdW  Elec       q    Type
REMARK                         _______ _______ _______ _____ _____    ______ ____
ROOT
ATOM      1  C   UNL     1       1.622  -4.015   4.517  0.00  0.00    +0.196 A 
ATOM      2  N   UNL     1       0.504  -4.376   5.104  0.00  0.00    -0.122 NA
ATOM      3  N   UNL     1       0.766  -5.008   6.192  0.00  0.00    -0.132 NA
ATOM      4  C   UNL     1       2.054  -5.089   6.365  0.00  0.00    +0.156 A 
ATOM      5  N   UNL     1       2.649  -4.463   5.301  0.00  0.00    -0.273 N 
ENDROOT
BRANCH   5   6
ATOM      6  C   UNL     1       4.023  -4.312   5.067  0.00  0.00    +0.055 A 
ATOM      7  C   UNL     1       4.695  -3.203   5.562  0.00  0.00    +0.046 A 
ATOM      8  C   UNL     1       6.050  -3.057   5.330  0.00  0.00    +0.043 A 
ATOM      9  C   UNL     1       6.735  -4.015   4.603  0.00  0.00    +0.020 A 
ATOM     10  C   UNL     1       6.067  -5.120   4.108  0.00  0.00    +0.007 A 
ATOM     11  C   UNL     1       4.715  -5.274   4.343  0.00  0.00    -0.026 A 
ATOM     12  C   UNL     1       3.990  -6.482   3.809  0.00  0.00    +0.046 C 
ATOM     13 CL   UNL     1       6.892  -1.671   5.949  0.00  0.00    -0.083 Cl
ENDBRANCH   5   6
BRANCH   1  14
ATOM     14  S   UNL     1       1.770  -3.127   3.002  0.00  0.00    -0.081 S 
BRANCH  14  15
ATOM     15  C   UNL     1       0.054  -2.845   2.489  0.00  0.00    +0.112 C 
BRANCH  15  21
ATOM     16  C   UNL     1      -0.018   1.503   0.010  0.00  0.00    +0.044 C 
ATOM     17  C   UNL     1       0.002  -0.004   0.002  0.00  0.00    -0.050 A 
ATOM     18  C   UNL     1       0.006  -0.689  -1.199  0.00  0.00    +0.003 A 
ATOM     19  C   UNL     1       0.025  -2.071  -1.207  0.00  0.00    +0.001 A 
ATOM     20  C   UNL     1       0.040  -2.768  -0.013  0.00  0.00    +0.004 A 
ATOM     21  C   UNL     1       0.037  -2.084   1.188  0.00  0.00    -0.037 A 
ATOM     22  C   UNL     1       0.023  -0.702   1.195  0.00  0.00    +0.007 A 
ENDBRANCH  15  21
ENDBRANCH  14  15
ENDBRANCH   1  14
BRANCH   4  23
ATOM     23  C   UNL     1       2.761  -5.752   7.519  0.00  0.00    +0.181 C 
BRANCH  23  24
ATOM     24  N   UNL     1       3.009  -7.160   7.197  0.00  0.00    -0.308 N 
ATOM     25  C   UNL     1       3.633  -7.955   8.087  0.00  0.00    +0.213 C 
ATOM     26  O   UNL     1       3.989  -7.507   9.156  0.00  0.00    -0.276 OA
ATOM     27  H   UNL     1       2.724  -7.519   6.342  0.00  0.00    +0.149 HD
BRANCH  25  28
ATOM     28  C   UNL     1       3.888  -9.403   7.755  0.00  0.00    +0.096 C 
BRANCH  28  29
ATOM     29  C   UNL     1       4.605 -10.076   8.927  0.00  0.00    +0.009 C 
BRANCH  29  30
ATOM     30  C   UNL     1       4.864 -11.546   8.590  0.00  0.00    -0.001 C 
BRANCH  30  31
ATOM     31  C   UNL     1       5.581 -12.220   9.762  0.00  0.00    -0.020 C 
BRANCH  31  32
ATOM     32  C   UNL     1       5.840 -13.689   9.425  0.00  0.00    -0.086 C 
BRANCH  32  33
ATOM     33  N   UNL     1       6.529 -14.336  10.550  0.00  0.00    +0.378 N 
ATOM     34  H   UNL     1       6.700 -15.305  10.327  0.00  0.00    -0.090 HD
ATOM     35  H   UNL     1       7.407 -13.870  10.719  0.00  0.00    -0.090 HD
ATOM     36  H   UNL     1       5.952 -14.277  11.376  0.00  0.00    -0.090 HD
ENDBRANCH  32  33
ENDBRANCH  31  32
ENDBRANCH  30  31
ENDBRANCH  29  30
ENDBRANCH  28  29
ENDBRANCH  25  28
ENDBRANCH  23  24
ENDBRANCH   4  23
TORSDOF 12
