REMARK  Name = ZINC13064837
REMARK  13 active torsions:
REMARK  status: ('A' for Active; 'I' for Inactive)
REMARK    1  A    between atoms: C_1  and  C_2
REMARK    2  A    between atoms: C_2  and  C_3
REMARK    3  A    between atoms: C_3  and  C_5
REMARK    4  A    between atoms: C_3  and  N_76
REMARK    5  A    between atoms: N_9  and  C_10
REMARK    6  A    between atoms: C_16  and  C_17
REMARK    7  A    between atoms: C_16  and  N_76
REMARK    8  A    between atoms: C_20  and  O_23
REMARK    9  A    between atoms: O_23  and  C_24
REMARK   10  A    between atoms: C_25  and  C_26
REMARK   11  A    between atoms: C_25  and  N_76
REMARK   12  A    between atoms: C_29  and  C_39
REMARK   13  A    between atoms: C_31  and  C_38
REMARK                            x       y       z     vdW  Elec       q    Type
REMARK                         _______ _______ _______ _____ _____    ______ ____
ROOT
ATOM      1  N   UNL     1      -0.082  -0.721   2.226  0.00  0.00    +0.392 N 
ATOM      2  H   UNL     1      -0.972  -0.529   2.700  0.00  0.00    -0.080 HD
ENDROOT
BRANCH   1   3
ATOM      3  C   UNL     1       0.981   0.091   2.854  0.00  0.00    +0.003 C 
BRANCH   3   4
ATOM      4  C   UNL     1       2.336  -0.329   2.344  0.00  0.00    +0.138 A 
ATOM      5  N   UNL     1       2.750  -1.555   2.139  0.00  0.00    -0.115 NA
ATOM      6  N   UNL     1       3.960  -1.499   1.700  0.00  0.00    -0.023 NA
ATOM      7  N   UNL     1       4.332  -0.269   1.627  0.00  0.00    -0.044 NA
ATOM      8  N   UNL     1       3.358   0.484   2.015  0.00  0.00    -0.228 N 
BRANCH   8   9
ATOM      9  C   UNL     1       3.363   1.947   2.085  0.00  0.00    +0.111 C 
ATOM     10  C   UNL     1       3.813   2.520   0.740  0.00  0.00    +0.027 C 
ATOM     11  C   UNL     1       3.818   4.048   0.813  0.00  0.00    +0.002 C 
ATOM     12  C   UNL     1       4.784   4.503   1.909  0.00  0.00    +0.000 C 
ATOM     13  C   UNL     1       4.334   3.930   3.255  0.00  0.00    +0.002 C 
ATOM     14  C   UNL     1       4.329   2.402   3.182  0.00  0.00    +0.027 C 
ENDBRANCH   8   9
ENDBRANCH   3   4
BRANCH   3  16
ATOM     15  C   UNL     1      -0.401   0.440   4.905  0.00  0.00    +0.002 C 
ATOM     16  C   UNL     1       0.923  -0.108   4.370  0.00  0.00    -0.011 C 
ENDBRANCH   3  16
ENDBRANCH   1   3
BRANCH   1  17
ATOM     17  C   UNL     1      -0.213  -0.364   0.797  0.00  0.00    -0.042 C 
BRANCH  17  18
ATOM     18  C   UNL     1      -0.895   0.976   0.694  0.00  0.00    -0.064 A 
ATOM     19  C   UNL     1      -2.275   1.048   0.662  0.00  0.00    +0.005 A 
ATOM     20  C   UNL     1      -2.903   2.276   0.574  0.00  0.00    +0.046 A 
ATOM     21  C   UNL     1      -2.146   3.437   0.505  0.00  0.00    +0.120 A 
ATOM     22  C   UNL     1      -0.761   3.361   0.532  0.00  0.00    +0.046 A 
ATOM     23  C   UNL     1      -0.139   2.132   0.626  0.00  0.00    +0.005 A 
BRANCH  21  24
ATOM     24  O   UNL     1      -2.761   4.645   0.413  0.00  0.00    -0.495 OA
ATOM     25  C   UNL     1      -4.189   4.646   0.390  0.00  0.00    +0.277 C 
ENDBRANCH  21  24
ENDBRANCH  17  18
ENDBRANCH   1  17
BRANCH   1  26
ATOM     26  C   UNL     1       0.233  -2.159   2.360  0.00  0.00    -0.036 C 
BRANCH  26  27
ATOM     27  C   UNL     1      -1.033  -2.951   2.164  0.00  0.00    +0.001 A 
ATOM     28  C   UNL     1      -1.326  -3.466   0.945  0.00  0.00    +0.017 A 
ATOM     29  C   UNL     1      -2.565  -4.231   0.788  0.00  0.00    +0.002 A 
ATOM     30  C   UNL     1      -2.921  -4.787  -0.445  0.00  0.00    -0.041 A 
ATOM     31  C   UNL     1      -4.083  -5.496  -0.559  0.00  0.00    +0.007 A 
ATOM     32  C   UNL     1      -4.914  -5.670   0.539  0.00  0.00    -0.048 A 
ATOM     33  C   UNL     1      -4.584  -5.131   1.764  0.00  0.00    +0.029 A 
ATOM     34  C   UNL     1      -3.405  -4.405   1.903  0.00  0.00    +0.050 A 
ATOM     35  N   UNL     1      -3.050  -3.856   3.117  0.00  0.00    -0.322 N 
ATOM     36  H   UNL     1      -3.630  -3.977   3.885  0.00  0.00    +0.169 HD
ATOM     37  C   UNL     1      -1.908  -3.159   3.253  0.00  0.00    +0.251 A 
ATOM     38  O   UNL     1      -1.623  -2.692   4.341  0.00  0.00    -0.268 OA
ATOM     39  C   UNL     1      -6.191  -6.456   0.391  0.00  0.00    +0.044 C 
ATOM     40  C   UNL     1      -2.026  -4.605  -1.644  0.00  0.00    +0.044 C 
ENDBRANCH  26  27
ENDBRANCH   1  26
TORSDOF 9
