REMARK  Name = ZINC40303933
REMARK  3 active torsions:
REMARK  status: ('A' for Active; 'I' for Inactive)
REMARK    1  A    between atoms: C_1  and  C_2
REMARK    2  A    between atoms: C_9  and  C_11
REMARK    3  A    between atoms: C_12  and  N_16
REMARK                            x       y       z     vdW  Elec       q    Type
REMARK                         _______ _______ _______ _____ _____    ______ ____
ROOT
ATOM      1  C   UNL     1       0.020   1.204  -0.164  0.00  0.00    +0.030 C 
ATOM      2  C   UNL     1      -0.597  -0.017   0.520  0.00  0.00    +0.099 C 
ATOM      3  C   UNL     1      -0.677  -1.181  -0.474  0.00  0.00    +0.182 C 
ATOM      4  O   UNL     1      -1.079  -2.365   0.219  0.00  0.00    -0.376 OA
ATOM      5  C   UNL     1      -0.160  -2.794   1.226  0.00  0.00    +0.179 C 
ATOM      6  C   UNL     1      -0.053  -1.713   2.307  0.00  0.00    +0.136 C 
ATOM      7  N   UNL     1       0.247  -0.429   1.653  0.00  0.00    -0.290 N 
ATOM      8  C   UNL     1       1.265   0.345   2.077  0.00  0.00    +0.255 C 
ATOM      9  O   UNL     1       1.432   1.451   1.595  0.00  0.00    -0.269 OA
ENDROOT
BRANCH   8  10
ATOM     10  C   UNL     1       2.141  -0.128   3.083  0.00  0.00    +0.095 A 
ATOM     11  C   UNL     1       2.629   0.538   4.208  0.00  0.00    +0.044 A 
ATOM     12  C   UNL     1       3.477  -0.199   5.012  0.00  0.00    +0.031 A 
ATOM     13  C   UNL     1       3.767  -1.474   4.665  0.00  0.00    +0.048 A 
ATOM     14  S   UNL     1       2.903  -1.731   3.248  0.00  0.00    -0.090 S 
BRANCH  11  15
ATOM     15  N   UNL     1       2.285   1.855   4.500  0.00  0.00    -0.357 N 
ATOM     16  H   UNL     1       1.687   2.342   3.912  0.00  0.00    +0.142 HD
ATOM     17  H   UNL     1       2.644   2.286   5.292  0.00  0.00    +0.142 HD
ENDBRANCH  11  15
ENDBRANCH   8  10
TORSDOF 2
