REMARK  Name = ZINC02912102
REMARK  7 active torsions:
REMARK  status: ('A' for Active; 'I' for Inactive)
REMARK    1  A    between atoms: C_4  and  C_7
REMARK    2  A    between atoms: C_8  and  C_9
REMARK    3  A    between atoms: C_8  and  N_26
REMARK    4  A    between atoms: N_11  and  N_12
REMARK    5  A    between atoms: C_13  and  C_14
REMARK    6  A    between atoms: C_17  and  C_19
REMARK    7  A    between atoms: C_27  and  C_29
REMARK                            x       y       z     vdW  Elec       q    Type
REMARK                         _______ _______ _______ _____ _____    ______ ____
ROOT
ATOM      1  C   UNL     1      -5.518   7.855   0.167  0.00  0.00    +0.036 C 
ATOM      2  C   UNL     1      -5.914   6.560   0.166  0.00  0.00    +0.098 C 
ENDROOT
BRANCH   1   6
ATOM      3  C   UNL     1      -8.394  10.950   0.544  0.00  0.00    +0.000 A 
ATOM      4  C   UNL     1      -7.096  11.158   0.979  0.00  0.00    +0.001 A 
ATOM      5  C   UNL     1      -6.156  10.157   0.860  0.00  0.00    +0.008 A 
ATOM      6  C   UNL     1      -6.516   8.928   0.298  0.00  0.00    -0.023 A 
ATOM      7  C   UNL     1      -7.827   8.727  -0.145  0.00  0.00    +0.008 A 
ATOM      8  C   UNL     1      -8.758   9.736  -0.014  0.00  0.00    +0.001 A 
ENDBRANCH   1   6
BRANCH   2   9
ATOM      9  C   UNL     1      -4.942   5.495  -0.119  0.00  0.00    +0.277 C 
ATOM     10  O   UNL     1      -5.297   4.331  -0.119  0.00  0.00    -0.267 OA
ATOM     11  N   UNL     1      -3.657   5.808  -0.379  0.00  0.00    -0.202 N 
ATOM     12  H   UNL     1      -3.373   6.736  -0.378  0.00  0.00    +0.178 HD
BRANCH  11  13
ATOM     13  N   UNL     1      -2.730   4.793  -0.650  0.00  0.00    -0.184 NA
ATOM     14  C   UNL     1      -1.488   5.095  -0.901  0.00  0.00    +0.176 C 
BRANCH  14  15
ATOM     15  C   UNL     1      -0.520   4.034  -1.185  0.00  0.00    +0.148 A 
ATOM     16  C   UNL     1       0.817   4.213  -1.465  0.00  0.00    +0.051 A 
ATOM     17  C   UNL     1       1.361   2.938  -1.670  0.00  0.00    +0.050 A 
ATOM     18  C   UNL     1       0.348   2.040  -1.509  0.00  0.00    +0.136 A 
ATOM     19  O   UNL     1      -0.783   2.712  -1.223  0.00  0.00    -0.454 OA
BRANCH  18  20
ATOM     20  C   UNL     1       0.470   0.574  -1.635  0.00  0.00    +0.017 A 
ATOM     21  C   UNL     1       1.703  -0.003  -1.950  0.00  0.00    +0.013 A 
ATOM     22  C   UNL     1       1.811  -1.373  -2.061  0.00  0.00    +0.021 A 
ATOM     23  C   UNL     1       0.699  -2.176  -1.871  0.00  0.00    +0.041 A 
ATOM     24  C   UNL     1      -0.527  -1.610  -1.564  0.00  0.00    +0.021 A 
ATOM     25  C   UNL     1      -0.648  -0.242  -1.446  0.00  0.00    +0.013 A 
ATOM     26 CL   UNL     1       0.843  -3.900  -2.019  0.00  0.00    -0.084 Cl
ENDBRANCH  18  20
ENDBRANCH  14  15
ENDBRANCH  11  13
ENDBRANCH   2   9
BRANCH   2  27
ATOM     27  N   UNL     1      -7.246   6.236   0.436  0.00  0.00    -0.277 N 
ATOM     28  C   UNL     1      -7.953   5.504  -0.447  0.00  0.00    +0.248 C 
ATOM     29  O   UNL     1      -7.414   5.069  -1.446  0.00  0.00    -0.270 OA
ATOM     30  H   UNL     1      -7.662   6.538   1.258  0.00  0.00    +0.155 HD
BRANCH  28  31
ATOM     31  C   UNL     1      -9.385   5.229  -0.201  0.00  0.00    +0.037 A 
ATOM     32  C   UNL     1      -9.977   5.623   1.000  0.00  0.00    +0.013 A 
ATOM     33  C   UNL     1     -11.315   5.368   1.222  0.00  0.00    +0.001 A 
ATOM     34  C   UNL     1     -12.066   4.714   0.261  0.00  0.00    +0.000 A 
ATOM     35  C   UNL     1     -11.484   4.317  -0.930  0.00  0.00    +0.001 A 
ATOM     36  C   UNL     1     -10.148   4.570  -1.166  0.00  0.00    +0.013 A 
ENDBRANCH  28  31
ENDBRANCH   2  27
TORSDOF 7
