REMARK  Name = ZINC21527658
REMARK  16 active torsions:
REMARK  status: ('A' for Active; 'I' for Inactive)
REMARK    1  A    between atoms: C_1  and  C_2
REMARK    2  A    between atoms: C_2  and  O_3
REMARK    3  A    between atoms: O_3  and  C_4
REMARK    4  A    between atoms: C_7  and  C_13
REMARK    5  A    between atoms: C_9  and  O_10
REMARK    6  A    between atoms: O_10  and  C_11
REMARK    7  A    between atoms: C_11  and  C_12
REMARK    8  A    between atoms: C_13  and  C_14
REMARK    9  A    between atoms: C_14  and  N_15
REMARK   10  A    between atoms: C_28  and  C_29
REMARK   11  A    between atoms: C_28  and  C_30
REMARK   12  A    between atoms: N_32  and  C_33
REMARK   13  A    between atoms: C_33  and  C_34
REMARK   14  A    between atoms: C_34  and  C_35
REMARK   15  A    between atoms: C_35  and  C_36
REMARK   16  A    between atoms: C_35  and  C_37
REMARK                            x       y       z     vdW  Elec       q    Type
REMARK                         _______ _______ _______ _____ _____    ______ ____
ROOT
ATOM      1  N   UNL     1      -0.789   1.993  -1.136  0.00  0.00    -0.280 N 
ATOM      2  C   UNL     1      -0.685   3.261  -1.598  0.00  0.00    +0.264 C 
ATOM      3  O   UNL     1      -1.464   3.709  -2.418  0.00  0.00    -0.268 OA
ATOM      4  C   UNL     1       0.421   4.071  -1.054  0.00  0.00    +0.106 A 
ATOM      5  C   UNL     1       0.662   5.393  -1.171  0.00  0.00    +0.041 A 
ATOM      6  C   UNL     1       1.831   5.673  -0.442  0.00  0.00    +0.001 A 
ATOM      7  C   UNL     1       2.526   6.871  -0.220  0.00  0.00    +0.010 A 
ATOM      8  C   UNL     1       3.653   6.801   0.559  0.00  0.00    +0.001 A 
ATOM      9  C   UNL     1       4.096   5.608   1.108  0.00  0.00    +0.002 A 
ATOM     10  C   UNL     1       3.434   4.411   0.906  0.00  0.00    +0.026 A 
ATOM     11  C   UNL     1       2.283   4.447   0.117  0.00  0.00    +0.050 A 
ATOM     12  N   UNL     1       1.418   3.481  -0.274  0.00  0.00    -0.334 N 
ATOM     13  C   UNL     1       1.420   2.039  -0.001  0.00  0.00    +0.157 C 
ATOM     14  C   UNL     1      -0.019   1.526   0.010  0.00  0.00    +0.128 C 
ATOM     15  C   UNL     1       0.002  -0.004   0.002  0.00  0.00    +0.043 C 
ENDROOT
BRANCH  14  16
ATOM     16  C   UNL     1      -0.694   1.996   1.273  0.00  0.00    +0.238 C 
ATOM     17  O   UNL     1      -0.706   1.285   2.255  0.00  0.00    -0.273 OA
ATOM     18  N   UNL     1      -1.285   3.207   1.310  0.00  0.00    -0.313 N 
ATOM     19  H   UNL     1      -1.275   3.852   0.419  0.00  0.00    +0.149 HD
BRANCH  18  20
ATOM     20  C   UNL     1      -1.942   3.664   2.537  0.00  0.00    +0.104 C 
BRANCH  20  21
ATOM     21  C   UNL     1      -2.528   5.060   2.312  0.00  0.00    +0.022 C 
BRANCH  21  22
ATOM     22  C   UNL     1      -3.213   5.537   3.594  0.00  0.00    -0.016 C 
ATOM     23  C   UNL     1      -3.690   6.979   3.410  0.00  0.00    +0.007 C 
ATOM     24  C   UNL     1      -4.414   4.638   3.896  0.00  0.00    +0.007 C 
ENDBRANCH  21  22
ENDBRANCH  20  21
ENDBRANCH  18  20
ENDBRANCH  14  16
BRANCH   1  25
ATOM     25  C   UNL     1      -1.701   1.064  -1.808  0.00  0.00    +0.114 C 
BRANCH  25  26
ATOM     26  C   UNL     1      -3.084   1.149  -1.159  0.00  0.00    +0.054 C 
BRANCH  26  30
ATOM     27  C   UNL     1      -5.748  -1.560  -3.123  0.00  0.00    +0.162 A 
ATOM     28  C   UNL     1      -5.623  -0.256  -3.575  0.00  0.00    +0.050 A 
ATOM     29  C   UNL     1      -4.765   0.618  -2.935  0.00  0.00    +0.007 A 
ATOM     30  C   UNL     1      -4.022   0.193  -1.849  0.00  0.00    -0.042 A 
ATOM     31  C   UNL     1      -4.142  -1.107  -1.393  0.00  0.00    +0.053 A 
ATOM     32  C   UNL     1      -5.004  -1.987  -2.027  0.00  0.00    +0.162 A 
BRANCH  27  33
ATOM     33  O   UNL     1      -6.596  -2.420  -3.748  0.00  0.00    -0.489 OA
BRANCH  33  35
ATOM     34  C   UNL     1      -8.221  -3.017  -5.434  0.00  0.00    +0.048 C 
ATOM     35  C   UNL     1      -7.327  -1.913  -4.866  0.00  0.00    +0.226 C 
ENDBRANCH  33  35
ENDBRANCH  27  33
BRANCH  32  36
ATOM     36  O   UNL     1      -5.123  -3.266  -1.579  0.00  0.00    -0.489 OA
BRANCH  36  37
ATOM     37  C   UNL     1      -4.329  -3.634  -0.450  0.00  0.00    +0.226 C 
ATOM     38  C   UNL     1      -4.595  -5.098  -0.095  0.00  0.00    +0.048 C 
ENDBRANCH  36  37
ENDBRANCH  32  36
ENDBRANCH  26  30
ENDBRANCH  25  26
ENDBRANCH   1  25
TORSDOF 11
