REMARK  Name = ZINC06169018
REMARK  3 active torsions:
REMARK  status: ('A' for Active; 'I' for Inactive)
REMARK    1  A    between atoms: C_1  and  C_2
REMARK    2  A    between atoms: C_2  and  C_3
REMARK    3  A    between atoms: C_8  and  N_9
REMARK                            x       y       z     vdW  Elec       q    Type
REMARK                         _______ _______ _______ _____ _____    ______ ____
ROOT
ATOM      1  C   UNL     1      -0.069   3.849   0.023  0.00  0.00    -0.022 A 
ATOM      2  C   UNL     1      -1.248   3.133   0.031  0.00  0.00    +0.006 A 
ATOM      3  C   UNL     1      -1.221   1.750   0.017  0.00  0.00    +0.000 A 
ATOM      4  C   UNL     1      -0.013   1.076   0.008  0.00  0.00    +0.002 A 
ATOM      5  C   UNL     1       1.173   1.780   0.000  0.00  0.00    +0.028 A 
ATOM      6  C   UNL     1       1.153   3.175   0.008  0.00  0.00    +0.073 A 
ENDROOT
BRANCH   6   7
ATOM      7  N   UNL     1       2.332   3.883   0.001  0.00  0.00    -0.187 N 
ATOM      8  C   UNL     1       2.768   4.664   0.975  0.00  0.00    +0.192 A 
ATOM      9  C   UNL     1       4.002   5.156   0.501  0.00  0.00    +0.392 A 
ATOM     10  O   UNL     1       4.767   5.920   1.068  0.00  0.00    -0.240 OA
ATOM     11  O   UNL     1       4.148   4.598  -0.714  0.00  0.00    -0.293 OA
ATOM     12  N   UNL     1       3.194   3.891  -0.950  0.00  0.00    +0.021 NA
ATOM     13  I   UNL     1       1.837   5.076   2.807  0.00  0.00    -0.014 I 
ENDBRANCH   6   7
BRANCH   1  15
ATOM     14  C   UNL     1       0.001   5.875  -1.404  0.00  0.00    +0.009 C 
ATOM     15  C   UNL     1      -0.100   5.356   0.031  0.00  0.00    +0.034 C 
ENDBRANCH   1  15
TORSDOF 2
