REMARK  Name = ZINC16861156
REMARK  16 active torsions:
REMARK  status: ('A' for Active; 'I' for Inactive)
REMARK    1  A    between atoms: C_1  and  C_2
REMARK    2  A    between atoms: C_5  and  N_9
REMARK    3  A    between atoms: C_6  and  C_8
REMARK    4  A    between atoms: C_10  and  C_12
REMARK    5  A    between atoms: C_12  and  C_14
REMARK    6  A    between atoms: C_12  and  S_15
REMARK    7  A    between atoms: S_15  and  C_16
REMARK    8  A    between atoms: N_26  and  C_27
REMARK    9  A    between atoms: C_27  and  C_28
REMARK   10  A    between atoms: C_28  and  N_70
REMARK   11  A    between atoms: C_29  and  C_30
REMARK   12  A    between atoms: C_29  and  C_31
REMARK   13  A    between atoms: C_29  and  N_70
REMARK   14  A    between atoms: C_32  and  C_33
REMARK   15  A    between atoms: C_32  and  C_34
REMARK   16  A    between atoms: C_32  and  N_70
REMARK                            x       y       z     vdW  Elec       q    Type
REMARK                         _______ _______ _______ _____ _____    ______ ____
ROOT
ATOM      1  C   UNL     1       5.338   1.814  -0.432  0.00  0.00    +0.173 A 
ATOM      2  N   UNL     1       5.691   2.929   0.159  0.00  0.00    -0.223 NA
ATOM      3  C   UNL     1       6.871   3.526  -0.104  0.00  0.00    +0.079 A 
ATOM      4  C   UNL     1       7.247   4.716   0.526  0.00  0.00    +0.028 A 
ATOM      5  C   UNL     1       8.453   5.286   0.228  0.00  0.00    +0.002 A 
ATOM      6  C   UNL     1       9.312   4.701  -0.692  0.00  0.00    +0.001 A 
ATOM      7  C   UNL     1       8.973   3.537  -1.325  0.00  0.00    +0.015 A 
ATOM      8  C   UNL     1       7.748   2.933  -1.041  0.00  0.00    +0.065 A 
ATOM      9  C   UNL     1       7.330   1.684  -1.690  0.00  0.00    +0.262 A 
ATOM     10  O   UNL     1       8.043   1.126  -2.505  0.00  0.00    -0.267 OA
ATOM     11  N   UNL     1       6.126   1.172  -1.344  0.00  0.00    -0.289 N 
ENDROOT
BRANCH   1  12
ATOM     12  S   UNL     1       3.776   1.107  -0.025  0.00  0.00    -0.075 S 
BRANCH  12  13
ATOM     13  C   UNL     1       3.187   2.317   1.184  0.00  0.00    +0.137 C 
ATOM     14  C   UNL     1       4.096   2.293   2.415  0.00  0.00    +0.029 C 
BRANCH  13  16
ATOM     15  N   UNL     1       0.956   2.938   2.054  0.00  0.00    -0.284 N 
ATOM     16  C   UNL     1       1.778   1.974   1.594  0.00  0.00    +0.230 C 
ATOM     17  O   UNL     1       1.382   0.831   1.504  0.00  0.00    -0.274 OA
ATOM     18  H   UNL     1       1.294   3.836   2.197  0.00  0.00    +0.155 HD
BRANCH  15  23
ATOM     19  C   UNL     1      -4.480   1.744   3.150  0.00  0.00    +0.044 C 
ATOM     20  C   UNL     1      -3.036   2.062   2.859  0.00  0.00    -0.050 A 
ATOM     21  C   UNL     1      -2.324   1.280   1.968  0.00  0.00    +0.005 A 
ATOM     22  C   UNL     1      -1.001   1.567   1.699  0.00  0.00    +0.024 A 
ATOM     23  C   UNL     1      -0.385   2.644   2.324  0.00  0.00    +0.036 A 
ATOM     24  C   UNL     1      -1.101   3.424   3.222  0.00  0.00    -0.029 A 
ATOM     25  C   UNL     1      -2.426   3.134   3.482  0.00  0.00    +0.008 A 
ATOM     26  C   UNL     1      -0.435   4.589   3.907  0.00  0.00    +0.045 C 
ENDBRANCH  15  23
ENDBRANCH  13  16
ENDBRANCH  12  13
ENDBRANCH   1  12
BRANCH  11  27
ATOM     27  C   UNL     1       5.662  -0.075  -1.956  0.00  0.00    +0.109 C 
BRANCH  27  28
ATOM     28  C   UNL     1       4.991   0.234  -3.296  0.00  0.00    -0.056 C 
BRANCH  28  29
ATOM     29  N   UNL     1       4.671  -1.042  -3.971  0.00  0.00    +0.384 N 
ATOM     30  H   UNL     1       5.476  -1.673  -3.890  0.00  0.00    -0.081 HD
BRANCH  29  31
ATOM     31  C   UNL     1       3.499  -1.673  -3.328  0.00  0.00    -0.074 C 
ATOM     32  C   UNL     1       3.997  -2.630  -2.243  0.00  0.00    -0.014 C 
ATOM     33  C   UNL     1       2.601  -0.608  -2.695  0.00  0.00    -0.014 C 
ENDBRANCH  29  31
BRANCH  29  34
ATOM     34  C   UNL     1       4.392  -0.800  -5.402  0.00  0.00    -0.074 C 
ATOM     35  C   UNL     1       4.223  -2.147  -6.107  0.00  0.00    -0.014 C 
ATOM     36  C   UNL     1       3.114   0.026  -5.568  0.00  0.00    -0.014 C 
ENDBRANCH  29  34
ENDBRANCH  28  29
ENDBRANCH  27  28
ENDBRANCH  11  27
TORSDOF 9
