REMARK  Name = ZINC22204087
REMARK  12 active torsions:
REMARK  status: ('A' for Active; 'I' for Inactive)
REMARK    1  A    between atoms: C_1  and  C_2
REMARK    2  A    between atoms: C_2  and  C_4
REMARK    3  A    between atoms: C_9  and  N_10
REMARK    4  A    between atoms: C_11  and  C_13
REMARK    5  A    between atoms: C_13  and  S_14
REMARK    6  A    between atoms: S_14  and  C_15
REMARK    7  A    between atoms: N_28  and  C_29
REMARK    8  A    between atoms: C_29  and  C_30
REMARK    9  A    between atoms: C_30  and  C_31
REMARK   10  A    between atoms: C_31  and  N_32
REMARK   11  A    between atoms: N_32  and  C_33
REMARK   12  A    between atoms: N_32  and  C_34
REMARK                            x       y       z     vdW  Elec       q    Type
REMARK                         _______ _______ _______ _____ _____    ______ ____
ROOT
ATOM      1  C   UNL     1      -0.320   2.742   1.781  0.00  0.00    +0.173 A 
ATOM      2  N   UNL     1      -0.910   3.191   2.871  0.00  0.00    -0.216 NA
ATOM      3  C   UNL     1      -1.868   2.489   3.464  0.00  0.00    +0.117 A 
ATOM      4  C   UNL     1      -2.303   1.249   2.967  0.00  0.00    +0.076 A 
ATOM      5  C   UNL     1      -3.366   0.592   3.728  0.00  0.00    -0.023 A 
ATOM      6  C   UNL     1      -3.821   1.234   4.823  0.00  0.00    -0.004 A 
ATOM      7  S   UNL     1      -2.875   2.731   4.905  0.00  0.00    -0.073 S 
ATOM      8  C   UNL     1      -4.894   0.777   5.763  0.00  0.00    +0.043 C 
ATOM      9  C   UNL     1      -5.670  -0.367   5.094  0.00  0.00    +0.005 C 
ATOM     10  C   UNL     1      -4.666  -1.372   4.521  0.00  0.00    +0.005 C 
ATOM     11  C   UNL     1      -3.947  -0.759   3.319  0.00  0.00    +0.037 C 
ATOM     12  C   UNL     1      -1.648   0.789   1.780  0.00  0.00    +0.263 A 
ATOM     13  O   UNL     1      -1.960  -0.277   1.276  0.00  0.00    -0.267 OA
ATOM     14  N   UNL     1      -0.685   1.549   1.228  0.00  0.00    -0.287 N 
ENDROOT
BRANCH   1  15
ATOM     15  S   UNL     1       0.952   3.698   1.025  0.00  0.00    -0.078 S 
BRANCH  15  16
ATOM     16  C   UNL     1       0.997   5.112   2.154  0.00  0.00    +0.173 C 
BRANCH  16  18
ATOM     17  N   UNL     1       2.257   7.228   2.384  0.00  0.00    -0.284 N 
ATOM     18  C   UNL     1       2.045   6.091   1.692  0.00  0.00    +0.228 C 
ATOM     19  O   UNL     1       2.697   5.856   0.697  0.00  0.00    -0.275 OA
ATOM     20  H   UNL     1       1.606   7.485   3.232  0.00  0.00    +0.155 HD
BRANCH  17  26
ATOM     21  C   UNL     1       3.240   9.444   2.344  0.00  0.00    +0.038 A 
ATOM     22  C   UNL     1       4.297  10.285   1.977  0.00  0.00    +0.013 A 
ATOM     23  C   UNL     1       5.386   9.769   1.310  0.00  0.00    +0.001 A 
ATOM     24  C   UNL     1       5.441   8.419   0.999  0.00  0.00    +0.002 A 
ATOM     25  C   UNL     1       4.410   7.575   1.358  0.00  0.00    +0.024 A 
ATOM     26  C   UNL     1       3.301   8.076   2.026  0.00  0.00    +0.044 A 
BRANCH  21  28
ATOM     27  C   UNL     1       1.965  11.470   3.295  0.00  0.00    +0.091 C 
ATOM     28  C   UNL     1       2.077   9.986   3.055  0.00  0.00    +0.162 C 
ATOM     29  O   UNL     1       1.205   9.241   3.450  0.00  0.00    -0.292 OA
ENDBRANCH  21  28
ENDBRANCH  17  26
ENDBRANCH  16  18
ENDBRANCH  15  16
ENDBRANCH   1  15
BRANCH  14  30
ATOM     30  C   UNL     1      -0.010   1.084   0.013  0.00  0.00    +0.125 C 
BRANCH  30  31
ATOM     31  C   UNL     1      -0.766   1.592  -1.216  0.00  0.00    +0.003 C 
BRANCH  31  32
ATOM     32  C   UNL     1      -0.062   1.106  -2.485  0.00  0.00    -0.078 C 
BRANCH  32  33
ATOM     33  N   UNL     1      -0.787   1.594  -3.665  0.00  0.00    +0.376 N 
ATOM     34  C   UNL     1      -0.018   1.352  -4.893  0.00  0.00    -0.097 C 
ATOM     35  C   UNL     1      -2.121   0.985  -3.751  0.00  0.00    -0.097 C 
ATOM     36  H   UNL     1      -0.918   2.680  -3.556  0.00  0.00    -0.083 HD
ENDBRANCH  32  33
ENDBRANCH  31  32
ENDBRANCH  30  31
ENDBRANCH  14  30
TORSDOF 9
