REMARK  Name = ZINC35924737
REMARK  13 active torsions:
REMARK  status: ('A' for Active; 'I' for Inactive)
REMARK    1  A    between atoms: C_1  and  C_2
REMARK    2  A    between atoms: C_2  and  C_3
REMARK    3  A    between atoms: C_3  and  C_4
REMARK    4  A    between atoms: C_4  and  C_5
REMARK    5  A    between atoms: C_5  and  C_6
REMARK    6  A    between atoms: C_6  and  N_7
REMARK    7  A    between atoms: C_8  and  C_10
REMARK    8  A    between atoms: C_10  and  C_11
REMARK    9  A    between atoms: C_18  and  C_22
REMARK   10  A    between atoms: C_19  and  C_21
REMARK   11  A    between atoms: C_24  and  C_35
REMARK   12  A    between atoms: N_25  and  C_27
REMARK   13  A    between atoms: C_32  and  C_33
REMARK                            x       y       z     vdW  Elec       q    Type
REMARK                         _______ _______ _______ _____ _____    ______ ____
ROOT
ATOM      1  C   UNL     1       4.391  -8.751  -6.710  0.00  0.00    +0.044 A 
ATOM      2  C   UNL     1       3.691  -9.506  -7.556  0.00  0.00    +0.071 A 
ATOM      3  S   UNL     1       4.130 -11.153  -7.024  0.00  0.00    -0.057 S 
ATOM      4  C   UNL     1       5.225 -10.686  -5.700  0.00  0.00    +0.180 A 
ATOM      5  N   UNL     1       5.193  -9.318  -5.749  0.00  0.00    -0.258 N 
ATOM      6  C   UNL     1       5.959  -8.655  -4.831  0.00  0.00    +0.268 A 
ATOM      7  O   UNL     1       5.975  -7.435  -4.814  0.00  0.00    -0.266 OA
ATOM      8  C   UNL     1       6.729  -9.383  -3.907  0.00  0.00    +0.088 A 
ATOM      9  C   UNL     1       6.701 -10.774  -3.938  0.00  0.00    +0.055 A 
ATOM     10  N   UNL     1       5.934 -11.376  -4.841  0.00  0.00    -0.227 NA
ATOM     11  C   UNL     1       7.516 -11.581  -2.961  0.00  0.00    +0.066 C 
ENDROOT
BRANCH   8  12
ATOM     12  C   UNL     1       7.564  -8.675  -2.908  0.00  0.00    +0.100 A 
ATOM     13  C   UNL     1       7.678  -7.277  -2.766  0.00  0.00    +0.053 A 
ATOM     14  C   UNL     1       8.531  -7.032  -1.748  0.00  0.00    +0.042 A 
ATOM     15  N   UNL     1       8.948  -8.228  -1.256  0.00  0.00    -0.236 N 
ATOM     16  N   UNL     1       8.325  -9.242  -1.994  0.00  0.00    -0.166 NA
ATOM     17  C   UNL     1       8.947  -5.673  -1.247  0.00  0.00    +0.066 C 
BRANCH  15  18
ATOM     18  C   UNL     1       9.841  -8.414  -0.192  0.00  0.00    +0.071 A 
ATOM     19  C   UNL     1      11.059  -7.749  -0.183  0.00  0.00    +0.066 A 
ATOM     20  C   UNL     1      11.938  -7.936   0.869  0.00  0.00    +0.125 A 
ATOM     21  C   UNL     1      11.602  -8.785   1.911  0.00  0.00    +0.039 A 
ATOM     22  C   UNL     1      10.389  -9.447   1.902  0.00  0.00    +0.008 A 
ATOM     23  C   UNL     1       9.505  -9.260   0.857  0.00  0.00    -0.025 A 
ATOM     24  C   UNL     1       8.180  -9.977   0.853  0.00  0.00    +0.046 C 
ATOM     25  F   UNL     1      13.125  -7.290   0.880  0.00  0.00    -0.205 F 
ENDBRANCH  15  18
ENDBRANCH   8  12
BRANCH   1  26
ATOM     26  C   UNL     1       4.307  -7.249  -6.814  0.00  0.00    +0.150 C 
BRANCH  26  28
ATOM     27  N   UNL     1       3.023  -5.414  -5.764  0.00  0.00    -0.315 N 
ATOM     28  C   UNL     1       3.272  -6.736  -5.847  0.00  0.00    +0.219 C 
ATOM     29  O   UNL     1       2.662  -7.513  -5.143  0.00  0.00    -0.275 OA
ATOM     30  H   UNL     1       3.511  -4.793  -6.327  0.00  0.00    +0.149 HD
BRANCH  27  31
ATOM     31  C   UNL     1       2.017  -4.915  -4.824  0.00  0.00    +0.104 C 
BRANCH  31  32
ATOM     32  C   UNL     1       1.931  -3.392  -4.929  0.00  0.00    +0.019 C 
BRANCH  32  33
ATOM     33  C   UNL     1       0.880  -2.871  -3.947  0.00  0.00    +0.002 C 
BRANCH  33  34
ATOM     34  C   UNL     1       0.795  -1.347  -4.052  0.00  0.00    -0.000 C 
BRANCH  34  36
ATOM     35  C   UNL     1      -0.342   0.698  -3.175  0.00  0.00    +0.004 C 
ATOM     36  C   UNL     1      -0.257  -0.826  -3.070  0.00  0.00    -0.003 C 
ENDBRANCH  34  36
ENDBRANCH  33  34
ENDBRANCH  32  33
ENDBRANCH  31  32
ENDBRANCH  27  31
ENDBRANCH  26  28
ENDBRANCH   1  26
TORSDOF 9
