REMARK  Name = ZINC12368529
REMARK  7 active torsions:
REMARK  status: ('A' for Active; 'I' for Inactive)
REMARK    1  A    between atoms: C_4  and  N_7
REMARK    2  A    between atoms: N_7  and  N_8
REMARK    3  A    between atoms: N_8  and  C_9
REMARK    4  A    between atoms: C_9  and  N_11
REMARK    5  A    between atoms: N_11  and  N_12
REMARK    6  A    between atoms: C_13  and  C_14
REMARK    7  A    between atoms: C_19  and  O_20
REMARK                            x       y       z     vdW  Elec       q    Type
REMARK                         _______ _______ _______ _____ _____    ______ ____
ROOT
ATOM      1  N   UNL     1       0.086  -2.702   1.168  0.00  0.00    -0.217 N 
ATOM      2  H   UNL     1       0.171  -3.639   1.403  0.00  0.00    +0.176 HD
ENDROOT
BRANCH   1   3
ATOM      3  C   UNL     1      -1.103  -2.081   1.296  0.00  0.00    +0.166 C 
ATOM      4  S   UNL     1      -2.431  -2.908   1.991  0.00  0.00    -0.016 S 
BRANCH   3   5
ATOM      5  N   UNL     1      -1.248  -0.808   0.876  0.00  0.00    -0.247 N 
ATOM      6  H   UNL     1      -0.518  -0.363   0.417  0.00  0.00    +0.172 HD
BRANCH   5   7
ATOM      7  N   UNL     1      -2.451  -0.128   1.102  0.00  0.00    -0.265 N 
ATOM      8  H   UNL     1      -3.206  -0.595   1.492  0.00  0.00    +0.170 HD
BRANCH   7  12
ATOM      9  C   UNL     1      -2.787   3.899   0.099  0.00  0.00    +0.000 A 
ATOM     10  C   UNL     1      -3.865   3.235   0.655  0.00  0.00    +0.002 A 
ATOM     11  C   UNL     1      -3.757   1.899   0.989  0.00  0.00    +0.024 A 
ATOM     12  C   UNL     1      -2.564   1.223   0.765  0.00  0.00    +0.044 A 
ATOM     13  C   UNL     1      -1.482   1.895   0.211  0.00  0.00    +0.024 A 
ATOM     14  C   UNL     1      -1.598   3.229  -0.125  0.00  0.00    +0.002 A 
ENDBRANCH   7  12
ENDBRANCH   5   7
ENDBRANCH   3   5
ENDBRANCH   1   3
BRANCH   1  15
ATOM     15  N   UNL     1       1.199  -1.994   0.696  0.00  0.00    -0.188 NA
ATOM     16  C   UNL     1       2.316  -2.616   0.471  0.00  0.00    +0.142 C 
BRANCH  16  17
ATOM     17  C   UNL     1       2.350  -4.089   0.463  0.00  0.00    +0.039 A 
ATOM     18  C   UNL     1       1.198  -4.817   0.158  0.00  0.00    +0.033 A 
ATOM     19  C   UNL     1       1.236  -6.196   0.152  0.00  0.00    +0.043 A 
ATOM     20  C   UNL     1       2.414  -6.863   0.448  0.00  0.00    +0.043 A 
ATOM     21  C   UNL     1       3.562  -6.153   0.751  0.00  0.00    +0.084 A 
ATOM     22  C   UNL     1       3.541  -4.767   0.755  0.00  0.00    +0.144 A 
ATOM     23 CL   UNL     1       5.033  -6.999   1.119  0.00  0.00    -0.080 Cl
ATOM     24 CL   UNL     1      -0.197  -7.100  -0.226  0.00  0.00    -0.083 Cl
BRANCH  22  25
ATOM     25  O   UNL     1       4.669  -4.069   1.047  0.00  0.00    -0.505 OA
ATOM     26  H   UNL     1       4.819  -3.942   1.994  0.00  0.00    +0.292 HD
ENDBRANCH  22  25
ENDBRANCH  16  17
ENDBRANCH   1  15
TORSDOF 7
