REMARK  Name = ZINC20694349
REMARK  6 active torsions:
REMARK  status: ('A' for Active; 'I' for Inactive)
REMARK    1  A    between atoms: C_1  and  N_2
REMARK    2  A    between atoms: C_8  and  C_10
REMARK    3  A    between atoms: C_17  and  C_26
REMARK    4  A    between atoms: C_30  and  O_33
REMARK    5  A    between atoms: C_31  and  O_32
REMARK    6  A    between atoms: O_33  and  C_34
REMARK                            x       y       z     vdW  Elec       q    Type
REMARK                         _______ _______ _______ _____ _____    ______ ____
ROOT
ATOM      1  C   UNL     1      -0.059   3.841   0.025  0.00  0.00    +0.058 A 
ATOM      2  C   UNL     1      -0.873   3.121   0.897  0.00  0.00    +0.015 A 
ATOM      3  C   UNL     1      -0.849   1.744   0.886  0.00  0.00    +0.001 A 
ATOM      4  C   UNL     1      -0.010   1.076   0.009  0.00  0.00    +0.006 A 
ATOM      5  C   UNL     1       0.797   1.771  -0.865  0.00  0.00    -0.019 A 
ATOM      6  C   UNL     1       0.799   3.170  -0.870  0.00  0.00    +0.044 A 
ATOM      7  N   UNL     1       1.599   3.944  -1.694  0.00  0.00    -0.336 N 
ATOM      8  C   UNL     1       2.414   3.232  -2.690  0.00  0.00    +0.109 C 
ATOM      9  C   UNL     1       2.932   1.974  -2.025  0.00  0.00    +0.029 C 
ATOM     10  C   UNL     1       1.668   1.078  -1.839  0.00  0.00    +0.049 C 
ATOM     11  C   UNL     1       2.243  -0.266  -1.585  0.00  0.00    -0.023 C 
ATOM     12  C   UNL     1       3.423  -0.341  -2.190  0.00  0.00    -0.030 C 
ATOM     13  C   UNL     1       3.744   0.990  -2.876  0.00  0.00    +0.033 C 
ATOM     14  H   UNL     1       1.643   5.041  -1.629  0.00  0.00    +0.147 HD
ENDROOT
BRANCH   1  22
ATOM     15  C   UNL     1      -4.440   7.609  -2.260  0.00  0.00    -0.096 C 
ATOM     16  N   UNL     1      -3.509   7.143  -1.224  0.00  0.00    +0.380 N 
ATOM     17  C   UNL     1      -3.374   5.680  -1.258  0.00  0.00    -0.060 C 
ATOM     18  C   UNL     1      -2.543   5.220  -0.056  0.00  0.00    +0.089 C 
ATOM     19  N   UNL     1      -1.273   5.962  -0.054  0.00  0.00    -0.301 N 
ATOM     20  C   UNL     1      -1.324   7.428  -0.151  0.00  0.00    +0.089 C 
ATOM     21  C   UNL     1      -2.203   7.801  -1.355  0.00  0.00    -0.060 C 
ATOM     22  C   UNL     1      -0.094   5.315   0.039  0.00  0.00    +0.248 C 
ATOM     23  O   UNL     1       0.940   5.947   0.135  0.00  0.00    -0.270 OA
ATOM     24  H   UNL     1      -3.926   7.418  -0.244  0.00  0.00    -0.082 HD
ENDBRANCH   1  22
BRANCH   8  25
ATOM     25  C   UNL     1       3.570   4.097  -3.122  0.00  0.00    +0.018 A 
ATOM     26  C   UNL     1       4.042   5.089  -2.283  0.00  0.00    +0.009 A 
ATOM     27  C   UNL     1       5.105   5.881  -2.673  0.00  0.00    +0.004 A 
ATOM     28  C   UNL     1       5.694   5.693  -3.910  0.00  0.00    +0.049 A 
ATOM     29  C   UNL     1       5.221   4.705  -4.759  0.00  0.00    +0.162 A 
ATOM     30  C   UNL     1       4.154   3.903  -4.363  0.00  0.00    +0.163 A 
BRANCH  30  31
ATOM     31  O   UNL     1       3.687   2.932  -5.192  0.00  0.00    -0.503 OA
ATOM     32  H   UNL     1       4.153   2.779  -6.177  0.00  0.00    +0.292 HD
ENDBRANCH  30  31
BRANCH  29  33
ATOM     33  O   UNL     1       5.799   4.519  -5.976  0.00  0.00    -0.491 OA
ATOM     34  C   UNL     1       6.889   5.378  -6.315  0.00  0.00    +0.277 C 
ENDBRANCH  29  33
ENDBRANCH   8  25
TORSDOF 4
