REMARK  Name = ZINC40687492
REMARK  6 active torsions:
REMARK  status: ('A' for Active; 'I' for Inactive)
REMARK    1  A    between atoms: C_1  and  C_2
REMARK    2  A    between atoms: C_2  and  N_3
REMARK    3  A    between atoms: N_3  and  C_4
REMARK    4  A    between atoms: C_15  and  N_27
REMARK    5  A    between atoms: C_16  and  N_20
REMARK    6  A    between atoms: N_20  and  C_21
REMARK                            x       y       z     vdW  Elec       q    Type
REMARK                         _______ _______ _______ _____ _____    ______ ____
ROOT
ATOM      1  N   UNL     1       1.862  -1.302  -1.914  0.00  0.00    -0.283 N 
ATOM      2  C   UNL     1       0.925  -1.480  -2.925  0.00  0.00    +0.151 A 
ATOM      3  C   UNL     1      -0.046  -2.479  -2.824  0.00  0.00    +0.104 A 
ATOM      4  C   UNL     1      -0.963  -2.615  -3.868  0.00  0.00    +0.126 A 
ATOM      5  N   UNL     1      -0.878  -1.793  -4.912  0.00  0.00    -0.333 N 
ATOM      6  C   UNL     1       0.054  -0.863  -4.968  0.00  0.00    +0.200 A 
ATOM      7  N   UNL     1       0.935  -0.698  -4.002  0.00  0.00    -0.220 NA
ATOM      8  H   UNL     1      -1.511  -1.880  -5.642  0.00  0.00    +0.168 HD
ENDROOT
BRANCH   1   9
ATOM      9  C   UNL     1       3.118  -1.898  -2.015  0.00  0.00    +0.043 A 
ATOM     10  C   UNL     1       3.328  -3.166  -1.515  0.00  0.00    +0.024 A 
ATOM     11  C   UNL     1       4.578  -3.770  -1.610  0.00  0.00    +0.002 A 
ATOM     12  C   UNL     1       5.626  -3.130  -2.198  0.00  0.00    +0.008 A 
ATOM     13  C   UNL     1       5.454  -1.837  -2.721  0.00  0.00    -0.016 A 
ATOM     14  C   UNL     1       4.184  -1.213  -2.635  0.00  0.00    +0.003 A 
ATOM     15  C   UNL     1       4.013   0.076  -3.162  0.00  0.00    +0.010 A 
ATOM     16  C   UNL     1       5.064   0.708  -3.753  0.00  0.00    +0.001 A 
ATOM     17  C   UNL     1       6.312   0.093  -3.844  0.00  0.00    +0.001 A 
ATOM     18  C   UNL     1       6.517  -1.151  -3.333  0.00  0.00    +0.008 A 
ENDBRANCH   1   9
BRANCH   3  19
ATOM     19  N   UNL     1      -0.098  -3.324  -1.705  0.00  0.00    -0.353 N 
ATOM     20  H   UNL     1       0.487  -3.162  -0.948  0.00  0.00    +0.143 HD
ATOM     21  H   UNL     1      -0.719  -4.069  -1.688  0.00  0.00    +0.143 HD
ENDBRANCH   3  19
BRANCH   1  23
ATOM     22  C   UNL     1       1.972   0.958  -0.985  0.00  0.00    +0.025 C 
ATOM     23  C   UNL     1       1.530  -0.487  -0.743  0.00  0.00    +0.109 C 
ENDBRANCH   1  23
BRANCH   4  24
ATOM     24  N   UNL     1      -1.950  -3.594  -3.818  0.00  0.00    -0.299 N 
ATOM     25  H   UNL     1      -2.065  -4.125  -3.015  0.00  0.00    +0.154 HD
BRANCH  24  26
ATOM     26  C   UNL     1      -2.772  -3.810  -4.921  0.00  0.00    +0.035 A 
ATOM     27  C   UNL     1      -2.256  -3.777  -6.217  0.00  0.00    +0.043 A 
ATOM     28  C   UNL     1      -3.103  -3.996  -7.282  0.00  0.00    +0.112 A 
ATOM     29  N   UNL     1      -4.387  -4.234  -7.087  0.00  0.00    -0.263 NA
ATOM     30  C   UNL     1      -4.914  -4.274  -5.878  0.00  0.00    +0.112 A 
ATOM     31  C   UNL     1      -4.133  -4.071  -4.760  0.00  0.00    +0.043 A 
ENDBRANCH  24  26
ENDBRANCH   4  24
TORSDOF 5
