REMARK  Name = ZINC53111980
REMARK  6 active torsions:
REMARK  status: ('A' for Active; 'I' for Inactive)
REMARK    1  A    between atoms: C_1  and  C_2
REMARK    2  A    between atoms: C_5  and  C_8
REMARK    3  A    between atoms: C_5  and  N_10
REMARK    4  A    between atoms: C_8  and  O_9
REMARK    5  A    between atoms: C_11  and  C_13
REMARK    6  A    between atoms: C_15  and  N_21
REMARK                            x       y       z     vdW  Elec       q    Type
REMARK                         _______ _______ _______ _____ _____    ______ ____
ROOT
ATOM      1  N   UNL     1      -1.275  -2.237   2.551  0.00  0.00    -0.304 N 
ATOM      2  C   UNL     1      -2.475  -2.743   2.897  0.00  0.00    +0.245 C 
ATOM      3  O   UNL     1      -3.027  -3.549   2.173  0.00  0.00    -0.270 OA
ATOM      4  H   UNL     1      -0.800  -1.653   3.163  0.00  0.00    +0.150 HD
ENDROOT
BRANCH   2   5
ATOM      5  C   UNL     1      -3.121  -2.319   4.157  0.00  0.00    +0.040 A 
ATOM      6  C   UNL     1      -4.361  -2.846   4.520  0.00  0.00    +0.037 A 
ATOM      7  C   UNL     1      -4.962  -2.444   5.702  0.00  0.00    +0.045 A 
ATOM      8  C   UNL     1      -4.328  -1.517   6.524  0.00  0.00    +0.080 A 
ATOM      9  C   UNL     1      -3.098  -0.994   6.163  0.00  0.00    +0.062 A 
ATOM     10  C   UNL     1      -2.490  -1.394   4.990  0.00  0.00    +0.034 A 
ATOM     11 CL   UNL     1      -2.314   0.163   7.194  0.00  0.00    -0.082 Cl
ATOM     12 CL   UNL     1      -5.082  -1.014   8.004  0.00  0.00    -0.080 Cl
BRANCH   7  13
ATOM     13  N   UNL     1      -6.204  -2.969   6.069  0.00  0.00    -0.357 N 
ATOM     14  H   UNL     1      -6.646  -3.615   5.496  0.00  0.00    +0.142 HD
ATOM     15  H   UNL     1      -6.624  -2.688   6.897  0.00  0.00    +0.142 HD
ENDBRANCH   7  13
ENDBRANCH   2   5
BRANCH   1  20
ATOM     16  C   UNL     1      -0.733   1.619   0.162  0.00  0.00    +0.007 C 
ATOM     17  C   UNL     1      -0.513   0.108   0.072  0.00  0.00    -0.014 C 
ATOM     18  C   UNL     1      -1.854  -0.613   0.225  0.00  0.00    +0.005 C 
ATOM     19  C   UNL     1      -1.635  -2.124   0.135  0.00  0.00    +0.028 C 
ATOM     20  C   UNL     1      -0.687  -2.569   1.251  0.00  0.00    +0.058 C 
ATOM     21  C   UNL     1       0.654  -1.849   1.099  0.00  0.00    +0.028 C 
ATOM     22  C   UNL     1       0.434  -0.337   1.188  0.00  0.00    +0.005 C 
BRANCH  20  23
ATOM     23  C   UNL     1      -0.468  -4.080   1.161  0.00  0.00    +0.181 C 
BRANCH  23  24
ATOM     24  O   UNL     1       0.314  -4.515   2.275  0.00  0.00    -0.393 OA
ATOM     25  H   UNL     1       0.493  -5.465   2.283  0.00  0.00    +0.209 HD
ENDBRANCH  23  24
ENDBRANCH  20  23
ENDBRANCH   1  20
TORSDOF 5
