REMARK  Name = ZINC06584512
REMARK  2 active torsions:
REMARK  status: ('A' for Active; 'I' for Inactive)
REMARK    1  A    between atoms: C_3  and  C_8
REMARK    2  A    between atoms: C_11  and  C_19
REMARK                            x       y       z     vdW  Elec       q    Type
REMARK                         _______ _______ _______ _____ _____    ______ ____
ROOT
ATOM      1  C   UNL     1       3.672   2.186  -0.021  0.00  0.00    +0.143 C 
ATOM      2  C   UNL     1       4.474   1.831  -1.279  0.00  0.00    +0.058 C 
ATOM      3  C   UNL     1       5.896   2.393  -1.161  0.00  0.00    +0.106 C 
ATOM      4  N   UNL     1       6.561   1.756  -0.009  0.00  0.00    -0.307 N 
ATOM      5  C   UNL     1       5.802   1.634   1.148  0.00  0.00    +0.215 A 
ATOM      6  N   UNL     1       4.460   1.835   1.160  0.00  0.00    -0.226 N 
ATOM      7  N   UNL     1       4.038   1.637   2.475  0.00  0.00    -0.156 NA
ATOM      8  C   UNL     1       5.105   1.337   3.173  0.00  0.00    +0.247 A 
ATOM      9  N   UNL     1       6.175   1.332   2.362  0.00  0.00    -0.202 NA
ATOM     10  H   UNL     1       7.476   1.439  -0.056  0.00  0.00    +0.149 HD
ENDROOT
BRANCH   1  13
ATOM     11  C   UNL     1      -0.017   1.377   0.010  0.00  0.00    +0.003 A 
ATOM     12  C   UNL     1       1.171   2.086   0.002  0.00  0.00    +0.006 A 
ATOM     13  C   UNL     1       2.378   1.413  -0.013  0.00  0.00    -0.020 A 
ATOM     14  C   UNL     1       2.399   0.030  -0.021  0.00  0.00    +0.044 A 
ATOM     15  C   UNL     1       1.211  -0.679  -0.013  0.00  0.00    +0.124 A 
ATOM     16  C   UNL     1       0.002  -0.004   0.002  0.00  0.00    +0.038 A 
ATOM     17  F   UNL     1       1.230  -2.030  -0.022  0.00  0.00    -0.205 F 
ENDBRANCH   1  13
BRANCH   3  18
ATOM     18  C   UNL     1       6.664   2.093  -2.423  0.00  0.00    -0.027 A 
ATOM     19  C   UNL     1       7.210   0.838  -2.618  0.00  0.00    +0.007 A 
ATOM     20  C   UNL     1       7.915   0.563  -3.774  0.00  0.00    +0.020 A 
ATOM     21  C   UNL     1       8.074   1.543  -4.737  0.00  0.00    +0.041 A 
ATOM     22  C   UNL     1       7.527   2.799  -4.542  0.00  0.00    +0.020 A 
ATOM     23  C   UNL     1       6.818   3.072  -3.387  0.00  0.00    +0.007 A 
ATOM     24 CL   UNL     1       8.960   1.198  -6.190  0.00  0.00    -0.084 Cl
ENDBRANCH   3  18
TORSDOF 2
