REMARK  Name = ZINC39620477
REMARK  10 active torsions:
REMARK  status: ('A' for Active; 'I' for Inactive)
REMARK    1  A    between atoms: C_1  and  C_2
REMARK    2  A    between atoms: C_2  and  C_3
REMARK    3  A    between atoms: C_3  and  N_4
REMARK    4  A    between atoms: C_5  and  N_31
REMARK    5  A    between atoms: C_7  and  C_14
REMARK    6  A    between atoms: N_10  and  C_13
REMARK    7  A    between atoms: C_14  and  C_16
REMARK    8  A    between atoms: C_16  and  S_17
REMARK    9  A    between atoms: S_17  and  C_18
REMARK   10  A    between atoms: C_21  and  C_24
REMARK                            x       y       z     vdW  Elec       q    Type
REMARK                         _______ _______ _______ _____ _____    ______ ____
ROOT
ATOM      1  C   UNL     1      -1.454  -5.048  -2.344  0.00  0.00    +0.174 C 
ATOM      2  O   UNL     1      -1.295  -4.530  -3.434  0.00  0.00    -0.291 OA
ENDROOT
BRANCH   1   5
ATOM      3  N   UNL     1      -1.335  -2.021   0.010  0.00  0.00    -0.295 N 
ATOM      4  C   UNL     1      -1.245  -2.765  -1.257  0.00  0.00    +0.057 C 
ATOM      5  C   UNL     1      -1.514  -4.256  -1.198  0.00  0.00    +0.061 C 
ATOM      6  C   UNL     1      -1.821  -4.799   0.032  0.00  0.00    +0.253 C 
ATOM      7  O   UNL     1      -2.068  -6.120   0.136  0.00  0.00    -0.270 OA
ATOM      8  N   UNL     1      -1.876  -4.010   1.147  0.00  0.00    -0.225 N 
ATOM      9  C   UNL     1      -1.640  -2.693   1.136  0.00  0.00    +0.310 C 
ATOM     10  O   UNL     1      -1.709  -2.078   2.182  0.00  0.00    -0.252 OA
ATOM     11  C   UNL     1      -2.207  -4.643   2.426  0.00  0.00    +0.143 C 
BRANCH   4  12
ATOM     12  N   UNL     1       0.105  -2.571  -1.803  0.00  0.00    +0.393 N 
ATOM     13  H   UNL     1       0.789  -2.827  -1.107  0.00  0.00    -0.087 HD
ATOM     14  H   UNL     1       0.224  -3.149  -2.621  0.00  0.00    -0.087 HD
ATOM     15  H   UNL     1       0.229  -1.602  -2.055  0.00  0.00    -0.087 HD
ENDBRANCH   4  12
BRANCH   3  16
ATOM     16  C   UNL     1      -1.090  -0.577   0.045  0.00  0.00    +0.107 C 
BRANCH  16  18
ATOM     17  C   UNL     1       0.654   1.190   0.331  0.00  0.00    +0.005 C 
ATOM     18  C   UNL     1       0.398  -0.318   0.293  0.00  0.00    +0.016 C 
ENDBRANCH  16  18
ENDBRANCH   3  16
ENDBRANCH   1   5
BRANCH   1  19
ATOM     19  C   UNL     1      -1.587  -6.545  -2.233  0.00  0.00    +0.156 C 
BRANCH  19  20
ATOM     20  S   UNL     1      -1.449  -7.288  -3.882  0.00  0.00    -0.080 S 
BRANCH  20  21
ATOM     21  C   UNL     1      -1.622  -9.016  -3.587  0.00  0.00    +0.167 A 
ATOM     22  N   UNL     1      -1.581  -9.992  -4.536  0.00  0.00    -0.333 N 
ATOM     23  H   UNL     1      -1.452  -9.866  -5.489  0.00  0.00    +0.168 HD
ATOM     24  C   UNL     1      -1.758 -11.198  -3.880  0.00  0.00    +0.067 A 
ATOM     25  C   UNL     1      -1.899 -10.906  -2.561  0.00  0.00    +0.139 A 
ATOM     26  N   UNL     1      -1.807  -9.578  -2.414  0.00  0.00    -0.230 NA
BRANCH  24  27
ATOM     27  C   UNL     1      -1.787 -12.542  -4.495  0.00  0.00    -0.000 A 
ATOM     28  C   UNL     1      -1.620 -12.685  -5.874  0.00  0.00    +0.011 A 
ATOM     29  C   UNL     1      -1.648 -13.942  -6.442  0.00  0.00    +0.016 A 
ATOM     30  C   UNL     1      -1.841 -15.059  -5.647  0.00  0.00    +0.018 A 
ATOM     31  C   UNL     1      -2.007 -14.924  -4.280  0.00  0.00    +0.016 A 
ATOM     32  C   UNL     1      -1.976 -13.673  -3.699  0.00  0.00    +0.011 A 
ATOM     33 BR   UNL     1      -1.879 -16.779  -6.434  0.00  0.00    -0.050 Br
ENDBRANCH  24  27
ENDBRANCH  20  21
ENDBRANCH  19  20
ENDBRANCH   1  19
TORSDOF 8
