REMARK  Name = ZINC16569075
REMARK  9 active torsions:
REMARK  status: ('A' for Active; 'I' for Inactive)
REMARK    1  A    between atoms: C_1  and  C_2
REMARK    2  A    between atoms: C_5  and  S_8
REMARK    3  A    between atoms: S_8  and  N_11
REMARK    4  A    between atoms: N_11  and  C_12
REMARK    5  A    between atoms: C_12  and  C_13
REMARK    6  A    between atoms: C_16  and  S_26
REMARK    7  A    between atoms: N_17  and  C_18
REMARK    8  A    between atoms: S_26  and  C_27
REMARK    9  A    between atoms: C_27  and  C_28
REMARK                            x       y       z     vdW  Elec       q    Type
REMARK                         _______ _______ _______ _____ _____    ______ ____
ROOT
ATOM      1  C   UNL     1       7.628  -2.897  -1.767  0.00  0.00    +0.154 A 
ATOM      2  N   UNL     1       7.384  -2.761  -0.494  0.00  0.00    -0.132 NA
ATOM      3  N   UNL     1       6.275  -2.135  -0.320  0.00  0.00    -0.122 NA
ATOM      4  C   UNL     1       5.740  -1.842  -1.483  0.00  0.00    +0.197 A 
ATOM      5  N   UNL     1       6.589  -2.317  -2.445  0.00  0.00    -0.272 N 
ENDROOT
BRANCH   5   6
ATOM      6  C   UNL     1       6.428  -2.227  -3.836  0.00  0.00    +0.070 A 
ATOM      7  C   UNL     1       6.934  -1.135  -4.525  0.00  0.00    +0.047 A 
ATOM      8  C   UNL     1       6.775  -1.049  -5.896  0.00  0.00    +0.043 A 
ATOM      9  C   UNL     1       6.111  -2.053  -6.580  0.00  0.00    +0.021 A 
ATOM     10  C   UNL     1       5.607  -3.143  -5.896  0.00  0.00    +0.023 A 
ATOM     11  C   UNL     1       5.768  -3.236  -4.526  0.00  0.00    +0.065 A 
ATOM     12 CL   UNL     1       5.139  -4.608  -3.669  0.00  0.00    -0.081 Cl
ATOM     13 CL   UNL     1       7.408   0.317  -6.759  0.00  0.00    -0.083 Cl
ENDBRANCH   5   6
BRANCH   1  14
ATOM     14  C   UNL     1       8.829  -3.569  -2.380  0.00  0.00    +0.182 C 
BRANCH  14  15
ATOM     15  N   UNL     1       9.893  -2.581  -2.578  0.00  0.00    -0.183 NA
ATOM     16  H   UNL     1       9.689  -1.633  -2.532  0.00  0.00    +0.148 HD
BRANCH  15  17
ATOM     17  S   UNL     1      11.442  -3.081  -2.882  0.00  0.00    +0.059 S 
ATOM     18  O   UNL     1      12.222  -1.906  -3.052  0.00  0.00    -0.153 OA
ATOM     19  O   UNL     1      11.750  -4.065  -1.905  0.00  0.00    -0.153 OA
BRANCH  17  24
ATOM     20  C   UNL     1      11.392  -5.903  -8.216  0.00  0.00    +0.044 C 
ATOM     21  C   UNL     1      11.404  -5.198  -6.883  0.00  0.00    -0.050 A 
ATOM     22  C   UNL     1      11.636  -3.837  -6.824  0.00  0.00    +0.005 A 
ATOM     23  C   UNL     1      11.648  -3.190  -5.602  0.00  0.00    +0.029 A 
ATOM     24  C   UNL     1      11.427  -3.905  -4.440  0.00  0.00    +0.105 A 
ATOM     25  C   UNL     1      11.200  -5.267  -4.499  0.00  0.00    +0.029 A 
ATOM     26  C   UNL     1      11.184  -5.913  -5.721  0.00  0.00    +0.005 A 
ENDBRANCH  17  24
ENDBRANCH  15  17
ENDBRANCH  14  15
ENDBRANCH   1  14
BRANCH   4  27
ATOM     27  S   UNL     1       4.220  -0.992  -1.753  0.00  0.00    -0.081 S 
BRANCH  27  28
ATOM     28  C   UNL     1       3.711  -0.707  -0.039  0.00  0.00    +0.112 C 
BRANCH  28  29
ATOM     29  C   UNL     1       2.396   0.029  -0.022  0.00  0.00    -0.037 A 
ATOM     30  C   UNL     1       1.208  -0.679  -0.014  0.00  0.00    +0.004 A 
ATOM     31  C   UNL     1       0.002  -0.004   0.002  0.00  0.00    +0.000 A 
ATOM     32  C   UNL     1      -0.017   1.378   0.010  0.00  0.00    +0.000 A 
ATOM     33  C   UNL     1       1.171   2.086   0.002  0.00  0.00    +0.000 A 
ATOM     34  C   UNL     1       2.377   1.411  -0.014  0.00  0.00    +0.004 A 
ENDBRANCH  28  29
ENDBRANCH  27  28
ENDBRANCH   4  27
TORSDOF 8
