REMARK  Name = ZINC40629457
REMARK  7 active torsions:
REMARK  status: ('A' for Active; 'I' for Inactive)
REMARK    1  A    between atoms: C_1  and  C_2
REMARK    2  A    between atoms: C_2  and  C_4
REMARK    3  A    between atoms: C_2  and  N_10
REMARK    4  A    between atoms: C_12  and  N_31
REMARK    5  A    between atoms: C_13  and  N_17
REMARK    6  A    between atoms: N_17  and  N_18
REMARK    7  A    between atoms: C_19  and  C_21
REMARK                            x       y       z     vdW  Elec       q    Type
REMARK                         _______ _______ _______ _____ _____    ______ ____
ROOT
ATOM      1  N   UNL     1      -1.396  -0.450   0.007  0.00  0.00    -0.321 N 
ATOM      2  C   UNL     1      -2.070  -0.600   1.209  0.00  0.00    +0.155 A 
ATOM      3  C   UNL     1      -3.366  -1.106   1.233  0.00  0.00    +0.206 A 
ATOM      4  C   UNL     1      -4.000  -1.237   2.464  0.00  0.00    +0.171 A 
ATOM      5  N   UNL     1      -3.348  -0.875   3.568  0.00  0.00    -0.217 NA
ATOM      6  C   UNL     1      -2.122  -0.400   3.504  0.00  0.00    +0.225 A 
ATOM      7  N   UNL     1      -1.486  -0.265   2.358  0.00  0.00    -0.218 NA
ATOM      8  H   UNL     1      -1.828  -0.696  -0.826  0.00  0.00    +0.148 HD
ENDROOT
BRANCH   3   9
ATOM      9  N   UNL     1      -4.053  -1.495  -0.020  0.00  0.00    +0.063 N 
ATOM     10  O   UNL     1      -3.952  -2.625  -0.439  0.00  0.00    -0.126 OA
ATOM     11  O   UNL     1      -4.714  -0.683  -0.624  0.00  0.00    -0.126 OA
ENDBRANCH   3   9
BRANCH   1  13
ATOM     12  C   UNL     1      -0.074   1.608  -0.009  0.00  0.00    +0.033 C 
ATOM     13  C   UNL     1      -0.029   0.078  -0.005  0.00  0.00    +0.099 C 
BRANCH  13  14
ATOM     14  C   UNL     1       0.686  -0.406  -1.240  0.00  0.00    -0.028 A 
ATOM     15  C   UNL     1       0.018  -0.458  -2.450  0.00  0.00    +0.005 A 
ATOM     16  C   UNL     1       0.674  -0.903  -3.583  0.00  0.00    +0.000 A 
ATOM     17  C   UNL     1       1.998  -1.295  -3.506  0.00  0.00    +0.000 A 
ATOM     18  C   UNL     1       2.665  -1.242  -2.296  0.00  0.00    +0.000 A 
ATOM     19  C   UNL     1       2.010  -0.794  -1.165  0.00  0.00    +0.005 A 
ENDBRANCH  13  14
ENDBRANCH   1  13
BRANCH   4  20
ATOM     20  N   UNL     1      -5.291  -1.736   2.542  0.00  0.00    -0.246 N 
ATOM     21  H   UNL     1      -5.759  -1.997   1.733  0.00  0.00    +0.172 HD
BRANCH  20  22
ATOM     22  N   UNL     1      -5.920  -1.863   3.787  0.00  0.00    -0.231 N 
ATOM     23  C   UNL     1      -7.175  -2.349   3.862  0.00  0.00    +0.261 C 
ATOM     24  O   UNL     1      -7.762  -2.676   2.849  0.00  0.00    -0.269 OA
ATOM     25  H   UNL     1      -5.451  -1.603   4.596  0.00  0.00    +0.173 HD
BRANCH  23  26
ATOM     26  C   UNL     1      -7.836  -2.483   5.173  0.00  0.00    +0.046 A 
ATOM     27  C   UNL     1      -7.133  -2.231   6.343  0.00  0.00    +0.014 A 
ATOM     28  C   UNL     1      -7.751  -2.356   7.580  0.00  0.00    +0.001 A 
ATOM     29  C   UNL     1      -9.058  -2.728   7.683  0.00  0.00    +0.008 A 
ATOM     30  C   UNL     1      -9.809  -2.993   6.524  0.00  0.00    -0.017 A 
ATOM     31  C   UNL     1      -9.199  -2.865   5.253  0.00  0.00    -0.006 A 
ATOM     32  C   UNL     1      -9.949  -3.125   4.098  0.00  0.00    +0.009 A 
ATOM     33  C   UNL     1     -11.257  -3.492   4.212  0.00  0.00    +0.001 A 
ATOM     34  C   UNL     1     -11.861  -3.612   5.462  0.00  0.00    +0.001 A 
ATOM     35  C   UNL     1     -11.158  -3.380   6.604  0.00  0.00    +0.008 A 
ENDBRANCH  23  26
ENDBRANCH  20  22
ENDBRANCH   4  20
TORSDOF 6
