REMARK  Name = ZINC27549847
REMARK  15 active torsions:
REMARK  status: ('A' for Active; 'I' for Inactive)
REMARK    1  A    between atoms: C_1  and  C_2
REMARK    2  A    between atoms: C_2  and  C_3
REMARK    3  A    between atoms: C_3  and  C_5
REMARK    4  A    between atoms: C_3  and  C_6
REMARK    5  A    between atoms: C_11  and  O_12
REMARK    6  A    between atoms: O_12  and  C_13
REMARK    7  A    between atoms: C_13  and  C_14
REMARK    8  A    between atoms: C_14  and  O_15
REMARK    9  A    between atoms: O_15  and  C_16
REMARK   10  A    between atoms: C_19  and  C_24
REMARK   11  A    between atoms: C_21  and  O_22
REMARK   12  A    between atoms: O_22  and  C_23
REMARK   13  A    between atoms: C_34  and  C_36
REMARK   14  A    between atoms: C_36  and  C_37
REMARK   15  A    between atoms: C_36  and  C_38
REMARK                            x       y       z     vdW  Elec       q    Type
REMARK                         _______ _______ _______ _____ _____    ______ ____
ROOT
ATOM      1  C   UNL     1       6.323   0.725  -0.833  0.00  0.00    +0.162 A 
ATOM      2  C   UNL     1       7.261   1.069  -1.799  0.00  0.00    +0.050 A 
ATOM      3  C   UNL     1       8.305   1.907  -1.482  0.00  0.00    +0.012 A 
ATOM      4  C   UNL     1       8.424   2.417  -0.181  0.00  0.00    -0.021 A 
ATOM      5  C   UNL     1       7.477   2.069   0.792  0.00  0.00    +0.057 A 
ATOM      6  C   UNL     1       6.431   1.232   0.463  0.00  0.00    +0.162 A 
ENDROOT
BRANCH   4   7
ATOM      7  C   UNL     1       9.534   3.309   0.159  0.00  0.00    +0.024 C 
ATOM      8  C   UNL     1      10.779   3.102  -0.393  0.00  0.00    +0.081 C 
ATOM      9  C   UNL     1      11.887   4.084  -0.221  0.00  0.00    +0.152 C 
ATOM     10  N   UNL     1      12.042   4.811   0.853  0.00  0.00    -0.283 NA
ATOM     11  N   UNL     1      12.753   4.150  -1.334  0.00  0.00    -0.152 N 
ATOM     12  C   UNL     1      12.809   3.051  -2.163  0.00  0.00    +0.181 C 
ATOM     13  N   UNL     1      12.077   1.967  -2.103  0.00  0.00    -0.152 NA
ATOM     14  C   UNL     1      11.090   1.887  -1.185  0.00  0.00    +0.273 C 
ATOM     15  O   UNL     1      10.470   0.850  -1.014  0.00  0.00    -0.268 OA
ATOM     16  S   UNL     1      14.086   3.511  -3.305  0.00  0.00    -0.038 S 
ATOM     17  C   UNL     1      14.384   5.156  -2.671  0.00  0.00    +0.102 C 
ATOM     18  N   UNL     1      13.563   5.216  -1.662  0.00  0.00    -0.169 NA
ATOM     19  H   UNL     1      12.781   5.436   0.913  0.00  0.00    +0.188 HD
BRANCH  17  20
ATOM     20  C   UNL     1      15.342   6.204  -3.175  0.00  0.00    +0.040 C 
ATOM     21  C   UNL     1      14.681   7.000  -4.301  0.00  0.00    +0.014 C 
ATOM     22  C   UNL     1      15.712   7.150  -2.031  0.00  0.00    +0.014 C 
ENDBRANCH  17  20
ENDBRANCH   4   7
BRANCH   6  23
ATOM     23  O   UNL     1       5.507   0.897   1.403  0.00  0.00    -0.491 OA
ATOM     24  C   UNL     1       5.678   1.452   2.708  0.00  0.00    +0.277 C 
ENDBRANCH   6  23
BRANCH   1  25
ATOM     25  O   UNL     1       5.295  -0.103  -1.152  0.00  0.00    -0.485 OA
BRANCH  25  26
ATOM     26  C   UNL     1       5.245  -0.586  -2.495  0.00  0.00    +0.270 C 
BRANCH  26  27
ATOM     27  C   UNL     1       4.027  -1.497  -2.664  0.00  0.00    +0.270 C 
BRANCH  27  28
ATOM     28  O   UNL     1       2.833  -0.733  -2.493  0.00  0.00    -0.488 OA
BRANCH  28  34
ATOM     29  C   UNL     1       0.454  -0.716  -2.457  0.00  0.00    -0.003 A 
ATOM     30  C   UNL     1      -0.744  -1.391  -2.585  0.00  0.00    +0.007 A 
ATOM     31  C   UNL     1      -0.749  -2.746  -2.861  0.00  0.00    +0.001 A 
ATOM     32  C   UNL     1       0.445  -3.428  -3.010  0.00  0.00    +0.004 A 
ATOM     33  C   UNL     1       1.645  -2.757  -2.883  0.00  0.00    +0.046 A 
ATOM     34  C   UNL     1       1.653  -1.396  -2.612  0.00  0.00    +0.124 A 
BRANCH  29  35
ATOM     35  C   UNL     1       0.459   0.761  -2.156  0.00  0.00    +0.019 C 
ATOM     36  C   UNL     1      -0.277   1.511  -3.269  0.00  0.00    +0.012 C 
BRANCH  35  38
ATOM     37  C   UNL     1      -0.131   2.493  -0.455  0.00  0.00    +0.004 C 
ATOM     38  C   UNL     1      -0.245   1.012  -0.821  0.00  0.00    +0.004 C 
ENDBRANCH  35  38
ENDBRANCH  29  35
ENDBRANCH  28  34
ENDBRANCH  27  28
ENDBRANCH  26  27
ENDBRANCH  25  26
ENDBRANCH   1  25
TORSDOF 10
