REMARK  Name = ZINC39550981
REMARK  8 active torsions:
REMARK  status: ('A' for Active; 'I' for Inactive)
REMARK    1  A    between atoms: C_1  and  C_2
REMARK    2  A    between atoms: C_2  and  C_4
REMARK    3  A    between atoms: C_4  and  O_5
REMARK    4  A    between atoms: O_5  and  C_6
REMARK    5  A    between atoms: C_9  and  C_13
REMARK    6  A    between atoms: C_10  and  O_12
REMARK    7  A    between atoms: C_14  and  C_23
REMARK    8  A    between atoms: C_15  and  C_19
REMARK                            x       y       z     vdW  Elec       q    Type
REMARK                         _______ _______ _______ _____ _____    ______ ____
ROOT
ATOM      1  C   UNL     1       0.117  -5.456  -5.610  0.00  0.00    +0.104 A 
ATOM      2  C   UNL     1      -0.859  -5.464  -6.639  0.00  0.00    +0.039 A 
ATOM      3  C   UNL     1      -0.613  -6.548  -7.428  0.00  0.00    +0.147 A 
ATOM      4  N   UNL     1       0.460  -7.191  -6.924  0.00  0.00    -0.272 N 
ATOM      5  H   UNL     1       0.860  -7.997  -7.286  0.00  0.00    +0.189 HD
ATOM      6  N   UNL     1       0.905  -6.492  -5.795  0.00  0.00    -0.173 NA
ENDROOT
BRANCH   2   7
ATOM      7  C   UNL     1      -1.948  -4.474  -6.823  0.00  0.00    -0.014 A 
ATOM      8  C   UNL     1      -2.984  -4.393  -5.893  0.00  0.00    +0.010 A 
ATOM      9  C   UNL     1      -3.995  -3.470  -6.069  0.00  0.00    +0.016 A 
ATOM     10  C   UNL     1      -3.982  -2.626  -7.166  0.00  0.00    +0.018 A 
ATOM     11  C   UNL     1      -2.956  -2.704  -8.093  0.00  0.00    +0.016 A 
ATOM     12  C   UNL     1      -1.937  -3.618  -7.923  0.00  0.00    +0.010 A 
ATOM     13 BR   UNL     1      -5.371  -1.365  -7.401  0.00  0.00    -0.050 Br
ENDBRANCH   2   7
BRANCH   1  17
ATOM     14  C   UNL     1       0.445  -2.579  -2.490  0.00  0.00    +0.124 A 
ATOM     15  C   UNL     1       0.267  -2.164  -3.804  0.00  0.00    +0.046 A 
ATOM     16  C   UNL     1       0.160  -3.094  -4.817  0.00  0.00    +0.017 A 
ATOM     17  C   UNL     1       0.232  -4.454  -4.523  0.00  0.00    +0.044 A 
ATOM     18  C   UNL     1       0.411  -4.872  -3.201  0.00  0.00    +0.130 A 
ATOM     19  C   UNL     1       0.522  -3.931  -2.191  0.00  0.00    +0.091 A 
BRANCH  18  20
ATOM     20  O   UNL     1       0.481  -6.197  -2.908  0.00  0.00    -0.506 OA
ATOM     21  H   UNL     1       1.377  -6.559  -2.936  0.00  0.00    +0.292 HD
ENDBRANCH  18  20
BRANCH  14  22
ATOM     22  O   UNL     1       0.549  -1.658  -1.497  0.00  0.00    -0.488 OA
BRANCH  22  23
ATOM     23  C   UNL     1       0.460  -0.283  -1.875  0.00  0.00    +0.259 C 
BRANCH  23  25
ATOM     24  C   UNL     1       0.537   2.085  -0.779  0.00  0.00    +0.042 C 
ATOM     25  C   UNL     1       0.596   0.584  -0.650  0.00  0.00    -0.043 C 
ATOM     26  C   UNL     1       0.766   0.035   0.526  0.00  0.00    +0.011 C 
ENDBRANCH  23  25
ENDBRANCH  22  23
ENDBRANCH  14  22
ENDBRANCH   1  17
BRANCH   3  27
ATOM     27  C   UNL     1      -1.401  -6.956  -8.646  0.00  0.00    +0.434 C 
ATOM     28  F   UNL     1      -0.848  -8.120  -9.190  0.00  0.00    -0.164 F 
ATOM     29  F   UNL     1      -2.730  -7.197  -8.282  0.00  0.00    -0.164 F 
ATOM     30  F   UNL     1      -1.356  -5.930  -9.595  0.00  0.00    -0.164 F 
ENDBRANCH   3  27
TORSDOF 7
