REMARK  Name = ZINC36605296
REMARK  13 active torsions:
REMARK  status: ('A' for Active; 'I' for Inactive)
REMARK    1  A    between atoms: C_1  and  C_2
REMARK    2  A    between atoms: C_2  and  C_3
REMARK    3  A    between atoms: C_3  and  C_4
REMARK    4  A    between atoms: C_4  and  N_5
REMARK    5  A    between atoms: C_6  and  C_8
REMARK    6  A    between atoms: C_8  and  C_10
REMARK    7  A    between atoms: C_8  and  N_20
REMARK    8  A    between atoms: C_12  and  N_17
REMARK    9  A    between atoms: N_20  and  C_21
REMARK   10  A    between atoms: C_27  and  C_29
REMARK   11  A    between atoms: C_29  and  C_31
REMARK   12  A    between atoms: C_29  and  O_37
REMARK   13  A    between atoms: O_37  and  C_38
REMARK                            x       y       z     vdW  Elec       q    Type
REMARK                         _______ _______ _______ _____ _____    ______ ____
ROOT
ATOM      1  C   UNL     1      -3.519  -4.577   0.553  0.00  0.00    +0.199 C 
ENDROOT
BRANCH   1   2
ATOM      2  C   UNL     1      -3.367  -4.004  -0.832  0.00  0.00    +0.003 A 
ATOM      3  C   UNL     1      -2.118  -3.939  -1.421  0.00  0.00    +0.040 A 
ATOM      4  C   UNL     1      -1.979  -3.413  -2.691  0.00  0.00    +0.127 A 
ATOM      5  C   UNL     1      -3.089  -2.951  -3.374  0.00  0.00    +0.034 A 
ATOM      6  C   UNL     1      -4.338  -3.015  -2.787  0.00  0.00    +0.022 A 
ATOM      7  C   UNL     1      -4.479  -3.547  -1.517  0.00  0.00    +0.047 A 
ATOM      8 CL   UNL     1      -6.049  -3.635  -0.782  0.00  0.00    -0.083 Cl
BRANCH   4   9
ATOM      9  N   UNL     1      -0.641  -3.343  -3.321  0.00  0.00    +0.056 N 
ATOM     10  O   UNL     1       0.329  -3.747  -2.724  0.00  0.00    -0.126 OA
ATOM     11  O   UNL     1      -0.520  -2.883  -4.432  0.00  0.00    -0.126 OA
ENDBRANCH   4   9
ENDBRANCH   1   2
BRANCH   1  13
ATOM     12  N   UNL     1      -1.651  -3.441   1.711  0.00  0.00    -0.313 N 
ATOM     13  C   UNL     1      -2.178  -4.589   1.241  0.00  0.00    +0.238 C 
ATOM     14  O   UNL     1      -1.573  -5.632   1.372  0.00  0.00    -0.273 OA
ATOM     15  H   UNL     1      -2.100  -2.597   1.544  0.00  0.00    +0.149 HD
BRANCH  12  16
ATOM     16  C   UNL     1      -0.400  -3.467   2.473  0.00  0.00    +0.104 C 
BRANCH  16  17
ATOM     17  C   UNL     1      -0.025  -2.042   2.885  0.00  0.00    +0.018 C 
BRANCH  17  19
ATOM     18  C   UNL     1       1.657  -0.644   4.094  0.00  0.00    +0.004 C 
ATOM     19  C   UNL     1       1.281  -2.069   3.682  0.00  0.00    -0.002 C 
ENDBRANCH  17  19
ENDBRANCH  16  17
ENDBRANCH  12  16
ENDBRANCH   1  13
BRANCH   1  20
ATOM     20  N   UNL     1      -4.033  -5.946   0.462  0.00  0.00    -0.253 N 
ATOM     21  C   UNL     1      -5.150  -6.292   1.131  0.00  0.00    +0.254 C 
ATOM     22  O   UNL     1      -5.780  -5.450   1.736  0.00  0.00    -0.272 OA
BRANCH  20  23
ATOM     23  C   UNL     1      -3.364  -6.894  -0.321  0.00  0.00    +0.038 A 
ATOM     24  C   UNL     1      -3.340  -6.763  -1.703  0.00  0.00    +0.023 A 
ATOM     25  C   UNL     1      -2.679  -7.699  -2.473  0.00  0.00    +0.002 A 
ATOM     26  C   UNL     1      -2.041  -8.767  -1.868  0.00  0.00    +0.000 A 
ATOM     27  C   UNL     1      -2.063  -8.900  -0.492  0.00  0.00    +0.002 A 
ATOM     28  C   UNL     1      -2.718  -7.964   0.283  0.00  0.00    +0.023 A 
ENDBRANCH  20  23
BRANCH  21  29
ATOM     29  C   UNL     1      -5.616  -7.725   1.129  0.00  0.00    +0.234 C 
BRANCH  29  30
ATOM     30  C   UNL     1      -6.221  -8.054  -0.212  0.00  0.00    -0.010 A 
ATOM     31  C   UNL     1      -7.515  -7.663  -0.501  0.00  0.00    +0.006 A 
ATOM     32  C   UNL     1      -8.069  -7.965  -1.731  0.00  0.00    +0.000 A 
ATOM     33  C   UNL     1      -7.330  -8.657  -2.672  0.00  0.00    +0.000 A 
ATOM     34  C   UNL     1      -6.036  -9.048  -2.382  0.00  0.00    +0.000 A 
ATOM     35  C   UNL     1      -5.480  -8.742  -1.154  0.00  0.00    +0.006 A 
ENDBRANCH  29  30
BRANCH  29  36
ATOM     36  O   UNL     1      -6.597  -7.909   2.151  0.00  0.00    -0.366 OA
ATOM     37  C   UNL     1      -6.053  -8.292   3.416  0.00  0.00    +0.195 C 
ENDBRANCH  29  36
ENDBRANCH  21  29
ENDBRANCH   1  20
TORSDOF 11
