REMARK  Name = ZINC19764910
REMARK  5 active torsions:
REMARK  status: ('A' for Active; 'I' for Inactive)
REMARK    1  A    between atoms: C_1  and  C_2
REMARK    2  A    between atoms: C_12  and  C_14
REMARK    3  A    between atoms: N_19  and  C_20
REMARK    4  A    between atoms: C_20  and  C_21
REMARK    5  A    between atoms: N_23  and  N_24
REMARK                            x       y       z     vdW  Elec       q    Type
REMARK                         _______ _______ _______ _____ _____    ______ ____
ROOT
ATOM      1  C   UNL     1       1.280   4.904   1.926  0.00  0.00    +0.086 C 
ATOM      2  C   UNL     1       2.258   4.930   0.779  0.00  0.00    +0.111 A 
ATOM      3  N   UNL     1       3.401   5.545   0.925  0.00  0.00    -0.227 NA
ATOM      4  C   UNL     1       4.284   5.591  -0.069  0.00  0.00    +0.116 A 
ATOM      5  C   UNL     1       4.040   4.982  -1.310  0.00  0.00    +0.076 A 
ATOM      6  C   UNL     1       5.101   5.114  -2.307  0.00  0.00    -0.009 A 
ATOM      7  C   UNL     1       6.203   5.803  -1.942  0.00  0.00    -0.003 A 
ATOM      8  S   UNL     1       5.894   6.309  -0.271  0.00  0.00    -0.073 S 
ATOM      9  C   UNL     1       7.419   6.078  -2.773  0.00  0.00    +0.043 C 
ATOM     10  C   UNL     1       7.082   5.775  -4.240  0.00  0.00    +0.006 C 
ATOM     11  C   UNL     1       6.388   4.411  -4.313  0.00  0.00    +0.020 C 
ATOM     12  C   UNL     1       4.989   4.507  -3.703  0.00  0.00    +0.134 C 
ATOM     13  C   UNL     1       2.780   4.311  -1.435  0.00  0.00    +0.263 A 
ATOM     14  O   UNL     1       2.476   3.751  -2.474  0.00  0.00    -0.267 OA
ATOM     15  N   UNL     1       1.938   4.308  -0.385  0.00  0.00    -0.287 N 
ENDROOT
BRANCH  12  16
ATOM     16  C   UNL     1       4.384   3.130  -3.608  0.00  0.00    +0.363 C 
ATOM     17  O   UNL     1       4.661   2.411  -2.677  0.00  0.00    -0.246 OA
ATOM     18  O   UNL     1       3.538   2.701  -4.558  0.00  0.00    -0.246 OA
ENDBRANCH  12  16
BRANCH  15  19
ATOM     19  C   UNL     1       0.647   3.625  -0.502  0.00  0.00    +0.223 C 
BRANCH  19  20
ATOM     20  C   UNL     1       0.797   2.189  -0.068  0.00  0.00    +0.246 C 
ATOM     21  O   UNL     1       1.876   1.778   0.302  0.00  0.00    -0.273 OA
ATOM     22  N   UNL     1      -0.268   1.363  -0.091  0.00  0.00    -0.252 N 
ATOM     23  H   UNL     1      -1.246   1.737  -0.427  0.00  0.00    +0.169 HD
BRANCH  22  24
ATOM     24  N   UNL     1      -0.132   0.062   0.302  0.00  0.00    -0.254 NA
ATOM     25  H   UNL     1      -1.101  -0.450   0.214  0.00  0.00    +0.140 HD
ATOM     26  H   UNL     1       0.608  -0.439  -0.340  0.00  0.00    +0.140 HD
ENDBRANCH  22  24
ENDBRANCH  19  20
ENDBRANCH  15  19
TORSDOF 4
