REMARK  Name = ZINC44452586
REMARK  3 active torsions:
REMARK  status: ('A' for Active; 'I' for Inactive)
REMARK    1  A    between atoms: C_3  and  C_6
REMARK    2  A    between atoms: N_8  and  C_9
REMARK    3  A    between atoms: C_10  and  C_17
REMARK                            x       y       z     vdW  Elec       q    Type
REMARK                         _______ _______ _______ _____ _____    ______ ____
ROOT
ATOM      1  C   UNL     1       6.030   1.136  -0.051  0.00  0.00    +0.085 A 
ATOM      2  C   UNL     1       7.156   0.332  -0.071  0.00  0.00    +0.069 A 
ATOM      3  C   UNL     1       8.456   1.002  -0.079  0.00  0.00    -0.023 A 
ATOM      4  C   UNL     1       8.382   2.344  -0.064  0.00  0.00    -0.004 A 
ATOM      5  S   UNL     1       6.643   2.697  -0.050  0.00  0.00    -0.077 S 
ATOM      6  C   UNL     1       9.745   2.982  -0.069  0.00  0.00    +0.043 C 
ATOM      7  C   UNL     1      10.708   1.846   0.343  0.00  0.00    +0.010 C 
ATOM      8  C   UNL     1       9.928   0.594  -0.104  0.00  0.00    +0.037 C 
ENDROOT
BRANCH   2   9
ATOM      9  C   UNL     1       7.050  -1.129  -0.084  0.00  0.00    +0.254 C 
ATOM     10  O   UNL     1       6.995  -1.726  -1.143  0.00  0.00    -0.270 OA
ATOM     11  N   UNL     1       7.014  -1.812   1.077  0.00  0.00    -0.236 N 
ATOM     12  C   UNL     1       6.917  -3.156   1.065  0.00  0.00    +0.304 C 
ATOM     13  O   UNL     1       6.862  -3.752   0.008  0.00  0.00    -0.253 OA
ATOM     14  N   UNL     1       6.881  -3.839   2.227  0.00  0.00    -0.313 N 
ATOM     15  H   UNL     1       7.059  -1.336   1.921  0.00  0.00    +0.159 HD
ATOM     16  H   UNL     1       6.926  -3.364   3.071  0.00  0.00    +0.146 HD
ATOM     17  H   UNL     1       6.811  -4.807   2.218  0.00  0.00    +0.146 HD
ENDBRANCH   2   9
BRANCH   1  20
ATOM     18  C   UNL     1       3.724   1.669  -0.025  0.00  0.00    +0.255 C 
ATOM     19  O   UNL     1       4.008   2.853  -0.022  0.00  0.00    -0.269 OA
ATOM     20  N   UNL     1       4.702   0.742  -0.039  0.00  0.00    -0.275 N 
ATOM     21  H   UNL     1       4.476  -0.201  -0.042  0.00  0.00    +0.156 HD
BRANCH  18  24
ATOM     22  C   UNL     1      -0.016   1.352   0.009  0.00  0.00    +0.008 A 
ATOM     23  C   UNL     1       1.175   2.036   0.002  0.00  0.00    +0.021 A 
ATOM     24  C   UNL     1       2.320   1.253  -0.013  0.00  0.00    +0.074 A 
ATOM     25  S   UNL     1       1.636  -0.394  -0.016  0.00  0.00    -0.092 S 
ATOM     26  C   UNL     1       0.002  -0.004   0.002  0.00  0.00    +0.046 A 
ENDBRANCH  18  24
ENDBRANCH   1  20
TORSDOF 3
