REMARK  Name = ZINC25666830
REMARK  6 active torsions:
REMARK  status: ('A' for Active; 'I' for Inactive)
REMARK    1  A    between atoms: N_7  and  C_8
REMARK    2  A    between atoms: C_8  and  C_10
REMARK    3  A    between atoms: C_8  and  O_14
REMARK    4  A    between atoms: N_15  and  C_16
REMARK    5  A    between atoms: C_16  and  C_18
REMARK    6  A    between atoms: C_16  and  O_22
REMARK                            x       y       z     vdW  Elec       q    Type
REMARK                         _______ _______ _______ _____ _____    ______ ____
ROOT
ATOM      1  C   UNL     1      -2.580   4.737  -0.086  0.00  0.00    +0.218 A 
ATOM      2  N   UNL     1      -3.202   5.165   1.008  0.00  0.00    -0.181 NA
ATOM      3  C   UNL     1      -3.002   4.551   2.170  0.00  0.00    +0.223 A 
ATOM      4  N   UNL     1      -2.180   3.509   2.238  0.00  0.00    -0.181 NA
ATOM      5  C   UNL     1      -1.558   3.080   1.145  0.00  0.00    +0.223 A 
ATOM      6  N   UNL     1      -1.754   3.697  -0.016  0.00  0.00    -0.181 NA
ATOM      7  N   UNL     1      -0.704   1.998   1.216  0.00  0.00    -0.285 N 
ATOM      8  N   UNL     1      -3.649   4.996   3.305  0.00  0.00    -0.285 N 
ATOM      9  N   UNL     1      -2.787   5.374  -1.292  0.00  0.00    -0.327 N 
ATOM     10  H   UNL     1      -0.539   1.490   2.177  0.00  0.00    +0.151 HD
ATOM     11  H   UNL     1      -3.483   4.488   4.267  0.00  0.00    +0.151 HD
ATOM     12  H   UNL     1      -3.471   6.234  -1.350  0.00  0.00    +0.145 HD
ATOM     13  H   UNL     1      -2.269   5.021  -2.197  0.00  0.00    +0.145 HD
ENDROOT
BRANCH   7  14
ATOM     14  C   UNL     1      -0.019   1.526   0.010  0.00  0.00    +0.254 C 
BRANCH  14  15
ATOM     15  C   UNL     1       0.002  -0.004   0.002  0.00  0.00    +0.232 C 
ATOM     16 CL   UNL     1       0.874  -0.601   1.463  0.00  0.00    -0.079 Cl
ATOM     17 CL   UNL     1      -1.689  -0.628   0.015  0.00  0.00    -0.079 Cl
ATOM     18 CL   UNL     1       0.846  -0.586  -1.481  0.00  0.00    -0.079 Cl
ENDBRANCH  14  15
BRANCH  14  19
ATOM     19  O   UNL     1       1.322   2.020   0.000  0.00  0.00    -0.370 OA
ATOM     20  H   UNL     1       1.995   1.768  -0.833  0.00  0.00    +0.212 HD
ENDBRANCH  14  19
ENDBRANCH   7  14
BRANCH   8  21
ATOM     21  C   UNL     1      -4.555   6.145   3.230  0.00  0.00    +0.254 C 
BRANCH  21  22
ATOM     22  C   UNL     1      -4.365   7.026   4.466  0.00  0.00    +0.232 C 
ATOM     23 CL   UNL     1      -4.731   6.069   5.949  0.00  0.00    -0.079 Cl
ATOM     24 CL   UNL     1      -2.660   7.609   4.532  0.00  0.00    -0.079 Cl
ATOM     25 CL   UNL     1      -5.480   8.440   4.373  0.00  0.00    -0.079 Cl
ENDBRANCH  21  22
BRANCH  21  26
ATOM     26  O   UNL     1      -5.906   5.683   3.177  0.00  0.00    -0.370 OA
ATOM     27  H   UNL     1      -6.733   6.406   3.118  0.00  0.00    +0.212 HD
ENDBRANCH  21  26
ENDBRANCH   8  21
TORSDOF 6
