REMARK  Name = ZINC59460662
REMARK  8 active torsions:
REMARK  status: ('A' for Active; 'I' for Inactive)
REMARK    1  A    between atoms: C_1  and  C_2
REMARK    2  A    between atoms: C_4  and  C_26
REMARK    3  A    between atoms: C_5  and  C_9
REMARK    4  A    between atoms: C_7  and  C_8
REMARK    5  A    between atoms: C_9  and  C_15
REMARK    6  A    between atoms: N_10  and  N_11
REMARK    7  A    between atoms: C_15  and  S_16
REMARK    8  A    between atoms: S_16  and  C_17
REMARK                            x       y       z     vdW  Elec       q    Type
REMARK                         _______ _______ _______ _____ _____    ______ ____
ROOT
ATOM      1  C   UNL     1      -0.022  -4.152  -0.030  0.00  0.00    +0.079 C 
ATOM      2  N   UNL     1      -0.023  -4.729  -1.192  0.00  0.00    -0.175 NA
ENDROOT
BRANCH   1   7
ATOM      3  C   UNL     1      -0.035   1.589   0.325  0.00  0.00    +0.044 C 
ATOM      4  C   UNL     1      -0.032   0.085   0.232  0.00  0.00    -0.047 A 
ATOM      5  C   UNL     1       1.066  -0.630   0.678  0.00  0.00    +0.007 A 
ATOM      6  C   UNL     1       1.076  -2.007   0.596  0.00  0.00    -0.041 A 
ATOM      7  C   UNL     1      -0.026  -2.680   0.061  0.00  0.00    +0.002 A 
ATOM      8  C   UNL     1      -1.130  -1.951  -0.386  0.00  0.00    +0.013 A 
ATOM      9  C   UNL     1      -1.129  -0.575  -0.294  0.00  0.00    -0.047 A 
ATOM     10  C   UNL     1      -2.321   0.212  -0.772  0.00  0.00    +0.044 C 
ATOM     11  C   UNL     1       2.272  -2.784   1.082  0.00  0.00    +0.044 C 
ENDBRANCH   1   7
BRANCH   2  12
ATOM     12  N   UNL     1       0.094  -3.960  -2.357  0.00  0.00    -0.248 N 
ATOM     13  C   UNL     1       0.194  -4.575  -3.577  0.00  0.00    +0.187 C 
ATOM     14  N   UNL     1       0.306  -3.844  -4.685  0.00  0.00    -0.370 N 
ATOM     15  N   UNL     1       0.180  -5.905  -3.655  0.00  0.00    -0.370 N 
ATOM     16  H   UNL     1       0.105  -2.992  -2.300  0.00  0.00    +0.192 HD
ATOM     17  H   UNL     1       0.377  -4.279  -5.548  0.00  0.00    +0.159 HD
ATOM     18  H   UNL     1       0.098  -6.438  -2.849  0.00  0.00    +0.159 HD
ATOM     19  H   UNL     1       0.250  -6.341  -4.519  0.00  0.00    +0.159 HD
ATOM     20  H   UNL     1       0.317  -2.876  -4.628  0.00  0.00    +0.159 HD
ENDBRANCH   2  12
BRANCH   1  21
ATOM     21  C   UNL     1      -0.018  -4.985   1.226  0.00  0.00    +0.136 C 
BRANCH  21  22
ATOM     22  S   UNL     1      -0.015  -6.744   0.784  0.00  0.00    -0.061 S 
BRANCH  22  23
ATOM     23  C   UNL     1      -0.010  -7.574   2.339  0.00  0.00    +0.258 A 
ATOM     24  N   UNL     1      -0.015  -6.981   3.506  0.00  0.00    -0.203 NA
ATOM     25  C   UNL     1      -0.009  -7.932   4.479  0.00  0.00    +0.110 A 
ATOM     26  C   UNL     1      -0.011  -7.884   5.874  0.00  0.00    +0.031 A 
ATOM     27  C   UNL     1      -0.004  -9.056   6.598  0.00  0.00    +0.002 A 
ATOM     28  C   UNL     1       0.005 -10.281   5.949  0.00  0.00    +0.004 A 
ATOM     29  C   UNL     1       0.007 -10.343   4.570  0.00  0.00    +0.048 A 
ATOM     30  C   UNL     1      -0.001  -9.174   3.827  0.00  0.00    +0.156 A 
ATOM     31  O   UNL     1      -0.006  -8.909   2.500  0.00  0.00    -0.431 OA
ENDBRANCH  22  23
ENDBRANCH  21  22
ENDBRANCH   1  21
TORSDOF 5
