REMARK  Name = ZINC09368999
REMARK  12 active torsions:
REMARK  status: ('A' for Active; 'I' for Inactive)
REMARK    1  A    between atoms: C_1  and  C_2
REMARK    2  A    between atoms: C_2  and  C_3
REMARK    3  A    between atoms: C_2  and  C_4
REMARK    4  A    between atoms: C_2  and  C_5
REMARK    5  A    between atoms: C_8  and  C_11
REMARK    6  A    between atoms: N_13  and  C_14
REMARK    7  A    between atoms: C_14  and  C_15
REMARK    8  A    between atoms: C_18  and  S_27
REMARK    9  A    between atoms: N_19  and  C_20
REMARK   10  A    between atoms: S_27  and  C_28
REMARK   11  A    between atoms: C_28  and  C_29
REMARK   12  A    between atoms: C_29  and  C_31
REMARK                            x       y       z     vdW  Elec       q    Type
REMARK                         _______ _______ _______ _____ _____    ______ ____
ROOT
ATOM      1  C   UNL     1      -0.582  -2.106  -0.004  0.00  0.00    +0.156 A 
ATOM      2  N   UNL     1       0.718  -2.007  -0.016  0.00  0.00    -0.132 NA
ATOM      3  N   UNL     1       1.068  -0.771  -0.018  0.00  0.00    -0.122 NA
ATOM      4  C   UNL     1       0.002  -0.004   0.002  0.00  0.00    +0.197 A 
ATOM      5  N   UNL     1      -1.086  -0.833   0.008  0.00  0.00    -0.273 N 
ENDROOT
BRANCH   5   6
ATOM      6  C   UNL     1      -2.438  -0.457   0.022  0.00  0.00    +0.050 A 
ATOM      7  C   UNL     1      -3.235  -0.770   1.115  0.00  0.00    +0.029 A 
ATOM      8  C   UNL     1      -4.564  -0.395   1.130  0.00  0.00    +0.040 A 
ATOM      9  C   UNL     1      -5.104   0.285   0.051  0.00  0.00    +0.124 A 
ATOM     10  C   UNL     1      -4.312   0.594  -1.042  0.00  0.00    +0.040 A 
ATOM     11  C   UNL     1      -2.981   0.225  -1.058  0.00  0.00    +0.029 A 
ATOM     12  F   UNL     1      -6.406   0.647   0.065  0.00  0.00    -0.205 F 
ENDBRANCH   5   6
BRANCH   1  13
ATOM     13  C   UNL     1      -1.381  -3.383  -0.003  0.00  0.00    +0.181 C 
BRANCH  13  16
ATOM     14  C   UNL     1      -2.358  -4.912  -1.628  0.00  0.00    +0.244 C 
ATOM     15  O   UNL     1      -2.768  -5.587  -0.704  0.00  0.00    -0.270 OA
ATOM     16  N   UNL     1      -1.653  -3.790  -1.383  0.00  0.00    -0.304 N 
ATOM     17  H   UNL     1      -1.326  -3.252  -2.121  0.00  0.00    +0.149 HD
BRANCH  14  21
ATOM     18  C   UNL     1      -3.149  -6.091  -5.632  0.00  0.00    -0.042 A 
ATOM     19  C   UNL     1      -3.616  -6.862  -4.582  0.00  0.00    +0.005 A 
ATOM     20  C   UNL     1      -3.363  -6.485  -3.279  0.00  0.00    +0.013 A 
ATOM     21  C   UNL     1      -2.633  -5.323  -3.022  0.00  0.00    +0.037 A 
ATOM     22  C   UNL     1      -2.169  -4.548  -4.086  0.00  0.00    +0.013 A 
ATOM     23  C   UNL     1      -2.425  -4.939  -5.383  0.00  0.00    +0.005 A 
BRANCH  18  25
ATOM     24  C   UNL     1      -4.942  -6.567  -7.277  0.00  0.00    +0.015 C 
ATOM     25  C   UNL     1      -3.430  -6.510  -7.052  0.00  0.00    -0.013 C 
ATOM     26  C   UNL     1      -2.810  -5.495  -8.015  0.00  0.00    +0.015 C 
ATOM     27  C   UNL     1      -2.824  -7.891  -7.306  0.00  0.00    +0.015 C 
ENDBRANCH  18  25
ENDBRANCH  14  21
ENDBRANCH  13  16
ENDBRANCH   1  13
BRANCH   4  28
ATOM     28  S   UNL     1      -0.022   1.758   0.012  0.00  0.00    -0.078 S 
BRANCH  28  29
ATOM     29  C   UNL     1       1.756   2.096  -0.004  0.00  0.00    +0.157 C 
BRANCH  29  30
ATOM     30  C   UNL     1       1.984   3.586   0.002  0.00  0.00    +0.173 C 
ATOM     31  O   UNL     1       1.038   4.344   0.015  0.00  0.00    -0.291 OA
BRANCH  30  32
ATOM     32  C   UNL     1       3.355   4.121  -0.008  0.00  0.00    +0.018 A 
ATOM     33  C   UNL     1       4.449   3.250  -0.017  0.00  0.00    +0.011 A 
ATOM     34  C   UNL     1       5.731   3.759  -0.032  0.00  0.00    +0.001 A 
ATOM     35  C   UNL     1       5.936   5.127  -0.027  0.00  0.00    +0.000 A 
ATOM     36  C   UNL     1       4.858   5.996  -0.012  0.00  0.00    +0.001 A 
ATOM     37  C   UNL     1       3.571   5.503  -0.003  0.00  0.00    +0.011 A 
ENDBRANCH  30  32
ENDBRANCH  29  30
ENDBRANCH  28  29
ENDBRANCH   4  28
TORSDOF 9
