REMARK  Name = ZINC39671441
REMARK  5 active torsions:
REMARK  status: ('A' for Active; 'I' for Inactive)
REMARK    1  A    between atoms: C_6  and  C_11
REMARK    2  A    between atoms: C_11  and  N_12
REMARK    3  A    between atoms: C_13  and  C_15
REMARK    4  A    between atoms: C_26  and  C_28
REMARK    5  A    between atoms: C_30  and  C_35
REMARK                            x       y       z     vdW  Elec       q    Type
REMARK                         _______ _______ _______ _____ _____    ______ ____
ROOT
ATOM      1  C   UNL     1      -8.277   0.079   3.802  0.00  0.00    +0.100 C 
ATOM      2  C   UNL     1      -7.732   1.417   4.352  0.00  0.00    +0.121 C 
ATOM      3  N   UNL     1      -8.877   2.353   4.259  0.00  0.00    -0.296 N 
ATOM      4  C   UNL     1     -10.053   1.538   4.647  0.00  0.00    +0.115 C 
ATOM      5  C   UNL     1      -9.800   0.161   4.001  0.00  0.00    -0.004 C 
ATOM      6  C   UNL     1     -10.272  -0.953   4.929  0.00  0.00    -0.010 C 
ATOM      7  C   UNL     1     -11.796  -0.887   5.065  0.00  0.00    -0.082 C 
ATOM      8  N   UNL     1     -12.414  -1.031   3.742  0.00  0.00    +0.379 N 
ATOM      9  C   UNL     1     -12.028   0.096   2.884  0.00  0.00    -0.082 C 
ATOM     10  C   UNL     1     -10.514   0.071   2.655  0.00  0.00    -0.010 C 
ATOM     11  C   UNL     1      -8.854   3.653   3.903  0.00  0.00    +0.247 C 
ATOM     12  O   UNL     1      -7.826   4.152   3.489  0.00  0.00    -0.270 OA
ATOM     13  H   UNL     1     -12.105  -1.894   3.320  0.00  0.00    -0.086 HD
ATOM     14  H   UNL     1     -13.418  -1.048   3.841  0.00  0.00    -0.086 HD
ENDROOT
BRANCH  11  15
ATOM     15  C   UNL     1     -10.080   4.472   4.017  0.00  0.00    +0.040 A 
ATOM     16  C   UNL     1     -11.113   4.073   4.866  0.00  0.00    +0.025 A 
ATOM     17  C   UNL     1     -12.254   4.841   4.969  0.00  0.00    +0.058 A 
ATOM     18  C   UNL     1     -12.377   6.006   4.232  0.00  0.00    +0.050 A 
ATOM     19  C   UNL     1     -11.356   6.408   3.386  0.00  0.00    +0.125 A 
ATOM     20  C   UNL     1     -10.206   5.650   3.279  0.00  0.00    +0.051 A 
ATOM     21  F   UNL     1     -11.484   7.546   2.669  0.00  0.00    -0.205 F 
BRANCH  17  22
ATOM     22  C   UNL     1     -13.370   4.410   5.885  0.00  0.00    +0.418 C 
ATOM     23  F   UNL     1     -13.168   4.959   7.156  0.00  0.00    -0.166 F 
ATOM     24  F   UNL     1     -14.593   4.858   5.374  0.00  0.00    -0.166 F 
ATOM     25  F   UNL     1     -13.386   3.014   5.977  0.00  0.00    -0.166 F 
ENDBRANCH  17  22
ENDBRANCH  11  15
BRANCH   1  27
ATOM     26  N   UNL     1      -7.883  -1.283   1.775  0.00  0.00    -0.309 N 
ATOM     27  C   UNL     1      -7.946  -0.060   2.338  0.00  0.00    +0.219 C 
ATOM     28  O   UNL     1      -7.735   0.928   1.667  0.00  0.00    -0.275 OA
ATOM     29  H   UNL     1      -8.051  -2.073   2.312  0.00  0.00    +0.149 HD
BRANCH  26  30
ATOM     30  C   UNL     1      -7.561  -1.419   0.352  0.00  0.00    +0.157 C 
BRANCH  30  36
ATOM     31  C   UNL     1      -6.971  -7.303  -1.083  0.00  0.00    +0.001 A 
ATOM     32  C   UNL     1      -8.344  -7.217  -1.269  0.00  0.00    +0.002 A 
ATOM     33  C   UNL     1      -9.008  -6.027  -1.062  0.00  0.00    +0.026 A 
ATOM     34  C   UNL     1      -8.297  -4.900  -0.662  0.00  0.00    +0.047 A 
ATOM     35  N   UNL     1      -8.659  -3.602  -0.381  0.00  0.00    -0.357 N 
ATOM     36  C   UNL     1      -7.554  -2.878  -0.025  0.00  0.00    +0.034 A 
ATOM     37  H   UNL     1      -9.563  -3.252  -0.428  0.00  0.00    +0.166 HD
ATOM     38  C   UNL     1      -6.463  -3.659  -0.061  0.00  0.00    +0.032 A 
ATOM     39  C   UNL     1      -6.906  -4.993  -0.473  0.00  0.00    -0.000 A 
ATOM     40  C   UNL     1      -6.255  -6.210  -0.684  0.00  0.00    +0.010 A 
ENDBRANCH  30  36
ENDBRANCH  26  30
ENDBRANCH   1  27
TORSDOF 5
