REMARK  Name = ZINC12523110
REMARK  9 active torsions:
REMARK  status: ('A' for Active; 'I' for Inactive)
REMARK    1  A    between atoms: C_1  and  N_2
REMARK    2  A    between atoms: N_5  and  C_8
REMARK    3  A    between atoms: C_11  and  S_26
REMARK    4  A    between atoms: C_13  and  N_14
REMARK    5  A    between atoms: C_15  and  C_17
REMARK    6  A    between atoms: C_17  and  S_18
REMARK    7  A    between atoms: S_18  and  C_19
REMARK    8  A    between atoms: C_19  and  C_20
REMARK    9  A    between atoms: S_26  and  N_29
REMARK                            x       y       z     vdW  Elec       q    Type
REMARK                         _______ _______ _______ _____ _____    ______ ____
ROOT
ATOM      1  C   UNL     1       2.126  -3.568  -0.030  0.00  0.00    +0.051 A 
ATOM      2  C   UNL     1       3.473  -3.239  -0.031  0.00  0.00    +0.027 A 
ATOM      3  C   UNL     1       4.428  -4.237  -0.046  0.00  0.00    +0.030 A 
ATOM      4  C   UNL     1       4.045  -5.566  -0.060  0.00  0.00    +0.107 A 
ATOM      5  C   UNL     1       2.704  -5.903  -0.059  0.00  0.00    +0.053 A 
ATOM      6  C   UNL     1       1.739  -4.908  -0.038  0.00  0.00    +0.057 A 
ENDROOT
BRANCH   1  11
ATOM      7  C   UNL     1       0.014   1.466   0.029  0.00  0.00    -0.096 C 
ATOM      8  N   UNL     1       0.027  -0.002   0.016  0.00  0.00    +0.380 N 
ATOM      9  C   UNL     1       0.710  -0.474  -1.195  0.00  0.00    -0.060 C 
ATOM     10  C   UNL     1       0.624  -2.002  -1.267  0.00  0.00    +0.086 C 
ATOM     11  N   UNL     1       1.157  -2.558  -0.014  0.00  0.00    -0.332 N 
ATOM     12  C   UNL     1       0.643  -2.023   1.256  0.00  0.00    +0.086 C 
ATOM     13  C   UNL     1       0.728  -0.494   1.209  0.00  0.00    -0.060 C 
ATOM     14  H   UNL     1      -0.922  -0.346   0.019  0.00  0.00    -0.082 HD
ENDBRANCH   1  11
BRANCH   6  15
ATOM     15  N   UNL     1       0.380  -5.247  -0.032  0.00  0.00    -0.283 N 
ATOM     16  C   UNL     1      -0.047  -6.334  -0.705  0.00  0.00    +0.227 C 
ATOM     17  O   UNL     1       0.754  -7.063  -1.250  0.00  0.00    -0.275 OA
ATOM     18  H   UNL     1      -0.255  -4.700   0.458  0.00  0.00    +0.155 HD
BRANCH  16  19
ATOM     19  C   UNL     1      -1.520  -6.643  -0.782  0.00  0.00    +0.165 C 
BRANCH  19  20
ATOM     20  S   UNL     1      -1.771  -8.156  -1.749  0.00  0.00    -0.147 S 
BRANCH  20  21
ATOM     21  C   UNL     1      -3.571  -8.386  -1.746  0.00  0.00    +0.104 C 
BRANCH  21  22
ATOM     22  C   UNL     1      -3.920  -9.627  -2.527  0.00  0.00    -0.038 A 
ATOM     23  C   UNL     1      -4.160  -9.543  -3.886  0.00  0.00    +0.004 A 
ATOM     24  C   UNL     1      -4.481 -10.681  -4.602  0.00  0.00    +0.000 A 
ATOM     25  C   UNL     1      -4.561 -11.902  -3.960  0.00  0.00    +0.000 A 
ATOM     26  C   UNL     1      -4.320 -11.986  -2.601  0.00  0.00    +0.000 A 
ATOM     27  C   UNL     1      -3.995 -10.849  -1.886  0.00  0.00    +0.004 A 
ENDBRANCH  21  22
ENDBRANCH  20  21
ENDBRANCH  19  20
ENDBRANCH  16  19
ENDBRANCH   6  15
BRANCH   4  28
ATOM     28  S   UNL     1       5.269  -6.833  -0.079  0.00  0.00    +0.061 S 
ATOM     29  O   UNL     1       4.654  -7.984  -0.641  0.00  0.00    -0.153 OA
ATOM     30  O   UNL     1       6.445  -6.254  -0.628  0.00  0.00    -0.153 OA
BRANCH  28  31
ATOM     31  N   UNL     1       5.616  -7.204   1.497  0.00  0.00    -0.177 NA
ATOM     32  C   UNL     1       6.678  -6.489   2.218  0.00  0.00    +0.109 C 
ATOM     33  C   UNL     1       6.097  -5.926   3.520  0.00  0.00    +0.017 C 
ATOM     34  C   UNL     1       5.450  -7.061   4.317  0.00  0.00    +0.003 C 
ATOM     35  C   UNL     1       4.307  -7.672   3.503  0.00  0.00    +0.017 C 
ATOM     36  C   UNL     1       4.863  -8.250   2.203  0.00  0.00    +0.109 C 
ENDBRANCH  28  31
ENDBRANCH   4  28
TORSDOF 8
