REMARK  Name = ZINC23696123
REMARK  8 active torsions:
REMARK  status: ('A' for Active; 'I' for Inactive)
REMARK    1  A    between atoms: C_3  and  C_21
REMARK    2  A    between atoms: C_6  and  C_7
REMARK    3  A    between atoms: C_7  and  N_8
REMARK    4  A    between atoms: N_11  and  C_14
REMARK    5  A    between atoms: C_17  and  O_20
REMARK    6  A    between atoms: C_21  and  N_22
REMARK    7  A    between atoms: N_25  and  C_28
REMARK    8  A    between atoms: C_31  and  O_34
REMARK                            x       y       z     vdW  Elec       q    Type
REMARK                         _______ _______ _______ _____ _____    ______ ____
ROOT
ATOM      1  C   UNL     1       1.890   8.302  -3.411  0.00  0.00    +0.002 A 
ATOM      2  C   UNL     1       1.347   8.758  -4.597  0.00  0.00    +0.005 A 
ATOM      3  C   UNL     1      -0.016   8.970  -4.697  0.00  0.00    -0.033 A 
ATOM      4  C   UNL     1      -0.835   8.723  -3.611  0.00  0.00    +0.005 A 
ATOM      5  C   UNL     1      -0.292   8.264  -2.426  0.00  0.00    +0.002 A 
ATOM      6  C   UNL     1       1.070   8.050  -2.327  0.00  0.00    -0.064 A 
ENDROOT
BRANCH   6   7
ATOM      7  C   UNL     1       1.662   7.549  -1.035  0.00  0.00    -0.043 C 
BRANCH   7   8
ATOM      8  N   UNL     1       1.681   6.080  -1.042  0.00  0.00    +0.384 N 
ATOM      9  C   UNL     1       2.462   5.557   0.088  0.00  0.00    -0.059 C 
ATOM     10  C   UNL     1       2.523   4.031  -0.001  0.00  0.00    +0.086 C 
ATOM     11  N   UNL     1       1.159   3.486   0.009  0.00  0.00    -0.333 N 
ATOM     12  C   UNL     1       0.378   4.009  -1.121  0.00  0.00    +0.086 C 
ATOM     13  C   UNL     1       0.316   5.535  -1.032  0.00  0.00    -0.059 C 
ATOM     14  H   UNL     1       2.170   5.754  -1.972  0.00  0.00    -0.081 HD
BRANCH  11  15
ATOM     15  C   UNL     1       1.177   2.087   0.002  0.00  0.00    +0.030 A 
ATOM     16  C   UNL     1      -0.017   1.377   0.010  0.00  0.00    +0.026 A 
ATOM     17  C   UNL     1       0.002  -0.004   0.002  0.00  0.00    +0.047 A 
ATOM     18  C   UNL     1       1.212  -0.681  -0.014  0.00  0.00    +0.117 A 
ATOM     19  C   UNL     1       2.405   0.027  -0.021  0.00  0.00    +0.047 A 
ATOM     20  C   UNL     1       2.388   1.408  -0.013  0.00  0.00    +0.026 A 
BRANCH  18  21
ATOM     21  O   UNL     1       1.230  -2.041  -0.021  0.00  0.00    -0.507 OA
ATOM     22  H   UNL     1       2.189  -2.579  -0.034  0.00  0.00    +0.292 HD
ENDBRANCH  18  21
ENDBRANCH  11  15
ENDBRANCH   7   8
ENDBRANCH   6   7
BRANCH   3  23
ATOM     23  C   UNL     1      -0.608   9.471  -5.989  0.00  0.00    +0.119 C 
BRANCH  23  24
ATOM     24  N   UNL     1      -0.628  10.940  -5.982  0.00  0.00    -0.295 NA
ATOM     25  C   UNL     1      -1.551  11.449  -4.958  0.00  0.00    +0.103 C 
ATOM     26  C   UNL     1      -1.484  12.977  -4.929  0.00  0.00    +0.120 C 
ATOM     27  N   UNL     1      -1.830  13.506  -6.256  0.00  0.00    -0.327 N 
ATOM     28  C   UNL     1      -0.907  12.997  -7.280  0.00  0.00    +0.120 C 
ATOM     29  C   UNL     1      -0.975  11.468  -7.309  0.00  0.00    +0.103 C 
BRANCH  27  30
ATOM     30  C   UNL     1      -1.850  14.905  -6.249  0.00  0.00    +0.030 A 
ATOM     31  C   UNL     1      -1.052  15.615  -7.137  0.00  0.00    +0.027 A 
ATOM     32  C   UNL     1      -1.076  16.996  -7.133  0.00  0.00    +0.047 A 
ATOM     33  C   UNL     1      -1.887  17.674  -6.235  0.00  0.00    +0.117 A 
ATOM     34  C   UNL     1      -2.680  16.965  -5.345  0.00  0.00    +0.047 A 
ATOM     35  C   UNL     1      -2.662  15.584  -5.351  0.00  0.00    +0.027 A 
BRANCH  33  36
ATOM     36  O   UNL     1      -1.906  19.033  -6.228  0.00  0.00    -0.507 OA
ATOM     37  H   UNL     1      -2.549  19.571  -5.516  0.00  0.00    +0.292 HD
ENDBRANCH  33  36
ENDBRANCH  27  30
ENDBRANCH  23  24
ENDBRANCH   3  23
TORSDOF 8
