REMARK  Name = ZINC09276365
REMARK  10 active torsions:
REMARK  status: ('A' for Active; 'I' for Inactive)
REMARK    1  A    between atoms: C_1  and  C_2
REMARK    2  A    between atoms: C_2  and  C_3
REMARK    3  A    between atoms: C_9  and  C_10
REMARK    4  A    between atoms: C_9  and  N_71
REMARK    5  A    between atoms: C_10  and  C_11
REMARK    6  A    between atoms: C_11  and  N_12
REMARK    7  A    between atoms: C_13  and  C_15
REMARK    8  A    between atoms: C_15  and  N_16
REMARK    9  A    between atoms: C_23  and  S_25
REMARK   10  A    between atoms: S_25  and  N_28
REMARK                            x       y       z     vdW  Elec       q    Type
REMARK                         _______ _______ _______ _____ _____    ______ ____
ROOT
ATOM      1  N   UNL     1       1.017   3.236  -7.122  0.00  0.00    -0.338 N 
ATOM      2  C   UNL     1       2.036   4.072  -7.492  0.00  0.00    +0.087 A 
ATOM      3  C   UNL     1       2.629   3.607  -8.603  0.00  0.00    +0.027 A 
ATOM      4  C   UNL     1       1.926   2.378  -8.981  0.00  0.00    +0.002 A 
ATOM      5  C   UNL     1       0.921   2.192  -8.015  0.00  0.00    +0.050 A 
ATOM      6  C   UNL     1       0.078   1.090  -8.112  0.00  0.00    +0.028 A 
ATOM      7  C   UNL     1       0.236   0.197  -9.150  0.00  0.00    +0.030 A 
ATOM      8  C   UNL     1       1.229   0.385 -10.100  0.00  0.00    +0.106 A 
ATOM      9  C   UNL     1       2.069   1.461 -10.024  0.00  0.00    +0.038 A 
ENDROOT
BRANCH   8  10
ATOM     10  S   UNL     1       1.409  -0.772 -11.417  0.00  0.00    +0.061 S 
ATOM     11  O   UNL     1       0.147  -1.405 -11.576  0.00  0.00    -0.153 OA
ATOM     12  O   UNL     1       2.055  -0.082 -12.479  0.00  0.00    -0.153 OA
BRANCH  10  13
ATOM     13  N   UNL     1       2.464  -1.940 -10.902  0.00  0.00    -0.177 NA
ATOM     14  C   UNL     1       3.908  -1.799 -11.132  0.00  0.00    +0.109 C 
ATOM     15  C   UNL     1       4.635  -1.956  -9.788  0.00  0.00    +0.017 C 
ATOM     16  C   UNL     1       4.228  -3.285  -9.146  0.00  0.00    +0.003 C 
ATOM     17  C   UNL     1       2.720  -3.284  -8.881  0.00  0.00    +0.017 C 
ATOM     18  C   UNL     1       1.972  -3.140 -10.210  0.00  0.00    +0.109 C 
ENDBRANCH  10  13
ENDBRANCH   8  10
BRANCH   1  19
ATOM     19  C   UNL     1       0.152   3.428  -5.955  0.00  0.00    +0.217 C 
BRANCH  19  21
ATOM     20  N   UNL     1       0.056   2.658  -3.607  0.00  0.00    -0.314 N 
ATOM     21  C   UNL     1       0.692   2.634  -4.794  0.00  0.00    +0.233 C 
ATOM     22  O   UNL     1       1.700   1.972  -4.929  0.00  0.00    -0.274 OA
ATOM     23  H   UNL     1      -0.750   3.187  -3.499  0.00  0.00    +0.149 HD
BRANCH  20  24
ATOM     24  C   UNL     1       0.581   1.885  -2.478  0.00  0.00    +0.102 C 
BRANCH  24  25
ATOM     25  C   UNL     1      -0.322   2.086  -1.259  0.00  0.00    +0.000 C 
BRANCH  25  26
ATOM     26  C   UNL     1       0.226   1.279  -0.081  0.00  0.00    -0.077 C 
BRANCH  26  32
ATOM     27  C   UNL     1      -0.203   0.632   2.213  0.00  0.00    -0.069 C 
ATOM     28  C   UNL     1      -1.034   0.964   3.454  0.00  0.00    -0.015 C 
ATOM     29  C   UNL     1      -2.514   0.714   3.153  0.00  0.00    -0.003 C 
ATOM     30  C   UNL     1      -2.933   1.563   1.950  0.00  0.00    -0.019 C 
ATOM     31  C   UNL     1      -2.046   1.214   0.752  0.00  0.00    -0.078 C 
ATOM     32  N   UNL     1      -0.638   1.500   1.098  0.00  0.00    +0.382 N 
ATOM     33  H   UNL     1      -0.559   2.481   1.389  0.00  0.00    -0.081 HD
BRANCH  27  35
ATOM     34  C   UNL     1       1.766  -0.067   3.583  0.00  0.00    +0.002 C 
ATOM     35  C   UNL     1       1.276   0.899   2.503  0.00  0.00    -0.019 C 
ENDBRANCH  27  35
ENDBRANCH  26  32
ENDBRANCH  25  26
ENDBRANCH  24  25
ENDBRANCH  20  24
ENDBRANCH  19  21
ENDBRANCH   1  19
TORSDOF 9
