REMARK  Name = ZINC31057518
REMARK  12 active torsions:
REMARK  status: ('A' for Active; 'I' for Inactive)
REMARK    1  A    between atoms: C_1  and  C_2
REMARK    2  A    between atoms: C_2  and  C_3
REMARK    3  A    between atoms: C_2  and  C_4
REMARK    4  A    between atoms: C_4  and  C_5
REMARK    5  A    between atoms: C_5  and  C_7
REMARK    6  A    between atoms: C_5  and  N_15
REMARK    7  A    between atoms: C_10  and  O_13
REMARK    8  A    between atoms: O_13  and  C_14
REMARK    9  A    between atoms: C_16  and  C_18
REMARK   10  A    between atoms: N_23  and  C_25
REMARK   11  A    between atoms: C_25  and  C_26
REMARK   12  A    between atoms: C_28  and  C_31
REMARK                            x       y       z     vdW  Elec       q    Type
REMARK                         _______ _______ _______ _____ _____    ______ ____
ROOT
ATOM      1  C   UNL     1      -3.763   7.739  -2.810  0.00  0.00    +0.058 C 
ATOM      2  C   UNL     1      -4.481   6.726  -3.706  0.00  0.00    +0.009 C 
ATOM      3  C   UNL     1      -3.764   5.376  -3.613  0.00  0.00    -0.018 C 
ATOM      4  C   UNL     1      -3.737   4.918  -2.153  0.00  0.00    -0.078 C 
ATOM      5  N   UNL     1      -3.039   5.920  -1.337  0.00  0.00    +0.386 N 
ATOM      6  C   UNL     1      -3.736   7.212  -1.373  0.00  0.00    -0.065 C 
ATOM      7  H   UNL     1      -2.039   6.067  -1.769  0.00  0.00    -0.081 HD
ENDROOT
BRANCH   1   9
ATOM      8  N   UNL     1      -4.646   9.708  -4.019  0.00  0.00    -0.308 N 
ATOM      9  C   UNL     1      -4.497   9.054  -2.850  0.00  0.00    +0.215 C 
ATOM     10  O   UNL     1      -4.954   9.525  -1.830  0.00  0.00    -0.276 OA
ATOM     11  H   UNL     1      -4.231   9.280  -4.944  0.00  0.00    +0.149 HD
BRANCH   8  12
ATOM     12  C   UNL     1      -5.359  10.987  -4.059  0.00  0.00    +0.103 C 
BRANCH  12  13
ATOM     13  C   UNL     1      -4.889  11.788  -5.245  0.00  0.00    -0.027 A 
ATOM     14  C   UNL     1      -4.644  11.156  -6.451  0.00  0.00    +0.009 A 
ATOM     15  C   UNL     1      -4.219  11.889  -7.542  0.00  0.00    +0.046 A 
ATOM     16  C   UNL     1      -4.027  13.259  -7.424  0.00  0.00    +0.120 A 
ATOM     17  C   UNL     1      -4.269  13.889  -6.212  0.00  0.00    +0.046 A 
ATOM     18  C   UNL     1      -4.699  13.152  -5.125  0.00  0.00    +0.009 A 
BRANCH  16  19
ATOM     19  O   UNL     1      -3.604  13.981  -8.494  0.00  0.00    -0.495 OA
ATOM     20  C   UNL     1      -3.375  13.266  -9.710  0.00  0.00    +0.277 C 
ENDBRANCH  16  19
ENDBRANCH  12  13
BRANCH  12  21
ATOM     21  C   UNL     1      -6.862  10.729  -4.180  0.00  0.00    +0.030 C 
BRANCH  21  23
ATOM     22  C   UNL     1      -7.208  10.960  -1.716  0.00  0.00    +0.007 C 
ATOM     23  C   UNL     1      -7.362  10.024  -2.917  0.00  0.00    -0.015 C 
ATOM     24  C   UNL     1      -8.837   9.655  -3.089  0.00  0.00    +0.007 C 
ENDBRANCH  21  23
ENDBRANCH  12  21
ENDBRANCH   8  12
ENDBRANCH   1   9
BRANCH   5  25
ATOM     25  C   UNL     1      -2.873   5.451   0.045  0.00  0.00    +0.022 C 
BRANCH  25  26
ATOM     26  C   UNL     1      -2.382   4.026   0.036  0.00  0.00    +0.211 A 
ATOM     27  N   UNL     1      -1.133   3.634   0.033  0.00  0.00    -0.192 NA
ATOM     28  C   UNL     1      -1.176   2.281   0.020  0.00  0.00    +0.209 A 
ATOM     29  N   UNL     1      -2.440   1.936   0.025  0.00  0.00    -0.056 NA
ATOM     30  O   UNL     1      -3.141   2.925   0.034  0.00  0.00    -0.340 OA
BRANCH  28  31
ATOM     31  C   UNL     1      -0.017   1.366   0.010  0.00  0.00    +0.060 A 
ATOM     32  C   UNL     1       0.002  -0.004   0.002  0.00  0.00    +0.019 A 
ATOM     33  C   UNL     1       1.218  -0.649  -0.013  0.00  0.00    +0.008 A 
ATOM     34  C   UNL     1       2.359   0.088  -0.020  0.00  0.00    +0.046 A 
ATOM     35  S   UNL     1       1.725   1.757  -0.005  0.00  0.00    -0.093 S 
ENDBRANCH  28  31
ENDBRANCH  25  26
ENDBRANCH   5  25
TORSDOF 9
