REMARK  Name = ZINC02656342
REMARK  11 active torsions:
REMARK  status: ('A' for Active; 'I' for Inactive)
REMARK    1  A    between atoms: C_2  and  C_3
REMARK    2  A    between atoms: C_3  and  N_4
REMARK    3  A    between atoms: N_4  and  C_5
REMARK    4  A    between atoms: N_4  and  S_12
REMARK    5  A    between atoms: S_12  and  C_15
REMARK    6  A    between atoms: C_19  and  C_21
REMARK    7  A    between atoms: C_21  and  O_23
REMARK    8  A    between atoms: O_23  and  C_24
REMARK    9  A    between atoms: C_24  and  C_25
REMARK   10  A    between atoms: N_27  and  C_28
REMARK   11  A    between atoms: C_28  and  C_29
REMARK                            x       y       z     vdW  Elec       q    Type
REMARK                         _______ _______ _______ _____ _____    ______ ____
ROOT
ATOM      1  C   UNL     1       0.009   2.802   0.431  0.00  0.00    +0.110 A 
ATOM      2  C   UNL     1       0.614   3.588  -0.534  0.00  0.00    +0.029 A 
ATOM      3  C   UNL     1       1.357   4.696  -0.168  0.00  0.00    +0.003 A 
ATOM      4  C   UNL     1       1.499   5.025   1.165  0.00  0.00    +0.015 A 
ATOM      5  C   UNL     1       0.891   4.237   2.143  0.00  0.00    +0.061 A 
ATOM      6  C   UNL     1       0.138   3.123   1.766  0.00  0.00    +0.043 A 
ENDROOT
BRANCH   1   7
ATOM      7  S   UNL     1      -0.935   1.393  -0.047  0.00  0.00    +0.075 S 
ATOM      8  O   UNL     1      -1.482   1.686  -1.326  0.00  0.00    -0.150 OA
ATOM      9  O   UNL     1      -1.746   1.050   1.068  0.00  0.00    -0.150 OA
BRANCH   7  10
ATOM     10  N   UNL     1       0.128   0.142  -0.262  0.00  0.00    -0.199 N 
BRANCH  10  11
ATOM     11  C   UNL     1       0.436  -0.704   0.806  0.00  0.00    +0.052 A 
ATOM     12  C   UNL     1       1.001  -0.185   1.964  0.00  0.00    +0.026 A 
ATOM     13  C   UNL     1       1.299  -1.023   3.021  0.00  0.00    +0.022 A 
ATOM     14  C   UNL     1       1.047  -2.380   2.922  0.00  0.00    +0.041 A 
ATOM     15  C   UNL     1       0.490  -2.901   1.767  0.00  0.00    +0.022 A 
ATOM     16  C   UNL     1       0.184  -2.067   0.710  0.00  0.00    +0.026 A 
ATOM     17 CL   UNL     1       1.430  -3.432   4.249  0.00  0.00    -0.084 Cl
ENDBRANCH  10  11
BRANCH  10  18
ATOM     18  C   UNL     1       0.745  -0.078  -1.573  0.00  0.00    +0.158 C 
BRANCH  18  20
ATOM     19  C   UNL     1       3.161  -0.091  -1.924  0.00  0.00    +0.005 C 
ATOM     20  C   UNL     1       2.091   0.598  -1.614  0.00  0.00    -0.014 C 
ENDBRANCH  18  20
ENDBRANCH  10  18
ENDBRANCH   7  10
ENDBRANCH   1   7
BRANCH   5  21
ATOM     21  C   UNL     1       1.038   4.584   3.572  0.00  0.00    +0.340 C 
ATOM     22  O   UNL     1       0.508   3.896   4.422  0.00  0.00    -0.245 OA
BRANCH  21  23
ATOM     23  O   UNL     1       1.760   5.662   3.932  0.00  0.00    -0.452 OA
BRANCH  23  24
ATOM     24  C   UNL     1       1.862   5.942   5.354  0.00  0.00    +0.328 C 
BRANCH  24  25
ATOM     25  C   UNL     1       2.702   7.176   5.563  0.00  0.00    +0.251 C 
ATOM     26  O   UNL     1       3.168   7.762   4.609  0.00  0.00    -0.272 OA
ATOM     27  N   UNL     1       2.934   7.629   6.811  0.00  0.00    -0.305 N 
ATOM     28  H   UNL     1       2.561   7.161   7.574  0.00  0.00    +0.149 HD
BRANCH  27  29
ATOM     29  C   UNL     1       3.750   8.828   7.015  0.00  0.00    +0.178 C 
BRANCH  29  30
ATOM     30  C   UNL     1       3.856   9.119   8.490  0.00  0.00    +0.122 A 
ATOM     31  C   UNL     1       4.808   8.652   9.318  0.00  0.00    +0.046 A 
ATOM     32  C   UNL     1       4.524   9.170  10.602  0.00  0.00    +0.041 A 
ATOM     33  C   UNL     1       3.417   9.924  10.482  0.00  0.00    +0.195 A 
ATOM     34  O   UNL     1       3.020   9.894   9.200  0.00  0.00    -0.466 OA
ENDBRANCH  29  30
ENDBRANCH  27  29
ENDBRANCH  24  25
ENDBRANCH  23  24
ENDBRANCH  21  23
ENDBRANCH   5  21
TORSDOF 11
