REMARK  Name = ZINC40914311
REMARK  12 active torsions:
REMARK  status: ('A' for Active; 'I' for Inactive)
REMARK    1  A    between atoms: C_1  and  C_2
REMARK    2  A    between atoms: C_3  and  C_30
REMARK    3  A    between atoms: C_4  and  C_12
REMARK    4  A    between atoms: C_15  and  O_20
REMARK    5  A    between atoms: C_16  and  O_18
REMARK    6  A    between atoms: O_18  and  C_19
REMARK    7  A    between atoms: O_20  and  C_21
REMARK    8  A    between atoms: C_21  and  C_22
REMARK    9  A    between atoms: C_30  and  O_32
REMARK   10  A    between atoms: O_32  and  C_33
REMARK   11  A    between atoms: C_33  and  C_34
REMARK   12  A    between atoms: C_33  and  C_35
REMARK                            x       y       z     vdW  Elec       q    Type
REMARK                         _______ _______ _______ _____ _____    ______ ____
ROOT
ATOM      1  C   UNL     1      -1.716  -2.644   1.362  0.00  0.00    -0.015 A 
ATOM      2  C   UNL     1      -0.971  -2.345   2.488  0.00  0.00    +0.010 A 
ATOM      3  C   UNL     1      -1.391  -2.776   3.733  0.00  0.00    +0.050 A 
ATOM      4  C   UNL     1      -2.561  -3.509   3.853  0.00  0.00    +0.162 A 
ATOM      5  C   UNL     1      -3.311  -3.809   2.720  0.00  0.00    +0.162 A 
ATOM      6  C   UNL     1      -2.887  -3.370   1.476  0.00  0.00    +0.055 A 
ENDROOT
BRANCH   1  10
ATOM      7  C   UNL     1      -0.018   1.503   0.010  0.00  0.00    +0.061 C 
ATOM      8  C   UNL     1       0.002  -0.004   0.002  0.00  0.00    +0.020 C 
ATOM      9  C   UNL     1      -1.164  -0.668   0.004  0.00  0.00    +0.082 C 
ATOM     10  C   UNL     1      -1.253  -2.171   0.008  0.00  0.00    +0.179 C 
ATOM     11  N   UNL     1       0.061  -2.737  -0.283  0.00  0.00    -0.221 N 
ATOM     12  C   UNL     1       1.207  -2.012  -0.280  0.00  0.00    +0.218 A 
ATOM     13  N   UNL     1       2.193  -2.817  -0.570  0.00  0.00    -0.201 NA
ATOM     14  C   UNL     1       1.720  -4.051  -0.766  0.00  0.00    +0.247 A 
ATOM     15  N   UNL     1       0.420  -4.046  -0.602  0.00  0.00    -0.156 NA
ATOM     16  N   UNL     1       1.212  -0.651  -0.013  0.00  0.00    -0.287 N 
ATOM     17  H   UNL     1       2.040  -0.175   0.160  0.00  0.00    +0.155 HD
BRANCH   9  18
ATOM     18  C   UNL     1      -2.364   0.077   0.003  0.00  0.00    +0.339 C 
ATOM     19  O   UNL     1      -2.324   1.294   0.000  0.00  0.00    -0.245 OA
BRANCH  18  20
ATOM     20  O   UNL     1      -3.554  -0.559   0.005  0.00  0.00    -0.459 OA
BRANCH  20  21
ATOM     21  C   UNL     1      -4.726   0.258   0.004  0.00  0.00    +0.171 C 
ATOM     22  C   UNL     1      -5.146   0.546  -1.439  0.00  0.00    +0.052 C 
ATOM     23  C   UNL     1      -5.859  -0.474   0.727  0.00  0.00    +0.052 C 
ENDBRANCH  20  21
ENDBRANCH  18  20
ENDBRANCH   9  18
ENDBRANCH   1  10
BRANCH   5  24
ATOM     24  O   UNL     1      -4.460  -4.528   2.834  0.00  0.00    -0.491 OA
ATOM     25  C   UNL     1      -5.177  -4.799   1.628  0.00  0.00    +0.277 C 
ENDBRANCH   5  24
BRANCH   4  26
ATOM     26  O   UNL     1      -2.975  -3.934   5.077  0.00  0.00    -0.484 OA
BRANCH  26  27
ATOM     27  C   UNL     1      -2.156  -3.590   6.196  0.00  0.00    +0.264 C 
BRANCH  27  28
ATOM     28  C   UNL     1      -2.769  -4.142   7.457  0.00  0.00    -0.009 A 
ATOM     29  C   UNL     1      -3.675  -3.383   8.174  0.00  0.00    +0.008 A 
ATOM     30  C   UNL     1      -4.237  -3.888   9.331  0.00  0.00    +0.022 A 
ATOM     31  C   UNL     1      -3.894  -5.153   9.772  0.00  0.00    +0.059 A 
ATOM     32  C   UNL     1      -2.987  -5.913   9.053  0.00  0.00    +0.060 A 
ATOM     33  C   UNL     1      -2.429  -5.409   7.892  0.00  0.00    +0.028 A 
ATOM     34 CL   UNL     1      -2.555  -7.502   9.605  0.00  0.00    -0.082 Cl
ATOM     35 CL   UNL     1      -4.600  -5.788  11.225  0.00  0.00    -0.082 Cl
ENDBRANCH  27  28
ENDBRANCH  26  27
ENDBRANCH   4  26
TORSDOF 8
