REMARK  Name = ZINC40592167
REMARK  7 active torsions:
REMARK  status: ('A' for Active; 'I' for Inactive)
REMARK    1  A    between atoms: C_1  and  C_2
REMARK    2  A    between atoms: C_5  and  C_29
REMARK    3  A    between atoms: C_6  and  N_8
REMARK    4  A    between atoms: C_10  and  N_26
REMARK    5  A    between atoms: C_11  and  N_15
REMARK    6  A    between atoms: N_15  and  N_16
REMARK    7  A    between atoms: C_17  and  C_19
REMARK                            x       y       z     vdW  Elec       q    Type
REMARK                         _______ _______ _______ _____ _____    ______ ____
ROOT
ATOM      1  N   UNL     1       0.051  -2.797   2.391  0.00  0.00    -0.297 N 
ATOM      2  C   UNL     1       0.152  -2.115   3.595  0.00  0.00    +0.159 A 
ATOM      3  C   UNL     1       0.278  -2.812   4.793  0.00  0.00    +0.207 A 
ATOM      4  C   UNL     1       0.376  -2.081   5.973  0.00  0.00    +0.171 A 
ATOM      5  N   UNL     1       0.347  -0.751   5.914  0.00  0.00    -0.217 NA
ATOM      6  C   UNL     1       0.226  -0.128   4.760  0.00  0.00    +0.225 A 
ATOM      7  N   UNL     1       0.136  -0.783   3.620  0.00  0.00    -0.218 NA
ATOM      8  H   UNL     1      -0.020  -3.764   2.386  0.00  0.00    +0.154 HD
ENDROOT
BRANCH   1  14
ATOM      9  C   UNL     1       1.274   1.225  -0.156  0.00  0.00    +0.044 C 
ATOM     10  C   UNL     1       0.636  -0.138  -0.078  0.00  0.00    -0.049 A 
ATOM     11  C   UNL     1       0.049  -0.691  -1.202  0.00  0.00    +0.004 A 
ATOM     12  C   UNL     1      -0.537  -1.941  -1.135  0.00  0.00    +0.005 A 
ATOM     13  C   UNL     1      -0.538  -2.643   0.055  0.00  0.00    -0.029 A 
ATOM     14  C   UNL     1       0.051  -2.090   1.185  0.00  0.00    +0.036 A 
ATOM     15  C   UNL     1       0.644  -0.836   1.113  0.00  0.00    +0.027 A 
ATOM     16  C   UNL     1      -1.178  -4.005   0.127  0.00  0.00    +0.045 C 
ENDBRANCH   1  14
BRANCH   3  17
ATOM     17  N   UNL     1       0.306  -4.292   4.811  0.00  0.00    +0.063 N 
ATOM     18  O   UNL     1       1.359  -4.878   4.720  0.00  0.00    -0.126 OA
ATOM     19  O   UNL     1      -0.725  -4.914   4.918  0.00  0.00    -0.126 OA
ENDBRANCH   3  17
BRANCH   4  20
ATOM     20  N   UNL     1       0.503  -2.728   7.192  0.00  0.00    -0.246 N 
ATOM     21  H   UNL     1       0.523  -3.698   7.227  0.00  0.00    +0.172 HD
BRANCH  20  22
ATOM     22  N   UNL     1       0.601  -1.983   8.374  0.00  0.00    -0.231 N 
ATOM     23  C   UNL     1       0.724  -2.612   9.560  0.00  0.00    +0.260 C 
ATOM     24  O   UNL     1       0.750  -3.827   9.604  0.00  0.00    -0.269 OA
ATOM     25  H   UNL     1       0.581  -1.014   8.340  0.00  0.00    +0.173 HD
BRANCH  23  26
ATOM     26  C   UNL     1       0.828  -1.825  10.807  0.00  0.00    +0.040 A 
ATOM     27  C   UNL     1       0.793  -0.430  10.761  0.00  0.00    +0.013 A 
ATOM     28  C   UNL     1       0.890   0.298  11.928  0.00  0.00    +0.002 A 
ATOM     29  C   UNL     1       1.022  -0.349  13.144  0.00  0.00    +0.020 A 
ATOM     30  C   UNL     1       1.057  -1.732  13.197  0.00  0.00    +0.042 A 
ATOM     31  C   UNL     1       0.956  -2.474  12.036  0.00  0.00    +0.033 A 
ATOM     32 CL   UNL     1       1.224  -2.537  14.727  0.00  0.00    -0.084 Cl
ENDBRANCH  23  26
ENDBRANCH  20  22
ENDBRANCH   4  20
TORSDOF 5
