REMARK  Name = ZINC37372510
REMARK  2 active torsions:
REMARK  status: ('A' for Active; 'I' for Inactive)
REMARK    1  A    between atoms: C_1  and  N_2
REMARK    2  A    between atoms: N_2  and  C_9
REMARK                            x       y       z     vdW  Elec       q    Type
REMARK                         _______ _______ _______ _____ _____    ______ ____
ROOT
ATOM      1  C   UNL     1      -0.038   1.460   0.012  0.00  0.00    +0.131 C 
ATOM      2  N   UNL     1       0.002  -0.004   0.002  0.00  0.00    -0.311 N 
ATOM      3  C   UNL     1       0.129  -0.709   1.205  0.00  0.00    +0.169 A 
ATOM      4  C   UNL     1      -0.965  -1.187   1.903  0.00  0.00    +0.180 A 
ATOM      5  N   UNL     1      -0.712  -1.831   3.017  0.00  0.00    -0.177 NA
ATOM      6  S   UNL     1       0.899  -1.810   3.141  0.00  0.00    +0.119 S 
ATOM      7  N   UNL     1       1.299  -0.970   1.751  0.00  0.00    -0.174 NA
ATOM      8 CL   UNL     1      -2.588  -0.945   1.336  0.00  0.00    -0.058 Cl
ENDROOT
BRANCH   2   9
ATOM      9  C   UNL     1      -0.090  -0.731  -1.267  0.00  0.00    +0.097 C 
ATOM     10  C   UNL     1       1.056  -0.300  -2.196  0.00  0.00    +0.046 C 
ATOM     11  C   UNL     1       0.789  -0.809  -3.634  0.00  0.00    +0.168 C 
ATOM     12  S   UNL     1      -1.047  -0.887  -3.701  0.00  0.00    -0.029 S 
ATOM     13  O   UNL     1      -1.446  -2.236  -3.897  0.00  0.00    -0.174 OA
ATOM     14  O   UNL     1      -1.520   0.118  -4.587  0.00  0.00    -0.174 OA
ATOM     15  C   UNL     1      -1.436  -0.392  -1.969  0.00  0.00    +0.188 C 
ENDBRANCH   2   9
TORSDOF 1
