REMARK  Name = ZINC02977732
REMARK  6 active torsions:
REMARK  status: ('A' for Active; 'I' for Inactive)
REMARK    1  A    between atoms: C_1  and  O_2
REMARK    2  A    between atoms: O_2  and  C_3
REMARK    3  A    between atoms: C_5  and  C_11
REMARK    4  A    between atoms: C_8  and  O_9
REMARK    5  A    between atoms: C_23  and  S_26
REMARK    6  A    between atoms: S_26  and  C_27
REMARK                            x       y       z     vdW  Elec       q    Type
REMARK                         _______ _______ _______ _____ _____    ______ ____
ROOT
ATOM      1  C   UNL     1      -1.510  -1.398  -1.184  0.00  0.00    +0.294 C 
ATOM      2  N   UNL     1      -0.383  -2.090  -1.802  0.00  0.00    -0.305 N 
ATOM      3  C   UNL     1       0.474  -2.840  -0.990  0.00  0.00    +0.040 A 
ATOM      4  C   UNL     1       0.519  -4.219  -1.070  0.00  0.00    +0.025 A 
ATOM      5  C   UNL     1       1.367  -4.930  -0.240  0.00  0.00    +0.017 A 
ATOM      6  C   UNL     1       2.173  -4.269   0.671  0.00  0.00    +0.019 A 
ATOM      7  C   UNL     1       2.144  -2.890   0.759  0.00  0.00    +0.027 A 
ATOM      8  C   UNL     1       1.301  -2.163  -0.073  0.00  0.00    +0.029 A 
ATOM      9  C   UNL     1       1.264  -0.687  -0.037  0.00  0.00    +0.156 A 
ATOM     10  C   UNL     1       0.018  -0.021   0.002  0.00  0.00    +0.248 A 
ATOM     11  N   UNL     1       0.004   1.301   0.023  0.00  0.00    -0.184 NA
ATOM     12  C   UNL     1       1.157   1.964   0.011  0.00  0.00    +0.212 A 
ATOM     13  N   UNL     1       2.316   1.319  -0.020  0.00  0.00    -0.122 NA
ATOM     14  N   UNL     1       2.375   0.033  -0.043  0.00  0.00    -0.141 NA
ATOM     15  O   UNL     1      -1.130  -0.739   0.020  0.00  0.00    -0.449 OA
ATOM     16 BR   UNL     1       3.319  -5.259   1.804  0.00  0.00    -0.050 Br
ATOM     17  H   UNL     1      -0.231  -2.030  -2.758  0.00  0.00    +0.150 HD
ENDROOT
BRANCH   1  20
ATOM     18  C   UNL     1      -4.340  -3.190   0.564  0.00  0.00    +0.163 A 
ATOM     19  C   UNL     1      -3.340  -2.273   0.280  0.00  0.00    +0.058 A 
ATOM     20  C   UNL     1      -2.592  -2.400  -0.875  0.00  0.00    +0.016 A 
ATOM     21  C   UNL     1      -2.829  -3.448  -1.744  0.00  0.00    +0.032 A 
ATOM     22  C   UNL     1      -3.821  -4.371  -1.465  0.00  0.00    +0.086 A 
ATOM     23  C   UNL     1      -4.579  -4.245  -0.310  0.00  0.00    +0.177 A 
ATOM     24 CL   UNL     1      -4.117  -5.686  -2.559  0.00  0.00    -0.080 Cl
BRANCH  18  26
ATOM     25  C   UNL     1      -4.779  -1.955   2.548  0.00  0.00    +0.277 C 
ATOM     26  O   UNL     1      -5.081  -3.062   1.697  0.00  0.00    -0.491 OA
ENDBRANCH  18  26
BRANCH  23  27
ATOM     27  O   UNL     1      -5.555  -5.152  -0.033  0.00  0.00    -0.502 OA
ATOM     28  H   UNL     1      -5.252  -5.910   0.485  0.00  0.00    +0.292 HD
ENDBRANCH  23  27
ENDBRANCH   1  20
BRANCH  12  29
ATOM     29  S   UNL     1       1.144   3.725   0.037  0.00  0.00    -0.088 S 
ATOM     30  C   UNL     1       2.924   4.053   0.009  0.00  0.00    +0.093 C 
ENDBRANCH  12  29
TORSDOF 4
