REMARK  Name = ZINC40686233
REMARK  7 active torsions:
REMARK  status: ('A' for Active; 'I' for Inactive)
REMARK    1  A    between atoms: C_4  and  C_7
REMARK    2  A    between atoms: C_7  and  C_8
REMARK    3  A    between atoms: N_10  and  N_11
REMARK    4  A    between atoms: C_13  and  N_29
REMARK    5  A    between atoms: C_14  and  N_18
REMARK    6  A    between atoms: N_18  and  C_19
REMARK    7  A    between atoms: C_19  and  C_20
REMARK                            x       y       z     vdW  Elec       q    Type
REMARK                         _______ _______ _______ _____ _____    ______ ____
ROOT
ATOM      1  N   UNL     1       5.745  -1.842   2.924  0.00  0.00    -0.247 N 
ATOM      2  C   UNL     1       6.940  -2.510   3.162  0.00  0.00    +0.161 A 
ATOM      3  C   UNL     1       7.367  -2.755   4.468  0.00  0.00    +0.107 A 
ATOM      4  C   UNL     1       8.575  -3.430   4.651  0.00  0.00    +0.145 A 
ATOM      5  N   UNL     1       9.268  -3.813   3.581  0.00  0.00    -0.219 NA
ATOM      6  C   UNL     1       8.829  -3.562   2.364  0.00  0.00    +0.225 A 
ATOM      7  N   UNL     1       7.692  -2.932   2.148  0.00  0.00    -0.217 NA
ATOM      8  H   UNL     1       5.202  -1.538   3.668  0.00  0.00    +0.172 HD
ENDROOT
BRANCH   1  11
ATOM      9  C   UNL     1       4.164  -0.959   1.377  0.00  0.00    +0.233 C 
ATOM     10  O   UNL     1       3.486  -0.579   2.308  0.00  0.00    -0.274 OA
ATOM     11  N   UNL     1       5.323  -1.607   1.608  0.00  0.00    -0.235 N 
ATOM     12  H   UNL     1       5.866  -1.911   0.864  0.00  0.00    +0.173 HD
BRANCH   9  13
ATOM     13  C   UNL     1       3.711  -0.707  -0.038  0.00  0.00    +0.132 C 
BRANCH  13  17
ATOM     14  C   UNL     1      -0.017   1.378   0.010  0.00  0.00    +0.000 A 
ATOM     15  C   UNL     1       1.171   2.086   0.002  0.00  0.00    +0.000 A 
ATOM     16  C   UNL     1       2.377   1.411  -0.013  0.00  0.00    +0.004 A 
ATOM     17  C   UNL     1       2.396   0.029  -0.020  0.00  0.00    -0.039 A 
ATOM     18  C   UNL     1       1.208  -0.679  -0.012  0.00  0.00    +0.004 A 
ATOM     19  C   UNL     1       0.002  -0.004   0.002  0.00  0.00    +0.000 A 
ENDBRANCH  13  17
ENDBRANCH   9  13
ENDBRANCH   1  11
BRANCH   3  20
ATOM     20  N   UNL     1       6.603  -2.332   5.568  0.00  0.00    -0.353 N 
ATOM     21  H   UNL     1       5.766  -1.863   5.426  0.00  0.00    +0.143 HD
ATOM     22  H   UNL     1       6.912  -2.509   6.470  0.00  0.00    +0.143 HD
ENDBRANCH   3  20
BRANCH   4  23
ATOM     23  N   UNL     1       9.046  -3.699   5.931  0.00  0.00    -0.323 N 
ATOM     24  H   UNL     1       8.535  -3.417   6.705  0.00  0.00    +0.148 HD
BRANCH  23  25
ATOM     25  C   UNL     1      10.315  -4.409   6.109  0.00  0.00    +0.138 C 
BRANCH  25  26
ATOM     26  C   UNL     1      10.597  -4.572   7.581  0.00  0.00    -0.027 A 
ATOM     27  C   UNL     1      11.305  -3.598   8.260  0.00  0.00    +0.009 A 
ATOM     28  C   UNL     1      11.565  -3.743   9.610  0.00  0.00    +0.050 A 
ATOM     29  C   UNL     1      11.116  -4.866  10.286  0.00  0.00    +0.166 A 
ATOM     30  C   UNL     1      10.403  -5.847   9.602  0.00  0.00    +0.167 A 
ATOM     31  C   UNL     1      10.141  -5.692   8.250  0.00  0.00    +0.054 A 
ATOM     32  O   UNL     1      10.076  -6.841  10.479  0.00  0.00    -0.453 OA
ATOM     33  C   UNL     1      10.946  -6.655  11.611  0.00  0.00    +0.466 C 
ATOM     34  O   UNL     1      11.237  -5.245  11.592  0.00  0.00    -0.453 OA
ENDBRANCH  25  26
ENDBRANCH  23  25
ENDBRANCH   4  23
TORSDOF 7
