REMARK  Name = ZINC40343810
REMARK  9 active torsions:
REMARK  status: ('A' for Active; 'I' for Inactive)
REMARK    1  A    between atoms: C_4  and  C_7
REMARK    2  A    between atoms: C_7  and  O_8
REMARK    3  A    between atoms: O_8  and  C_9
REMARK    4  A    between atoms: C_12  and  C_15
REMARK    5  A    between atoms: C_18  and  C_34
REMARK    6  A    between atoms: N_25  and  C_26
REMARK    7  A    between atoms: C_26  and  C_27
REMARK    8  A    between atoms: C_27  and  C_28
REMARK    9  A    between atoms: C_28  and  N_29
REMARK                            x       y       z     vdW  Elec       q    Type
REMARK                         _______ _______ _______ _____ _____    ______ ____
ROOT
ATOM      1  C   UNL     1       9.022  -3.675   1.977  0.00  0.00    +0.141 C 
ATOM      2  C   UNL     1      10.111  -2.704   2.341  0.00  0.00    +0.035 A 
ATOM      3  C   UNL     1      10.840  -1.613   1.991  0.00  0.00    +0.072 A 
ATOM      4  N   UNL     1      11.712  -1.379   3.015  0.00  0.00    -0.276 N 
ATOM      5  N   UNL     1      11.546  -2.255   3.941  0.00  0.00    -0.168 NA
ATOM      6  H   UNL     1      12.361  -0.658   3.040  0.00  0.00    +0.189 HD
ATOM      7  C   UNL     1      10.590  -3.100   3.611  0.00  0.00    +0.153 A 
ATOM      8  C   UNL     1       9.824  -4.287   4.033  0.00  0.00    +0.268 C 
ATOM      9  O   UNL     1       9.986  -4.879   5.082  0.00  0.00    -0.268 OA
ATOM     10  N   UNL     1       8.920  -4.621   3.095  0.00  0.00    -0.285 N 
ENDROOT
BRANCH   3  11
ATOM     11  C   UNL     1      10.714  -0.830   0.741  0.00  0.00    +0.000 A 
ATOM     12  C   UNL     1      10.600  -1.484  -0.486  0.00  0.00    +0.011 A 
ATOM     13  C   UNL     1      10.482  -0.750  -1.648  0.00  0.00    +0.020 A 
ATOM     14  C   UNL     1      10.478   0.634  -1.598  0.00  0.00    +0.041 A 
ATOM     15  C   UNL     1      10.591   1.288  -0.383  0.00  0.00    +0.020 A 
ATOM     16  C   UNL     1      10.703   0.564   0.786  0.00  0.00    +0.011 A 
ATOM     17 CL   UNL     1      10.332   1.552  -3.064  0.00  0.00    -0.084 Cl
ENDBRANCH   3  11
BRANCH   1  21
ATOM     18  C   UNL     1       5.319  -1.605   1.466  0.00  0.00    +0.121 A 
ATOM     19  C   UNL     1       6.048  -2.007   0.357  0.00  0.00    +0.046 A 
ATOM     20  C   UNL     1       7.245  -2.676   0.525  0.00  0.00    +0.009 A 
ATOM     21  C   UNL     1       7.716  -2.945   1.797  0.00  0.00    -0.022 A 
ATOM     22  C   UNL     1       6.990  -2.545   2.904  0.00  0.00    +0.009 A 
ATOM     23  C   UNL     1       5.796  -1.871   2.742  0.00  0.00    +0.046 A 
BRANCH  18  24
ATOM     24  O   UNL     1       4.141  -0.946   1.304  0.00  0.00    -0.487 OA
BRANCH  24  25
ATOM     25  C   UNL     1       3.711  -0.707  -0.038  0.00  0.00    +0.264 C 
BRANCH  25  29
ATOM     26  C   UNL     1      -0.017   1.378   0.010  0.00  0.00    +0.000 A 
ATOM     27  C   UNL     1       1.171   2.086   0.002  0.00  0.00    +0.000 A 
ATOM     28  C   UNL     1       2.377   1.411  -0.013  0.00  0.00    +0.007 A 
ATOM     29  C   UNL     1       2.396   0.029  -0.020  0.00  0.00    -0.010 A 
ATOM     30  C   UNL     1       1.208  -0.679  -0.012  0.00  0.00    +0.007 A 
ATOM     31  C   UNL     1       0.002  -0.004   0.002  0.00  0.00    +0.000 A 
ENDBRANCH  25  29
ENDBRANCH  24  25
ENDBRANCH  18  24
ENDBRANCH   1  21
BRANCH  10  32
ATOM     32  C   UNL     1       7.986  -5.747   3.175  0.00  0.00    +0.111 C 
BRANCH  32  33
ATOM     33  C   UNL     1       8.634  -6.992   2.568  0.00  0.00    +0.040 C 
BRANCH  33  34
ATOM     34  C   UNL     1       7.658  -8.168   2.651  0.00  0.00    +0.124 C 
BRANCH  34  35
ATOM     35  N   UNL     1       8.280  -9.361   2.071  0.00  0.00    -0.338 N 
ATOM     36  C   UNL     1       8.221  -9.750   0.760  0.00  0.00    +0.104 A 
ATOM     37  C   UNL     1       8.925 -10.894   0.662  0.00  0.00    +0.101 A 
ATOM     38  N   UNL     1       9.400 -11.195   1.879  0.00  0.00    -0.352 N 
ATOM     39  C   UNL     1       9.022 -10.278   2.727  0.00  0.00    +0.173 A 
ATOM     40  H   UNL     1       9.942 -11.970   2.095  0.00  0.00    +0.166 HD
ENDBRANCH  34  35
ENDBRANCH  33  34
ENDBRANCH  32  33
ENDBRANCH  10  32
TORSDOF 9
