REMARK  Name = ZINC01980035
REMARK  13 active torsions:
REMARK  status: ('A' for Active; 'I' for Inactive)
REMARK    1  A    between atoms: C_1  and  C_2
REMARK    2  A    between atoms: C_2  and  O_3
REMARK    3  A    between atoms: O_3  and  C_4
REMARK    4  A    between atoms: C_7  and  C_10
REMARK    5  A    between atoms: C_11  and  C_36
REMARK    6  A    between atoms: C_13  and  N_19
REMARK    7  A    between atoms: C_14  and  C_15
REMARK    8  A    between atoms: C_15  and  O_17
REMARK    9  A    between atoms: O_17  and  C_18
REMARK   10  A    between atoms: C_20  and  C_22
REMARK   11  A    between atoms: C_22  and  C_23
REMARK   12  A    between atoms: C_23  and  C_24
REMARK   13  A    between atoms: C_24  and  N_25
REMARK                            x       y       z     vdW  Elec       q    Type
REMARK                         _______ _______ _______ _____ _____    ______ ____
ROOT
ATOM      1  C   UNL     1      -1.949   2.291   1.259  0.00  0.00    +0.008 A 
ATOM      2  C   UNL     1      -3.130   2.952   1.152  0.00  0.00    -0.003 A 
ATOM      3  S   UNL     1      -3.365   3.089  -0.608  0.00  0.00    -0.077 S 
ATOM      4  C   UNL     1      -1.930   2.294  -1.159  0.00  0.00    +0.087 A 
ATOM      5  C   UNL     1      -1.291   1.926   0.019  0.00  0.00    +0.095 A 
ATOM      6  C   UNL     1      -4.026   3.450   2.256  0.00  0.00    +0.052 C 
ENDROOT
BRANCH   1  10
ATOM      7  C   UNL     1      -0.262   1.337   5.044  0.00  0.00    +0.121 A 
ATOM      8  C   UNL     1      -0.400   2.664   4.662  0.00  0.00    +0.046 A 
ATOM      9  C   UNL     1      -0.947   2.977   3.435  0.00  0.00    +0.012 A 
ATOM     10  C   UNL     1      -1.361   1.958   2.578  0.00  0.00    -0.016 A 
ATOM     11  C   UNL     1      -1.227   0.626   2.968  0.00  0.00    +0.012 A 
ATOM     12  C   UNL     1      -0.674   0.320   4.194  0.00  0.00    +0.046 A 
BRANCH   7  13
ATOM     13  O   UNL     1       0.278   1.032   6.254  0.00  0.00    -0.492 OA
BRANCH  13  15
ATOM     14  C   UNL     1       1.016  -0.499   7.972  0.00  0.00    +0.048 C 
ATOM     15  C   UNL     1       0.391  -0.354   6.583  0.00  0.00    +0.225 C 
ENDBRANCH  13  15
ENDBRANCH   7  13
ENDBRANCH   1  10
BRANCH   4  16
ATOM     16  N   UNL     1      -1.517   2.074  -2.463  0.00  0.00    -0.279 N 
ATOM     17  C   UNL     1      -2.274   2.506  -3.491  0.00  0.00    +0.218 C 
ATOM     18  O   UNL     1      -3.316   3.087  -3.275  0.00  0.00    -0.275 OA
ATOM     19  H   UNL     1      -0.572   1.546  -2.660  0.00  0.00    +0.155 HD
BRANCH  17  20
ATOM     20  C   UNL     1      -1.826   2.267  -4.910  0.00  0.00    +0.097 C 
BRANCH  20  21
ATOM     21  C   UNL     1      -2.857   2.852  -5.877  0.00  0.00    +0.029 C 
BRANCH  21  22
ATOM     22  C   UNL     1      -2.402   2.609  -7.317  0.00  0.00    +0.117 C 
BRANCH  22  23
ATOM     23  N   UNL     1      -3.390   3.170  -8.242  0.00  0.00    -0.234 N 
ATOM     24  C   UNL     1      -4.442   2.491  -8.736  0.00  0.00    +0.254 C 
ATOM     25  O   UNL     1      -4.719   1.335  -8.488  0.00  0.00    -0.270 OA
ATOM     26  C   UNL     1      -5.205   3.390  -9.627  0.00  0.00    +0.049 A 
ATOM     27  C   UNL     1      -6.352   3.248 -10.393  0.00  0.00    +0.014 A 
ATOM     28  C   UNL     1      -6.814   4.318 -11.143  0.00  0.00    +0.001 A 
ATOM     29  C   UNL     1      -6.139   5.525 -11.132  0.00  0.00    +0.001 A 
ATOM     30  C   UNL     1      -4.990   5.681 -10.372  0.00  0.00    +0.014 A 
ATOM     31  C   UNL     1      -4.517   4.620  -9.617  0.00  0.00    +0.049 A 
ATOM     32  C   UNL     1      -3.361   4.429  -8.715  0.00  0.00    +0.254 C 
ATOM     33  O   UNL     1      -2.526   5.268  -8.446  0.00  0.00    -0.270 OA
ENDBRANCH  22  23
ENDBRANCH  21  22
ENDBRANCH  20  21
ENDBRANCH  17  20
ENDBRANCH   4  16
BRANCH   5  34
ATOM     34  C   UNL     1      -0.014   1.212   0.009  0.00  0.00    +0.342 C 
ATOM     35  O   UNL     1       0.002  -0.004   0.002  0.00  0.00    -0.245 OA
BRANCH  34  36
ATOM     36  O   UNL     1       1.145   1.903   0.001  0.00  0.00    -0.464 OA
ATOM     37  C   UNL     1       2.373   1.129  -0.015  0.00  0.00    +0.280 C 
ENDBRANCH  34  36
ENDBRANCH   5  34
TORSDOF 10
