REMARK  Name = ZINC12078788
REMARK  8 active torsions:
REMARK  status: ('A' for Active; 'I' for Inactive)
REMARK    1  A    between atoms: C_1  and  O_2
REMARK    2  A    between atoms: O_2  and  C_3
REMARK    3  A    between atoms: C_8  and  C_9
REMARK    4  A    between atoms: C_12  and  C_27
REMARK    5  A    between atoms: N_17  and  C_20
REMARK    6  A    between atoms: C_33  and  C_35
REMARK    7  A    between atoms: C_35  and  O_37
REMARK    8  A    between atoms: O_37  and  C_38
REMARK                            x       y       z     vdW  Elec       q    Type
REMARK                         _______ _______ _______ _____ _____    ______ ____
ROOT
ATOM      1  C   UNL     1      -3.285   3.194   5.319  0.00  0.00    +0.051 A 
ATOM      2  C   UNL     1      -1.963   3.447   4.951  0.00  0.00    +0.027 A 
ATOM      3  C   UNL     1      -1.474   2.918   3.775  0.00  0.00    +0.018 A 
ATOM      4  C   UNL     1      -2.334   2.147   2.980  0.00  0.00    +0.075 A 
ATOM      5  C   UNL     1      -3.654   1.933   3.414  0.00  0.00    +0.112 A 
ATOM      6  N   UNL     1      -4.515   1.171   2.646  0.00  0.00    -0.313 N 
ATOM      7  C   UNL     1      -5.644   1.978   2.162  0.00  0.00    +0.125 C 
ATOM      8  C   UNL     1      -6.527   1.120   1.253  0.00  0.00    +0.124 C 
ATOM      9  N   UNL     1      -7.003  -0.051   2.001  0.00  0.00    -0.325 N 
ATOM     10  C   UNL     1      -5.875  -0.858   2.485  0.00  0.00    +0.124 C 
ATOM     11  C   UNL     1      -4.991  -0.001   3.394  0.00  0.00    +0.125 C 
ATOM     12  N   UNL     1      -4.154   2.443   4.575  0.00  0.00    -0.342 N 
ATOM     13  H   UNL     1      -5.122   2.275   4.872  0.00  0.00    +0.167 HD
ENDROOT
BRANCH   9  14
ATOM     14  C   UNL     1      -7.874  -0.822   1.224  0.00  0.00    +0.065 A 
ATOM     15  C   UNL     1      -8.498  -1.934   1.773  0.00  0.00    +0.026 A 
ATOM     16  C   UNL     1      -9.357  -2.694   1.003  0.00  0.00    +0.002 A 
ATOM     17  C   UNL     1      -9.596  -2.349  -0.315  0.00  0.00    +0.003 A 
ATOM     18  C   UNL     1      -8.977  -1.242  -0.867  0.00  0.00    +0.040 A 
ATOM     19  C   UNL     1      -8.120  -0.474  -0.100  0.00  0.00    +0.144 A 
ATOM     20  F   UNL     1      -7.519   0.610  -0.638  0.00  0.00    -0.204 F 
ENDBRANCH   9  14
BRANCH   4  21
ATOM     21  C   UNL     1      -1.860   1.564   1.713  0.00  0.00    +0.251 C 
ATOM     22  O   UNL     1      -2.254   0.468   1.363  0.00  0.00    -0.270 OA
ATOM     23  N   UNL     1      -0.990   2.246   0.942  0.00  0.00    -0.284 N 
ATOM     24  C   UNL     1      -0.518   3.621   1.188  0.00  0.00    +0.109 C 
ATOM     25  C   UNL     1      -0.085   4.146  -0.204  0.00  0.00    +0.021 C 
ATOM     26  C   UNL     1       0.537   2.873  -0.837  0.00  0.00    +0.035 C 
ATOM     27  C   UNL     1      -0.354   1.741  -0.284  0.00  0.00    +0.185 C 
BRANCH  27  28
ATOM     28  C   UNL     1       0.491   0.535   0.036  0.00  0.00    +0.328 C 
ATOM     29  O   UNL     1       0.549   0.122   1.170  0.00  0.00    -0.249 OA
BRANCH  28  30
ATOM     30  O   UNL     1       1.177  -0.081  -0.939  0.00  0.00    -0.467 OA
ATOM     31  C   UNL     1       1.970  -1.237  -0.558  0.00  0.00    +0.280 C 
ENDBRANCH  28  30
ENDBRANCH  27  28
ENDBRANCH   4  21
BRANCH   1  37
ATOM     32  C   UNL     1      -5.135   3.512   6.966  0.00  0.00    +0.129 A 
ATOM     33  C   UNL     1      -5.617   4.043   8.152  0.00  0.00    +0.046 A 
ATOM     34  C   UNL     1      -4.794   4.810   8.953  0.00  0.00    +0.004 A 
ATOM     35  C   UNL     1      -3.483   5.054   8.578  0.00  0.00    +0.001 A 
ATOM     36  C   UNL     1      -2.987   4.529   7.403  0.00  0.00    +0.013 A 
ATOM     37  C   UNL     1      -3.811   3.757   6.584  0.00  0.00    +0.040 A 
BRANCH  32  39
ATOM     38  C   UNL     1      -7.282   2.550   6.633  0.00  0.00    +0.277 C 
ATOM     39  O   UNL     1      -5.943   2.757   6.179  0.00  0.00    -0.494 OA
ENDBRANCH  32  39
ENDBRANCH   1  37
TORSDOF 6
