REMARK  Name = ZINC15783622
REMARK  11 active torsions:
REMARK  status: ('A' for Active; 'I' for Inactive)
REMARK    1  A    between atoms: C_1  and  C_2
REMARK    2  A    between atoms: C_2  and  C_3
REMARK    3  A    between atoms: C_3  and  C_5
REMARK    4  A    between atoms: C_3  and  C_6
REMARK    5  A    between atoms: C_20  and  S_21
REMARK    6  A    between atoms: S_21  and  C_22
REMARK    7  A    between atoms: C_22  and  C_24
REMARK    8  A    between atoms: C_22  and  C_26
REMARK    9  A    between atoms: C_24  and  C_25
REMARK   10  A    between atoms: N_28  and  C_29
REMARK   11  A    between atoms: C_34  and  C_35
REMARK                            x       y       z     vdW  Elec       q    Type
REMARK                         _______ _______ _______ _____ _____    ______ ____
ROOT
ATOM      1  C   UNL     1      -8.554   2.744   0.424  0.00  0.00    +0.196 C 
ATOM      2  C   UNL     1      -7.040   2.763   0.410  0.00  0.00    +0.252 C 
ATOM      3  O   UNL     1      -6.317   3.734   0.483  0.00  0.00    -0.272 OA
ATOM      4  N   UNL     1      -6.663   1.469   0.299  0.00  0.00    -0.200 N 
ATOM      5  C   UNL     1      -7.777   0.648   0.237  0.00  0.00    +0.139 C 
ATOM      6  N   UNL     1      -8.893   1.320   0.298  0.00  0.00    -0.255 NA
ATOM      7  C   UNL     1      -7.540  -0.807   0.122  0.00  0.00    +0.041 A 
ATOM      8  C   UNL     1      -8.595  -1.712   0.060  0.00  0.00    +0.013 A 
ATOM      9  C   UNL     1      -8.328  -3.061  -0.046  0.00  0.00    +0.001 A 
ATOM     10  C   UNL     1      -7.019  -3.518  -0.091  0.00  0.00    +0.002 A 
ATOM     11  C   UNL     1      -5.962  -2.637  -0.032  0.00  0.00    +0.028 A 
ATOM     12  C   UNL     1      -6.208  -1.266   0.077  0.00  0.00    +0.077 A 
ATOM     13  N   UNL     1      -5.191  -0.370   0.139  0.00  0.00    -0.225 NA
ATOM     14  C   UNL     1      -5.402   0.914   0.241  0.00  0.00    +0.170 C 
ENDROOT
BRANCH   1  15
ATOM     15  C   UNL     1      -9.111   3.528  -0.766  0.00  0.00    +0.019 C 
ATOM     16  C   UNL     1      -8.632   4.979  -0.691  0.00  0.00    +0.010 C 
BRANCH  15  18
ATOM     17  C   UNL     1     -11.197   4.169  -1.983  0.00  0.00    +0.004 C 
ATOM     18  C   UNL     1     -10.640   3.493  -0.728  0.00  0.00    +0.002 C 
ENDBRANCH  15  18
ENDBRANCH   1  15
BRANCH  14  19
ATOM     19  S   UNL     1      -4.008   1.990   0.315  0.00  0.00    -0.077 S 
BRANCH  19  20
ATOM     20  C   UNL     1      -2.673   0.790   0.083  0.00  0.00    +0.140 C 
BRANCH  20  21
ATOM     21  C   UNL     1      -1.345   1.468   0.302  0.00  0.00    +0.231 C 
ATOM     22  O   UNL     1      -1.261   2.676   0.226  0.00  0.00    -0.274 OA
ATOM     23  N   UNL     1      -0.251   0.733   0.582  0.00  0.00    -0.284 N 
ATOM     24  H   UNL     1      -0.301  -0.236   0.571  0.00  0.00    +0.155 HD
BRANCH  23  25
ATOM     25  C   UNL     1       0.960   1.366   0.882  0.00  0.00    +0.036 A 
ATOM     26  C   UNL     1       1.290   2.566   0.265  0.00  0.00    +0.023 A 
ATOM     27  C   UNL     1       2.486   3.189   0.564  0.00  0.00    +0.002 A 
ATOM     28  C   UNL     1       3.354   2.620   1.477  0.00  0.00    +0.000 A 
ATOM     29  C   UNL     1       3.029   1.425   2.093  0.00  0.00    +0.005 A 
ATOM     30  C   UNL     1       1.832   0.800   1.802  0.00  0.00    -0.029 A 
ATOM     31  C   UNL     1       1.476  -0.498   2.479  0.00  0.00    +0.045 C 
ENDBRANCH  23  25
ENDBRANCH  20  21
BRANCH  20  32
ATOM     32  C   UNL     1      -2.732   0.231  -1.340  0.00  0.00    +0.020 C 
ATOM     33  C   UNL     1      -1.668  -0.857  -1.504  0.00  0.00    +0.005 C 
ENDBRANCH  20  32
ENDBRANCH  19  20
ENDBRANCH  14  19
TORSDOF 7
