REMARK  Name = ZINC44699932
REMARK  14 active torsions:
REMARK  status: ('A' for Active; 'I' for Inactive)
REMARK    1  A    between atoms: C_1  and  C_2
REMARK    2  A    between atoms: C_2  and  C_3
REMARK    3  A    between atoms: C_3  and  N_4
REMARK    4  A    between atoms: C_5  and  C_7
REMARK    5  A    between atoms: C_7  and  C_8
REMARK    6  A    between atoms: C_8  and  C_9
REMARK    7  A    between atoms: C_9  and  C_10
REMARK    8  A    between atoms: C_14  and  C_39
REMARK    9  A    between atoms: C_15  and  C_38
REMARK   10  A    between atoms: C_16  and  O_37
REMARK   11  A    between atoms: C_23  and  O_36
REMARK   12  A    between atoms: C_26  and  C_35
REMARK   13  A    between atoms: C_27  and  C_34
REMARK   14  A    between atoms: C_30  and  O_33
REMARK                            x       y       z     vdW  Elec       q    Type
REMARK                         _______ _______ _______ _____ _____    ______ ____
ROOT
ATOM      1  C   UNL     1      -5.412  -6.997   0.187  0.00  0.00    -0.002 C 
ATOM      2  C   UNL     1      -6.369  -6.862  -1.018  0.00  0.00    +0.005 C 
ATOM      3  C   UNL     1      -6.966  -8.270  -1.219  0.00  0.00    +0.008 C 
ATOM      4  C   UNL     1      -5.826  -9.231  -0.790  0.00  0.00    -0.019 C 
ATOM      5  C   UNL     1      -5.216  -8.493   0.414  0.00  0.00    +0.002 C 
ATOM      6  C   UNL     1      -3.834  -8.935   0.797  0.00  0.00    +0.122 C 
ATOM      7  C   UNL     1      -2.902  -9.178  -0.385  0.00  0.00    +0.036 C 
ATOM      8  C   UNL     1      -3.556 -10.112  -1.396  0.00  0.00    +0.004 C 
ATOM      9  C   UNL     1      -4.861  -9.519  -1.920  0.00  0.00    +0.028 C 
ATOM     10  C   UNL     1      -4.595  -8.386  -2.890  0.00  0.00    +0.119 C 
ATOM     11  C   UNL     1      -3.762  -8.921  -4.065  0.00  0.00    +0.039 C 
ATOM     12  C   UNL     1      -2.414  -9.463  -3.589  0.00  0.00    -0.022 C 
ATOM     13  C   UNL     1      -2.588 -10.506  -2.502  0.00  0.00    -0.023 C 
ATOM     14  C   UNL     1      -1.244 -10.931  -1.915  0.00  0.00    +0.010 C 
ATOM     15  C   UNL     1      -0.306  -9.799  -1.558  0.00  0.00    +0.032 C 
ATOM     16  C   UNL     1      -0.183  -8.736  -2.637  0.00  0.00    +0.115 C 
ATOM     17  C   UNL     1      -1.540  -8.295  -3.158  0.00  0.00    +0.038 C 
ATOM     18  C   UNL     1      -3.168 -11.779  -3.180  0.00  0.00    +0.012 C 
ATOM     19  C   UNL     1      -1.767 -10.147  -4.814  0.00  0.00    +0.012 C 
ATOM     20  C   UNL     1      -6.117  -8.858   1.630  0.00  0.00    +0.014 C 
ATOM     21  C   UNL     1      -6.459 -10.566  -0.301  0.00  0.00    +0.012 C 
ENDROOT
BRANCH  16  22
ATOM     22  O   UNL     1       0.670  -9.181  -3.689  0.00  0.00    -0.392 OA
ATOM     23  H   UNL     1       1.570  -9.388  -3.405  0.00  0.00    +0.210 HD
ENDBRANCH  16  22
BRANCH  10  24
ATOM     24  O   UNL     1      -5.809  -7.903  -3.482  0.00  0.00    -0.391 OA
ATOM     25  H   UNL     1      -5.680  -7.178  -4.109  0.00  0.00    +0.210 HD
ENDBRANCH  10  24
BRANCH   6  26
ATOM     26  O   UNL     1      -3.927 -10.151   1.557  0.00  0.00    -0.391 OA
ATOM     27  H   UNL     1      -3.073 -10.503   1.843  0.00  0.00    +0.210 HD
ENDBRANCH   6  26
BRANCH   1  28
ATOM     28  C   UNL     1      -4.118  -6.237  -0.066  0.00  0.00    +0.004 C 
BRANCH  28  29
ATOM     29  C   UNL     1      -4.419  -4.741  -0.178  0.00  0.00    +0.009 C 
BRANCH  29  30
ATOM     30  C   UNL     1      -3.118  -3.977  -0.433  0.00  0.00    +0.096 C 
BRANCH  30  32
ATOM     31  N   UNL     1      -2.414  -1.629  -0.768  0.00  0.00    -0.315 N 
ATOM     32  C   UNL     1      -3.415  -2.503  -0.542  0.00  0.00    +0.213 C 
ATOM     33  O   UNL     1      -4.554  -2.104  -0.428  0.00  0.00    -0.276 OA
ATOM     34  H   UNL     1      -1.502  -1.949  -0.859  0.00  0.00    +0.149 HD
BRANCH  31  35
ATOM     35  C   UNL     1      -2.702  -0.197  -0.875  0.00  0.00    +0.104 C 
BRANCH  35  37
ATOM     36  C   UNL     1      -1.702   2.063  -1.241  0.00  0.00    +0.005 C 
ATOM     37  C   UNL     1      -1.401   0.567  -1.129  0.00  0.00    +0.015 C 
ENDBRANCH  35  37
ENDBRANCH  31  35
ENDBRANCH  30  32
ENDBRANCH  29  30
ENDBRANCH  28  29
ENDBRANCH   1  28
TORSDOF 9
