REMARK  Name = ZINC63406814
REMARK  5 active torsions:
REMARK  status: ('A' for Active; 'I' for Inactive)
REMARK    1  A    between atoms: C_1  and  N_2
REMARK    2  A    between atoms: C_3  and  C_5
REMARK    3  A    between atoms: C_8  and  N_11
REMARK    4  A    between atoms: N_14  and  N_15
REMARK    5  A    between atoms: N_15  and  C_16
REMARK                            x       y       z     vdW  Elec       q    Type
REMARK                         _______ _______ _______ _____ _____    ______ ____
ROOT
ATOM      1  N   UNL     1      -2.830  -4.027  -2.215  0.00  0.00    -0.295 N 
ATOM      2  C   UNL     1      -3.797  -4.787  -2.767  0.00  0.00    +0.316 C 
ATOM      3  O   UNL     1      -4.210  -5.768  -2.179  0.00  0.00    -0.251 OA
ATOM      4  N   UNL     1      -4.306  -4.460  -3.972  0.00  0.00    -0.220 N 
ATOM      5  H   UNL     1      -2.501  -3.245  -2.685  0.00  0.00    +0.151 HD
ATOM      6  H   UNL     1      -5.002  -5.007  -4.369  0.00  0.00    +0.174 HD
ENDROOT
BRANCH   1  10
ATOM      7  C   UNL     1      -1.796  -1.708   0.187  0.00  0.00    +0.075 C 
ATOM      8  C   UNL     1      -0.911  -2.291  -0.916  0.00  0.00    +0.014 C 
ATOM      9  C   UNL     1      -0.863  -3.814  -0.779  0.00  0.00    +0.023 C 
ATOM     10  C   UNL     1      -2.277  -4.383  -0.906  0.00  0.00    +0.075 C 
ATOM     11  C   UNL     1      -3.162  -3.799   0.197  0.00  0.00    +0.023 C 
ATOM     12  C   UNL     1      -3.211  -2.276   0.060  0.00  0.00    +0.014 C 
BRANCH   7  15
ATOM     13  C   UNL     1      -0.753   1.971   0.001  0.00  0.00    +0.128 C 
ATOM     14  N   UNL     1      -0.707   0.512   0.132  0.00  0.00    -0.318 N 
ATOM     15  C   UNL     1      -1.843  -0.208   0.052  0.00  0.00    +0.216 C 
ATOM     16  O   UNL     1      -2.904   0.352  -0.128  0.00  0.00    -0.276 OA
ATOM     17  H   UNL     1       0.142   0.065   0.276  0.00  0.00    +0.148 HD
ENDBRANCH   7  15
ENDBRANCH   1  10
BRANCH   4  18
ATOM     18  N   UNL     1      -3.830  -3.330  -4.650  0.00  0.00    -0.261 N 
ATOM     19  H   UNL     1      -3.079  -2.831  -4.293  0.00  0.00    +0.170 HD
BRANCH  18  20
ATOM     20  C   UNL     1      -4.439  -2.922  -5.842  0.00  0.00    +0.081 A 
ATOM     21  C   UNL     1      -3.670  -2.385  -6.867  0.00  0.00    +0.066 A 
ATOM     22  C   UNL     1      -4.274  -1.982  -8.043  0.00  0.00    +0.042 A 
ATOM     23  C   UNL     1      -5.643  -2.114  -8.201  0.00  0.00    +0.044 A 
ATOM     24  C   UNL     1      -6.410  -2.650  -7.182  0.00  0.00    +0.042 A 
ATOM     25  C   UNL     1      -5.812  -3.059  -6.005  0.00  0.00    +0.066 A 
ATOM     26 CL   UNL     1      -6.775  -3.738  -4.730  0.00  0.00    -0.081 Cl
ATOM     27 CL   UNL     1      -6.397  -1.607  -9.679  0.00  0.00    -0.083 Cl
ATOM     28 CL   UNL     1      -1.954  -2.217  -6.670  0.00  0.00    -0.081 Cl
ENDBRANCH  18  20
ENDBRANCH   4  18
TORSDOF 4
