REMARK  Name = ZINC45772692
REMARK  6 active torsions:
REMARK  status: ('A' for Active; 'I' for Inactive)
REMARK    1  A    between atoms: C_3  and  C_6
REMARK    2  A    between atoms: C_6  and  C_8
REMARK    3  A    between atoms: C_6  and  N_31
REMARK    4  A    between atoms: C_8  and  N_9
REMARK    5  A    between atoms: C_10  and  C_12
REMARK    6  A    between atoms: C_24  and  C_27
REMARK                            x       y       z     vdW  Elec       q    Type
REMARK                         _______ _______ _______ _____ _____    ______ ____
ROOT
ATOM      1  C   UNL     1       7.400  -0.917   2.341  0.00  0.00    +0.078 C 
ATOM      2  C   UNL     1       7.589  -2.055   1.335  0.00  0.00    +0.031 C 
ATOM      3  C   UNL     1       9.070  -2.444   1.284  0.00  0.00    +0.107 C 
ATOM      4  N   UNL     1       9.523  -2.761   2.646  0.00  0.00    -0.314 N 
ATOM      5  C   UNL     1       9.306  -1.772   3.710  0.00  0.00    +0.107 C 
ATOM      6  C   UNL     1       7.823  -1.389   3.734  0.00  0.00    +0.031 C 
ATOM      7  C   UNL     1      10.144  -3.974   2.922  0.00  0.00    +0.142 A 
ATOM      8  C   UNL     1      10.236  -4.954   1.914  0.00  0.00    +0.049 A 
ATOM      9  C   UNL     1      10.841  -6.143   2.172  0.00  0.00    +0.053 A 
ATOM     10  C   UNL     1      11.370  -6.379   3.456  0.00  0.00    +0.178 A 
ATOM     11  N   UNL     1      12.001  -7.400   4.013  0.00  0.00    -0.128 NA
ATOM     12  N   UNL     1      12.280  -7.110   5.236  0.00  0.00    -0.123 NA
ATOM     13  C   UNL     1      11.851  -5.906   5.524  0.00  0.00    +0.258 A 
ATOM     14  N   UNL     1      11.264  -5.404   4.417  0.00  0.00    -0.187 N 
ATOM     15  N   UNL     1      10.642  -4.191   4.117  0.00  0.00    -0.148 NA
ENDROOT
BRANCH   1  17
ATOM     16  N   UNL     1       5.356  -0.055   1.247  0.00  0.00    -0.316 N 
ATOM     17  C   UNL     1       5.949  -0.508   2.369  0.00  0.00    +0.216 C 
ATOM     18  O   UNL     1       5.317  -0.586   3.400  0.00  0.00    -0.276 OA
ATOM     19  H   UNL     1       5.862   0.008   0.422  0.00  0.00    +0.149 HD
BRANCH  16  20
ATOM     20  C   UNL     1       3.946   0.343   1.274  0.00  0.00    +0.096 C 
BRANCH  20  21
ATOM     21  C   UNL     1       3.490   0.702  -0.142  0.00  0.00    +0.016 C 
BRANCH  21  22
ATOM     22  N   UNL     1       4.387   1.723  -0.701  0.00  0.00    +0.387 N 
ATOM     23  C   UNL     1       4.406   2.893   0.186  0.00  0.00    -0.078 C 
ATOM     24  C   UNL     1       5.400   3.926  -0.349  0.00  0.00    -0.019 C 
ATOM     25  C   UNL     1       4.974   4.357  -1.755  0.00  0.00    -0.004 C 
ATOM     26  C   UNL     1       4.885   3.119  -2.652  0.00  0.00    -0.019 C 
ATOM     27  C   UNL     1       3.910   2.115  -2.032  0.00  0.00    -0.078 C 
ATOM     28  H   UNL     1       5.319   1.345  -0.776  0.00  0.00    -0.081 HD
ENDBRANCH  21  22
BRANCH  21  31
ATOM     29  C   UNL     1       2.959  -2.334  -2.162  0.00  0.00    +0.041 A 
ATOM     30  C   UNL     1       2.471  -1.292  -1.340  0.00  0.00    +0.043 A 
ATOM     31  C   UNL     1       3.529  -0.529  -1.010  0.00  0.00    +0.093 A 
ATOM     32  O   UNL     1       4.625  -1.050  -1.586  0.00  0.00    -0.469 OA
ATOM     33  C   UNL     1       4.285  -2.145  -2.286  0.00  0.00    +0.195 A 
ENDBRANCH  21  31
ENDBRANCH  20  21
ENDBRANCH  16  20
ENDBRANCH   1  17
BRANCH  13  34
ATOM     34  C   UNL     1      11.987  -5.207   6.852  0.00  0.00    +0.454 C 
ATOM     35  F   UNL     1      12.930  -5.879   7.638  0.00  0.00    -0.163 F 
ATOM     36  F   UNL     1      12.407  -3.889   6.645  0.00  0.00    -0.163 F 
ATOM     37  F   UNL     1      10.751  -5.206   7.507  0.00  0.00    -0.163 F 
ENDBRANCH  13  34
TORSDOF 6
