REMARK  Name = ZINC08743110
REMARK  9 active torsions:
REMARK  status: ('A' for Active; 'I' for Inactive)
REMARK    1  A    between atoms: C_1  and  C_2
REMARK    2  A    between atoms: C_5  and  C_29
REMARK    3  A    between atoms: C_8  and  C_10
REMARK    4  A    between atoms: N_11  and  N_12
REMARK    5  A    between atoms: C_27  and  O_28
REMARK    6  A    between atoms: C_29  and  C_30
REMARK    7  A    between atoms: C_30  and  C_31
REMARK    8  A    between atoms: C_32  and  C_33
REMARK    9  A    between atoms: C_32  and  C_34
REMARK                            x       y       z     vdW  Elec       q    Type
REMARK                         _______ _______ _______ _____ _____    ______ ____
ROOT
ATOM      1  N   UNL     1      -1.339   7.710   0.164  0.00  0.00    -0.145 N 
ATOM      2  C   UNL     1      -1.542   6.920  -0.912  0.00  0.00    +0.301 A 
ATOM      3  O   UNL     1      -2.261   7.286  -1.828  0.00  0.00    -0.263 OA
ATOM      4  C   UNL     1      -0.907   5.661  -0.955  0.00  0.00    +0.133 A 
ATOM      5  C   UNL     1      -0.096   5.291   0.117  0.00  0.00    +0.107 A 
ATOM      6  C   UNL     1       0.425   3.953  -0.197  0.00  0.00    +0.027 A 
ATOM      7  C   UNL     1       1.274   3.071   0.474  0.00  0.00    +0.027 A 
ATOM      8  C   UNL     1       1.584   1.856  -0.094  0.00  0.00    +0.019 A 
ATOM      9  C   UNL     1       1.057   1.505  -1.330  0.00  0.00    +0.017 A 
ATOM     10  C   UNL     1       0.223   2.367  -2.007  0.00  0.00    +0.027 A 
ATOM     11  C   UNL     1      -0.109   3.599  -1.448  0.00  0.00    +0.049 A 
ATOM     12  N   UNL     1      -0.905   4.636  -1.886  0.00  0.00    -0.349 N 
ATOM     13  H   UNL     1      -1.393   4.646  -2.725  0.00  0.00    +0.166 HD
ATOM     14 BR   UNL     1       2.734   0.659   0.812  0.00  0.00    -0.050 Br
ATOM     15  N   UNL     1       0.063   6.128   1.156  0.00  0.00    -0.193 NA
ATOM     16  C   UNL     1      -0.534   7.294   1.183  0.00  0.00    +0.320 A 
ENDROOT
BRANCH   1  18
ATOM     17  C   UNL     1      -1.248  10.030   0.211  0.00  0.00    +0.110 C 
ATOM     18  N   UNL     1      -1.958   8.965   0.233  0.00  0.00    -0.172 NA
BRANCH  17  25
ATOM     19  C   UNL     1      -0.172  12.596  -0.932  0.00  0.00    +0.008 C 
ATOM     20  C   UNL     1      -1.658  12.249  -0.831  0.00  0.00    -0.001 C 
ATOM     21  C   UNL     1      -2.477  13.534  -0.683  0.00  0.00    +0.034 C 
ATOM     22  C   UNL     1      -2.244  14.143   0.669  0.00  0.00    -0.073 C 
ATOM     23  C   UNL     1      -1.731  13.506   1.672  0.00  0.00    -0.027 C 
ATOM     24  C   UNL     1      -1.287  12.073   1.621  0.00  0.00    +0.036 C 
ATOM     25  C   UNL     1      -1.901  11.375   0.406  0.00  0.00    +0.039 C 
BRANCH  22  26
ATOM     26  C   UNL     1      -2.633  15.584   0.871  0.00  0.00    +0.034 C 
BRANCH  26  27
ATOM     27  C   UNL     1      -1.490  16.491   0.408  0.00  0.00    +0.031 C 
BRANCH  27  28
ATOM     28  C   UNL     1      -1.879  17.932   0.610  0.00  0.00    -0.028 C 
ATOM     29  C   UNL     1      -1.137  18.713   1.356  0.00  0.00    -0.080 C 
ATOM     30  C   UNL     1       0.025  18.138   2.125  0.00  0.00    +0.038 C 
ATOM     31  C   UNL     1      -1.444  20.185   1.444  0.00  0.00    +0.038 C 
ENDBRANCH  27  28
ENDBRANCH  26  27
ENDBRANCH  22  26
ENDBRANCH  17  25
ENDBRANCH   1  18
BRANCH  16  32
ATOM     32  O   UNL     1      -0.347   8.105   2.247  0.00  0.00    -0.478 OA
ATOM     33  H   UNL     1       0.237   7.737   2.924  0.00  0.00    +0.295 HD
ENDBRANCH  16  32
TORSDOF 6
