REMARK  Name = ZINC08954595
REMARK  6 active torsions:
REMARK  status: ('A' for Active; 'I' for Inactive)
REMARK    1  A    between atoms: C_3  and  C_6
REMARK    2  A    between atoms: N_11  and  C_13
REMARK    3  A    between atoms: C_13  and  C_14
REMARK    4  A    between atoms: C_14  and  N_15
REMARK    5  A    between atoms: C_16  and  C_18
REMARK    6  A    between atoms: C_18  and  C_19
REMARK                            x       y       z     vdW  Elec       q    Type
REMARK                         _______ _______ _______ _____ _____    ______ ____
ROOT
ATOM      1  C   UNL     1      -0.281   1.264  -4.889  0.00  0.00    +0.166 C 
ENDROOT
BRANCH   1   7
ATOM      2  C   UNL     1      -2.603   1.407  -7.643  0.00  0.00    +0.126 A 
ATOM      3  C   UNL     1      -2.310   2.641  -8.275  0.00  0.00    +0.038 A 
ATOM      4  C   UNL     1      -1.318   3.414  -7.751  0.00  0.00    +0.074 A 
ATOM      5  C   UNL     1      -0.644   2.938  -6.604  0.00  0.00    +0.267 A 
ATOM      6  O   UNL     1       0.249   3.599  -6.098  0.00  0.00    -0.266 OA
ATOM      7  N   UNL     1      -0.989   1.750  -6.076  0.00  0.00    -0.227 N 
ATOM      8  N   UNL     1      -1.927   1.032  -6.580  0.00  0.00    -0.165 NA
BRANCH   2  11
ATOM      9  C   UNL     1      -5.097  -1.136  -8.493  0.00  0.00    +0.042 A 
ATOM     10  C   UNL     1      -4.049  -0.666  -7.677  0.00  0.00    +0.051 A 
ATOM     11  C   UNL     1      -3.671   0.539  -8.180  0.00  0.00    +0.155 A 
ATOM     12  O   UNL     1      -4.436   0.802  -9.257  0.00  0.00    -0.461 OA
ATOM     13  C   UNL     1      -5.299  -0.208  -9.449  0.00  0.00    +0.196 A 
ENDBRANCH   2  11
ENDBRANCH   1   7
BRANCH   1  14
ATOM     14  C   UNL     1      -0.997   1.758  -3.630  0.00  0.00    +0.127 C 
BRANCH  14  15
ATOM     15  N   UNL     1      -0.288   1.272  -2.443  0.00  0.00    -0.313 N 
ATOM     16  C   UNL     1      -0.742   1.585  -1.213  0.00  0.00    +0.217 C 
ATOM     17  O   UNL     1      -1.736   2.268  -1.088  0.00  0.00    -0.275 OA
ATOM     18  H   UNL     1       0.507   0.726  -2.543  0.00  0.00    +0.149 HD
BRANCH  16  19
ATOM     19  C   UNL     1      -0.013   1.086   0.008  0.00  0.00    +0.130 C 
BRANCH  19  20
ATOM     20  C   UNL     1      -0.718   1.572   1.248  0.00  0.00    -0.039 A 
ATOM     21  C   UNL     1      -0.360   2.779   1.818  0.00  0.00    +0.005 A 
ATOM     22  C   UNL     1      -1.010   3.228   2.952  0.00  0.00    +0.020 A 
ATOM     23  C   UNL     1      -2.012   2.464   3.523  0.00  0.00    +0.041 A 
ATOM     24  C   UNL     1      -2.367   1.253   2.955  0.00  0.00    +0.020 A 
ATOM     25  C   UNL     1      -1.719   0.808   1.817  0.00  0.00    +0.005 A 
ATOM     26 CL   UNL     1      -2.825   3.024   4.951  0.00  0.00    -0.084 Cl
ENDBRANCH  19  20
ENDBRANCH  16  19
ENDBRANCH  14  15
ENDBRANCH   1  14
TORSDOF 6
