REMARK  Name = ZINC01897657
REMARK  11 active torsions:
REMARK  status: ('A' for Active; 'I' for Inactive)
REMARK    1  A    between atoms: C_1  and  C_2
REMARK    2  A    between atoms: C_4  and  C_12
REMARK    3  A    between atoms: C_7  and  O_8
REMARK    4  A    between atoms: O_8  and  C_9
REMARK    5  A    between atoms: C_9  and  C_10
REMARK    6  A    between atoms: C_13  and  C_23
REMARK    7  A    between atoms: N_15  and  C_17
REMARK    8  A    between atoms: C_33  and  C_35
REMARK    9  A    between atoms: C_35  and  C_36
REMARK   10  A    between atoms: C_39  and  O_42
REMARK   11  A    between atoms: O_42  and  C_43
REMARK                            x       y       z     vdW  Elec       q    Type
REMARK                         _______ _______ _______ _____ _____    ______ ____
ROOT
ATOM      1  C   UNL     1       0.029  -2.817  -2.489  0.00  0.00    +0.100 A 
ATOM      2  C   UNL     1       0.717  -4.084  -2.768  0.00  0.00    +0.022 A 
ATOM      3  C   UNL     1       0.443  -4.392  -4.089  0.00  0.00    +0.123 A 
ATOM      4  N   UNL     1      -0.339  -3.416  -4.585  0.00  0.00    -0.239 N 
ATOM      5  N   UNL     1      -0.589  -2.463  -3.594  0.00  0.00    -0.166 NA
ENDROOT
BRANCH   2   6
ATOM      6  C   UNL     1       1.533  -4.864  -1.834  0.00  0.00    +0.032 C 
ATOM      7  C   UNL     1       2.111  -6.027  -2.244  0.00  0.00    +0.082 A 
ATOM      8  C   UNL     1       2.925  -6.934  -1.515  0.00  0.00    +0.287 A 
ATOM      9  O   UNL     1       3.195  -6.716  -0.348  0.00  0.00    -0.265 OA
ATOM     10  N   UNL     1       3.395  -8.034  -2.123  0.00  0.00    -0.170 N 
ATOM     11  C   UNL     1       3.061  -8.232  -3.439  0.00  0.00    +0.201 A 
ATOM     12  S   UNL     1       2.043  -6.827  -3.839  0.00  0.00    -0.044 S 
ATOM     13  N   UNL     1       3.454  -9.263  -4.144  0.00  0.00    -0.181 NA
ATOM     14  C   UNL     1       4.229 -10.207  -3.594  0.00  0.00    +0.296 A 
ATOM     15  O   UNL     1       4.600 -11.170  -4.246  0.00  0.00    -0.264 OA
ATOM     16  C   UNL     1       4.622 -10.053  -2.188  0.00  0.00    +0.132 A 
ATOM     17  N   UNL     1       4.217  -9.021  -1.516  0.00  0.00    -0.161 NA
BRANCH  16  18
ATOM     18  C   UNL     1       5.493 -11.091  -1.529  0.00  0.00    +0.098 C 
BRANCH  18  19
ATOM     19  C   UNL     1       4.749 -12.399  -1.457  0.00  0.00    -0.041 A 
ATOM     20  C   UNL     1       3.962 -12.686  -0.357  0.00  0.00    +0.007 A 
ATOM     21  C   UNL     1       3.279 -13.885  -0.288  0.00  0.00    +0.046 A 
ATOM     22  C   UNL     1       3.383 -14.801  -1.325  0.00  0.00    +0.120 A 
ATOM     23  C   UNL     1       4.172 -14.510  -2.428  0.00  0.00    +0.046 A 
ATOM     24  C   UNL     1       4.849 -13.308  -2.494  0.00  0.00    +0.007 A 
BRANCH  22  25
ATOM     25  O   UNL     1       2.712 -15.981  -1.260  0.00  0.00    -0.495 OA
ATOM     26  C   UNL     1       2.865 -16.876  -2.363  0.00  0.00    +0.277 C 
ENDBRANCH  22  25
ENDBRANCH  18  19
ENDBRANCH  16  18
ENDBRANCH   2   6
BRANCH   1  30
ATOM     27  C   UNL     1      -0.018   1.503   0.010  0.00  0.00    +0.047 C 
ATOM     28  C   UNL     1       0.002  -0.004   0.002  0.00  0.00    -0.008 A 
ATOM     29  C   UNL     1       0.006  -0.686  -1.196  0.00  0.00    +0.017 A 
ATOM     30  C   UNL     1       0.025  -2.081  -1.203  0.00  0.00    +0.003 A 
ATOM     31  C   UNL     1       0.041  -2.781   0.003  0.00  0.00    +0.014 A 
ATOM     32  C   UNL     1       0.037  -2.092   1.198  0.00  0.00    +0.046 A 
ATOM     33  C   UNL     1       0.023  -0.704   1.201  0.00  0.00    +0.124 A 
BRANCH  33  34
ATOM     34  O   UNL     1       0.025  -0.029   2.380  0.00  0.00    -0.488 OA
BRANCH  34  35
ATOM     35  C   UNL     1       0.047  -0.811   3.575  0.00  0.00    +0.256 C 
BRANCH  35  36
ATOM     36  C   UNL     1       0.046   0.103   4.774  0.00  0.00    +0.006 C 
ATOM     37  C   UNL     1      -0.743  -0.149   5.789  0.00  0.00    +0.007 C 
ENDBRANCH  35  36
ENDBRANCH  34  35
ENDBRANCH  33  34
ENDBRANCH   1  30
BRANCH   4  38
ATOM     38  C   UNL     1      -0.833  -3.365  -5.895  0.00  0.00    +0.065 A 
ATOM     39  C   UNL     1      -0.526  -4.379  -6.793  0.00  0.00    +0.028 A 
ATOM     40  C   UNL     1      -1.015  -4.327  -8.084  0.00  0.00    +0.002 A 
ATOM     41  C   UNL     1      -1.808  -3.266  -8.482  0.00  0.00    +0.000 A 
ATOM     42  C   UNL     1      -2.114  -2.255  -7.590  0.00  0.00    +0.002 A 
ATOM     43  C   UNL     1      -1.634  -2.304  -6.296  0.00  0.00    +0.028 A 
ENDBRANCH   4  38
TORSDOF 9
