REMARK  Name = ZINC53114906
REMARK  5 active torsions:
REMARK  status: ('A' for Active; 'I' for Inactive)
REMARK    1  A    between atoms: C_1  and  C_2
REMARK    2  A    between atoms: C_7  and  C_9
REMARK    3  A    between atoms: C_7  and  N_11
REMARK    4  A    between atoms: C_9  and  O_10
REMARK    5  A    between atoms: C_17  and  N_22
REMARK                            x       y       z     vdW  Elec       q    Type
REMARK                         _______ _______ _______ _____ _____    ______ ____
ROOT
ATOM      1  N   UNL     1       1.460  -2.459   0.049  0.00  0.00    -0.321 N 
ATOM      2  C   UNL     1       2.811  -2.172  -0.087  0.00  0.00    +0.120 A 
ATOM      3  C   UNL     1       3.495  -1.576   0.982  0.00  0.00    +0.044 A 
ATOM      4  C   UNL     1       4.822  -1.289   0.863  0.00  0.00    +0.013 A 
ATOM      5  C   UNL     1       5.468  -1.606  -0.350  0.00  0.00    +0.002 A 
ATOM      6  C   UNL     1       6.832  -1.337  -0.538  0.00  0.00    +0.032 A 
ATOM      7  C   UNL     1       7.429  -1.661  -1.737  0.00  0.00    +0.025 A 
ATOM      8  C   UNL     1       6.686  -2.254  -2.764  0.00  0.00    +0.025 A 
ATOM      9  C   UNL     1       5.363  -2.524  -2.603  0.00  0.00    +0.030 A 
ATOM     10  C   UNL     1       4.722  -2.207  -1.393  0.00  0.00    +0.073 A 
ATOM     11  N   UNL     1       3.421  -2.470  -1.216  0.00  0.00    -0.232 NA
ATOM     12  H   UNL     1       0.979  -2.885  -0.678  0.00  0.00    +0.148 HD
ENDROOT
BRANCH   1  18
ATOM     13  C   UNL     1       0.314   1.644   0.611  0.00  0.00    +0.007 C 
ATOM     14  C   UNL     1       0.216   0.137   0.366  0.00  0.00    -0.012 C 
ATOM     15  C   UNL     1      -1.256  -0.267   0.249  0.00  0.00    +0.003 C 
ATOM     16  C   UNL     1      -1.353  -1.774   0.004  0.00  0.00    +0.002 C 
ATOM     17  C   UNL     1      -0.711  -2.523   1.173  0.00  0.00    +0.028 C 
ATOM     18  C   UNL     1       0.761  -2.120   1.290  0.00  0.00    +0.057 C 
ATOM     19  C   UNL     1       0.859  -0.613   1.535  0.00  0.00    +0.031 C 
BRANCH  18  20
ATOM     20  C   UNL     1       1.403  -2.869   2.459  0.00  0.00    +0.181 C 
BRANCH  20  21
ATOM     21  O   UNL     1       1.273  -4.277   2.252  0.00  0.00    -0.393 OA
ATOM     22  H   UNL     1       1.659  -4.816   2.956  0.00  0.00    +0.209 HD
ENDBRANCH  20  21
ENDBRANCH  18  20
ENDBRANCH   1  18
BRANCH   7  23
ATOM     23  N   UNL     1       8.787  -1.395  -1.929  0.00  0.00    -0.358 N 
ATOM     24  H   UNL     1       9.306  -0.984  -1.220  0.00  0.00    +0.142 HD
ATOM     25  H   UNL     1       9.211  -1.622  -2.772  0.00  0.00    +0.142 HD
ENDBRANCH   7  23
TORSDOF 4
