REMARK  Name = ZINC20466562
REMARK  12 active torsions:
REMARK  status: ('A' for Active; 'I' for Inactive)
REMARK    1  A    between atoms: C_1  and  C_2
REMARK    2  A    between atoms: C_4  and  N_30
REMARK    3  A    between atoms: C_8  and  C_29
REMARK    4  A    between atoms: C_11  and  O_28
REMARK    5  A    between atoms: C_13  and  C_17
REMARK    6  A    between atoms: C_17  and  C_19
REMARK    7  A    between atoms: C_17  and  C_20
REMARK    8  A    between atoms: N_22  and  C_23
REMARK    9  A    between atoms: N_22  and  C_24
REMARK   10  A    between atoms: C_24  and  C_25
REMARK   11  A    between atoms: C_25  and  C_26
REMARK   12  A    between atoms: C_31  and  C_33
REMARK                            x       y       z     vdW  Elec       q    Type
REMARK                         _______ _______ _______ _____ _____    ______ ____
ROOT
ATOM      1  C   UNL     1       2.877  -2.746   1.088  0.00  0.00    +0.010 C 
ATOM      2  C   UNL     1       2.775  -1.274   0.686  0.00  0.00    +0.012 C 
ATOM      3  C   UNL     1       2.665  -1.167  -0.836  0.00  0.00    +0.076 C 
ATOM      4  C   UNL     1       2.562   0.306  -1.238  0.00  0.00    +0.023 C 
ATOM      5  C   UNL     1       3.811   1.052  -0.764  0.00  0.00    +0.009 C 
ATOM      6  C   UNL     1       3.922   0.945   0.759  0.00  0.00    -0.027 C 
ATOM      7  C   UNL     1       4.024  -0.528   1.161  0.00  0.00    +0.028 C 
ATOM      8  C   UNL     1       4.134  -0.634   2.683  0.00  0.00    +0.122 C 
ATOM      9  C   UNL     1       5.383   0.112   3.157  0.00  0.00    +0.029 C 
ATOM     10  C   UNL     1       5.281   1.584   2.755  0.00  0.00    +0.007 C 
ATOM     11  C   UNL     1       5.170   1.691   1.233  0.00  0.00    +0.007 C 
ATOM     12  C   UNL     1       2.681   1.565   1.405  0.00  0.00    +0.011 C 
ENDROOT
BRANCH   3  13
ATOM     13  N   UNL     1       1.469  -1.881  -1.290  0.00  0.00    -0.312 N 
ATOM     14  C   UNL     1       1.409  -2.362  -2.548  0.00  0.00    +0.216 C 
ATOM     15  O   UNL     1       2.344  -2.204  -3.303  0.00  0.00    -0.276 OA
ATOM     16  H   UNL     1       0.621  -2.025  -0.605  0.00  0.00    +0.149 HD
BRANCH  14  17
ATOM     17  C   UNL     1       0.178  -3.097  -3.015  0.00  0.00    +0.075 C 
ATOM     18  C   UNL     1      -0.044  -4.330  -2.136  0.00  0.00    +0.013 C 
ATOM     19  C   UNL     1      -1.292  -5.076  -2.611  0.00  0.00    +0.001 C 
ATOM     20  C   UNL     1      -1.104  -5.513  -4.065  0.00  0.00    +0.000 C 
ATOM     21  C   UNL     1      -0.881  -4.280  -4.943  0.00  0.00    +0.001 C 
ATOM     22  C   UNL     1       0.367  -3.534  -4.469  0.00  0.00    +0.013 C 
ENDBRANCH  14  17
ENDBRANCH   3  13
BRANCH   9  23
ATOM     23  C   UNL     1       5.493   0.005   4.680  0.00  0.00    +0.078 C 
ATOM     24  C   UNL     1       4.291   0.694   5.328  0.00  0.00    +0.017 C 
BRANCH  23  25
ATOM     25  C   UNL     1       6.763   0.673   5.139  0.00  0.00    +0.219 C 
ATOM     26  O   UNL     1       6.734   1.814   5.550  0.00  0.00    -0.275 OA
ATOM     27  N   UNL     1       7.932   0.004   5.094  0.00  0.00    -0.303 N 
ATOM     28  C   UNL     1       7.986  -1.335   4.500  0.00  0.00    +0.132 C 
BRANCH  27  29
ATOM     29  C   UNL     1       9.147   0.614   5.638  0.00  0.00    +0.122 C 
BRANCH  29  30
ATOM     30  C   UNL     1       9.287   0.243   7.116  0.00  0.00    +0.137 C 
BRANCH  30  31
ATOM     31  C   UNL     1      10.508   0.856   7.662  0.00  0.00    +0.064 C 
ATOM     32  N   UNL     1      11.451   1.329   8.084  0.00  0.00    -0.197 NA
ENDBRANCH  30  31
ENDBRANCH  29  30
ENDBRANCH  27  29
ENDBRANCH  23  25
ENDBRANCH   9  23
BRANCH   8  33
ATOM     33  O   UNL     1       4.229  -2.010   3.058  0.00  0.00    -0.391 OA
ATOM     34  H   UNL     1       4.316  -2.285   4.120  0.00  0.00    +0.210 HD
ENDBRANCH   8  33
TORSDOF 8
