REMARK  Name = ZINC07127230
REMARK  9 active torsions:
REMARK  status: ('A' for Active; 'I' for Inactive)
REMARK    1  A    between atoms: C_1  and  C_2
REMARK    2  A    between atoms: C_2  and  C_3
REMARK    3  A    between atoms: C_3  and  C_4
REMARK    4  A    between atoms: C_4  and  O_5
REMARK    5  A    between atoms: O_5  and  C_6
REMARK    6  A    between atoms: C_9  and  C_15
REMARK    7  A    between atoms: C_11  and  O_12
REMARK    8  A    between atoms: O_12  and  C_13
REMARK    9  A    between atoms: C_13  and  C_14
REMARK                            x       y       z     vdW  Elec       q    Type
REMARK                         _______ _______ _______ _____ _____    ______ ____
ROOT
ATOM      1  C   UNL     1       1.844  -8.068  -3.111  0.00  0.00    +0.209 C 
ATOM      2  N   UNL     1       0.601  -8.721  -2.661  0.00  0.00    -0.294 N 
ATOM      3  C   UNL     1       0.434  -8.929  -1.299  0.00  0.00    +0.159 C 
ATOM      4  N   UNL     1       1.480  -9.573  -0.637  0.00  0.00    -0.259 N 
ATOM      5  C   UNL     1       2.753  -9.283  -1.119  0.00  0.00    +0.205 A 
ATOM      6  N   UNL     1       2.945  -8.582  -2.288  0.00  0.00    -0.288 N 
ATOM      7  C   UNL     1       4.293  -8.482  -2.482  0.00  0.00    +0.072 A 
ATOM      8  C   UNL     1       5.064  -7.898  -3.481  0.00  0.00    +0.028 A 
ATOM      9  C   UNL     1       6.440  -7.989  -3.350  0.00  0.00    +0.002 A 
ATOM     10  C   UNL     1       7.035  -8.631  -2.277  0.00  0.00    +0.002 A 
ATOM     11  C   UNL     1       6.290  -9.220  -1.272  0.00  0.00    +0.030 A 
ATOM     12  C   UNL     1       4.898  -9.140  -1.382  0.00  0.00    +0.091 A 
ATOM     13  N   UNL     1       3.906  -9.601  -0.594  0.00  0.00    -0.214 NA
ATOM     14  N   UNL     1      -0.641  -8.543  -0.672  0.00  0.00    -0.375 N 
ATOM     15  H   UNL     1      -0.077  -8.998  -3.296  0.00  0.00    +0.151 HD
ATOM     16  H   UNL     1      -1.352  -8.097  -1.159  0.00  0.00    +0.158 HD
ATOM     17  H   UNL     1       1.331 -10.178   0.106  0.00  0.00    +0.158 HD
ATOM     18  H   UNL     1      -0.730  -8.701   0.280  0.00  0.00    +0.158 HD
ENDROOT
BRANCH   1  22
ATOM     19  C   UNL     1       1.514  -3.834  -2.603  0.00  0.00    +0.162 A 
ATOM     20  C   UNL     1       0.980  -4.692  -1.655  0.00  0.00    +0.050 A 
ATOM     21  C   UNL     1       1.089  -6.060  -1.822  0.00  0.00    +0.011 A 
ATOM     22  C   UNL     1       1.728  -6.576  -2.934  0.00  0.00    -0.003 A 
ATOM     23  C   UNL     1       2.263  -5.725  -3.884  0.00  0.00    +0.056 A 
ATOM     24  C   UNL     1       2.153  -4.353  -3.725  0.00  0.00    +0.162 A 
BRANCH  19  25
ATOM     25  O   UNL     1       1.408  -2.488  -2.441  0.00  0.00    -0.488 OA
BRANCH  25  26
ATOM     26  C   UNL     1       0.739  -2.027  -1.265  0.00  0.00    +0.229 C 
BRANCH  26  27
ATOM     27  C   UNL     1       0.718  -0.497  -1.257  0.00  0.00    +0.041 C 
BRANCH  27  29
ATOM     28  C   UNL     1      -0.019   1.526   0.010  0.00  0.00    +0.004 C 
ATOM     29  C   UNL     1       0.002  -0.004   0.002  0.00  0.00    -0.000 C 
ENDBRANCH  27  29
ENDBRANCH  26  27
ENDBRANCH  25  26
ENDBRANCH  19  25
BRANCH  24  30
ATOM     30  O   UNL     1       2.673  -3.515  -4.662  0.00  0.00    -0.489 OA
BRANCH  30  31
ATOM     31  C   UNL     1       3.315  -4.118  -5.787  0.00  0.00    +0.226 C 
ATOM     32  C   UNL     1       3.833  -3.026  -6.725  0.00  0.00    +0.048 C 
ENDBRANCH  30  31
ENDBRANCH  24  30
ENDBRANCH   1  22
TORSDOF 7
