REMARK  Name = ZINC57195544
REMARK  5 active torsions:
REMARK  status: ('A' for Active; 'I' for Inactive)
REMARK    1  A    between atoms: C_3  and  C_8
REMARK    2  A    between atoms: C_8  and  C_14
REMARK    3  A    between atoms: N_16  and  C_17
REMARK    4  A    between atoms: C_17  and  C_18
REMARK    5  A    between atoms: C_21  and  N_24
REMARK                            x       y       z     vdW  Elec       q    Type
REMARK                         _______ _______ _______ _____ _____    ______ ____
ROOT
ATOM      1  C   UNL     1       3.638   2.807  -1.437  0.00  0.00    +0.224 C 
ATOM      2  O   UNL     1       4.590   2.627  -2.165  0.00  0.00    -0.275 OA
ATOM      3  N   UNL     1       2.785   3.822  -1.681  0.00  0.00    -0.310 N 
ATOM      4  H   UNL     1       2.065   4.011  -1.059  0.00  0.00    +0.149 HD
ENDROOT
BRANCH   1   5
ATOM      5  C   UNL     1       3.407   1.895  -0.259  0.00  0.00    +0.072 C 
ATOM      6  C   UNL     1       3.253   2.733   1.012  0.00  0.00    +0.021 C 
ATOM      7  C   UNL     1       4.526   3.550   1.241  0.00  0.00    +0.001 C 
ATOM      8  C   UNL     1       5.718   2.604   1.395  0.00  0.00    +0.000 C 
ATOM      9  C   UNL     1       5.872   1.766   0.124  0.00  0.00    +0.001 C 
ATOM     10  C   UNL     1       4.599   0.949  -0.105  0.00  0.00    +0.021 C 
BRANCH   5  13
ATOM     11  C   UNL     1      -0.010   0.372   0.250  0.00  0.00    +0.003 A 
ATOM     12  C   UNL     1       1.141   1.109   0.456  0.00  0.00    +0.005 A 
ATOM     13  C   UNL     1       2.153   1.091  -0.485  0.00  0.00    -0.030 A 
ATOM     14  C   UNL     1       2.015   0.334  -1.634  0.00  0.00    +0.043 A 
ATOM     15  C   UNL     1       0.863  -0.405  -1.841  0.00  0.00    +0.124 A 
ATOM     16  C   UNL     1      -0.150  -0.386  -0.897  0.00  0.00    +0.038 A 
ATOM     17  F   UNL     1       0.727  -1.144  -2.964  0.00  0.00    -0.205 F 
ENDBRANCH   5  13
ENDBRANCH   1   5
BRANCH   3  18
ATOM     18  C   UNL     1       2.946   4.641  -2.885  0.00  0.00    +0.139 C 
BRANCH  18  19
ATOM     19  C   UNL     1       1.874   5.699  -2.920  0.00  0.00    -0.030 A 
ATOM     20  C   UNL     1       0.664   5.434  -3.535  0.00  0.00    +0.007 A 
ATOM     21  C   UNL     1      -0.321   6.402  -3.569  0.00  0.00    +0.023 A 
ATOM     22  C   UNL     1      -0.095   7.641  -2.985  0.00  0.00    +0.035 A 
ATOM     23  C   UNL     1       1.121   7.904  -2.368  0.00  0.00    +0.023 A 
ATOM     24  C   UNL     1       2.100   6.930  -2.332  0.00  0.00    +0.007 A 
BRANCH  22  25
ATOM     25  N   UNL     1      -1.091   8.624  -3.018  0.00  0.00    -0.270 N 
ATOM     26  C   UNL     1      -2.390   8.269  -2.967  0.00  0.00    +0.301 C 
ATOM     27  O   UNL     1      -2.696   7.105  -2.797  0.00  0.00    -0.253 OA
ATOM     28  N   UNL     1      -3.350   9.205  -3.105  0.00  0.00    -0.313 N 
ATOM     29  H   UNL     1      -0.846   9.561  -3.077  0.00  0.00    +0.156 HD
ATOM     30  H   UNL     1      -3.107  10.134  -3.241  0.00  0.00    +0.146 HD
ATOM     31  H   UNL     1      -4.286   8.949  -3.069  0.00  0.00    +0.146 HD
ENDBRANCH  22  25
ENDBRANCH  18  19
ENDBRANCH   3  18
TORSDOF 5
