REMARK  Name = ZINC40917223
REMARK  12 active torsions:
REMARK  status: ('A' for Active; 'I' for Inactive)
REMARK    1  A    between atoms: C_1  and  C_2
REMARK    2  A    between atoms: C_2  and  O_3
REMARK    3  A    between atoms: O_3  and  C_4
REMARK    4  A    between atoms: C_6  and  C_20
REMARK    5  A    between atoms: C_9  and  O_10
REMARK    6  A    between atoms: O_10  and  C_11
REMARK    7  A    between atoms: C_11  and  C_12
REMARK    8  A    between atoms: C_15  and  C_18
REMARK    9  A    between atoms: C_22  and  C_31
REMARK   10  A    between atoms: C_23  and  C_30
REMARK   11  A    between atoms: C_31  and  O_33
REMARK   12  A    between atoms: O_33  and  C_34
REMARK                            x       y       z     vdW  Elec       q    Type
REMARK                         _______ _______ _______ _____ _____    ______ ____
ROOT
ATOM      1  C   UNL     1       0.614  -1.743   1.153  0.00  0.00    +0.163 A 
ATOM      2  C   UNL     1       0.204  -2.642   0.181  0.00  0.00    +0.055 A 
ATOM      3  C   UNL     1       0.279  -4.002   0.420  0.00  0.00    -0.014 A 
ATOM      4  C   UNL     1       0.764  -4.468   1.628  0.00  0.00    +0.025 A 
ATOM      5  C   UNL     1       1.175  -3.577   2.602  0.00  0.00    +0.063 A 
ATOM      6  C   UNL     1       1.108  -2.212   2.366  0.00  0.00    +0.176 A 
ATOM      7 BR   UNL     1       1.837  -4.219   4.253  0.00  0.00    -0.046 Br
ENDROOT
BRANCH   3   8
ATOM      8  C   UNL     1      -0.168  -4.977  -0.638  0.00  0.00    +0.181 C 
ATOM      9  C   UNL     1      -1.289  -5.825  -0.097  0.00  0.00    +0.082 C 
ATOM     10  C   UNL     1      -1.140  -7.121   0.220  0.00  0.00    +0.020 C 
ATOM     11  N   UNL     1       0.053  -7.781   0.065  0.00  0.00    -0.286 N 
ATOM     12  C   UNL     1       1.042  -7.146  -0.673  0.00  0.00    +0.240 A 
ATOM     13  N   UNL     1       0.950  -5.834  -1.014  0.00  0.00    -0.201 N 
ATOM     14  N   UNL     1       2.103  -5.555  -1.746  0.00  0.00    -0.042 NA
ATOM     15  N   UNL     1       2.783  -6.655  -1.793  0.00  0.00    -0.021 NA
ATOM     16  N   UNL     1       2.163  -7.594  -1.161  0.00  0.00    -0.092 NA
ATOM     17  C   UNL     1      -2.324  -7.877   0.767  0.00  0.00    +0.061 C 
ATOM     18  H   UNL     1       0.200  -8.657   0.455  0.00  0.00    +0.155 HD
BRANCH   9  19
ATOM     19  C   UNL     1      -2.557  -5.229   0.085  0.00  0.00    +0.339 C 
ATOM     20  O   UNL     1      -3.308  -5.096  -0.864  0.00  0.00    -0.245 OA
BRANCH  19  21
ATOM     21  O   UNL     1      -2.935  -4.808   1.310  0.00  0.00    -0.465 OA
ATOM     22  C   UNL     1      -4.230  -4.214   1.420  0.00  0.00    +0.280 C 
ENDBRANCH  19  21
ENDBRANCH   9  19
ENDBRANCH   3   8
BRANCH   1  23
ATOM     23  O   UNL     1       0.540  -0.406   0.919  0.00  0.00    -0.489 OA
BRANCH  23  25
ATOM     24  C   UNL     1       0.015   1.531  -0.428  0.00  0.00    +0.048 C 
ATOM     25  C   UNL     1       0.023   0.003  -0.349  0.00  0.00    +0.226 C 
ENDBRANCH  23  25
ENDBRANCH   1  23
BRANCH   6  26
ATOM     26  O   UNL     1       1.517  -1.334   3.321  0.00  0.00    -0.483 OA
BRANCH  26  27
ATOM     27  C   UNL     1       0.536  -0.896   4.262  0.00  0.00    +0.264 C 
BRANCH  27  28
ATOM     28  C   UNL     1       1.168   0.066   5.235  0.00  0.00    -0.010 A 
ATOM     29  C   UNL     1       1.745  -0.408   6.399  0.00  0.00    +0.007 A 
ATOM     30  C   UNL     1       2.325   0.474   7.291  0.00  0.00    +0.004 A 
ATOM     31  C   UNL     1       2.328   1.829   7.021  0.00  0.00    -0.050 A 
ATOM     32  C   UNL     1       1.752   2.303   5.857  0.00  0.00    +0.004 A 
ATOM     33  C   UNL     1       1.176   1.421   4.962  0.00  0.00    +0.007 A 
ATOM     34  C   UNL     1       2.959   2.791   7.994  0.00  0.00    +0.044 C 
ENDBRANCH  27  28
ENDBRANCH  26  27
ENDBRANCH   6  26
TORSDOF 8
