REMARK  Name = ZINC12483320
REMARK  10 active torsions:
REMARK  status: ('A' for Active; 'I' for Inactive)
REMARK    1  A    between atoms: C_4  and  C_7
REMARK    2  A    between atoms: C_7  and  C_8
REMARK    3  A    between atoms: C_8  and  N_9
REMARK    4  A    between atoms: N_9  and  C_10
REMARK    5  A    between atoms: C_10  and  C_12
REMARK    6  A    between atoms: C_10  and  C_19
REMARK    7  A    between atoms: N_21  and  C_22
REMARK    8  A    between atoms: C_22  and  C_23
REMARK    9  A    between atoms: C_29  and  C_31
REMARK   10  A    between atoms: C_31  and  N_32
REMARK                            x       y       z     vdW  Elec       q    Type
REMARK                         _______ _______ _______ _____ _____    ______ ____
ROOT
ATOM      1  N   UNL     1      -0.463   5.897  -1.684  0.00  0.00    -0.284 N 
ATOM      2  C   UNL     1       0.508   4.965  -1.604  0.00  0.00    +0.238 C 
ATOM      3  O   UNL     1       0.981   4.494  -2.617  0.00  0.00    -0.274 OA
ENDROOT
BRANCH   1   4
ATOM      4  C   UNL     1      -1.103   6.394  -0.464  0.00  0.00    +0.113 C 
BRANCH   4   5
ATOM      5  C   UNL     1      -0.408   7.680  -0.012  0.00  0.00    +0.054 C 
BRANCH   5   9
ATOM      6  C   UNL     1      -2.041   8.943   3.728  0.00  0.00    +0.000 A 
ATOM      7  C   UNL     1      -0.954   8.090   3.701  0.00  0.00    +0.000 A 
ATOM      8  C   UNL     1      -0.425   7.682   2.491  0.00  0.00    +0.004 A 
ATOM      9  C   UNL     1      -0.984   8.126   1.308  0.00  0.00    -0.046 A 
ATOM     10  C   UNL     1      -2.069   8.982   1.334  0.00  0.00    +0.004 A 
ATOM     11  C   UNL     1      -2.600   9.387   2.545  0.00  0.00    +0.000 A 
ENDBRANCH   5   9
ENDBRANCH   4   5
ENDBRANCH   1   4
BRANCH   1  12
ATOM     12  C   UNL     1      -0.879   6.411  -2.991  0.00  0.00    +0.195 C 
BRANCH  12  13
ATOM     13  C   UNL     1      -1.567   5.317  -3.766  0.00  0.00    +0.017 A 
ATOM     14  C   UNL     1      -1.406   3.997  -3.389  0.00  0.00    +0.009 A 
ATOM     15  C   UNL     1      -2.038   2.993  -4.099  0.00  0.00    +0.001 A 
ATOM     16  C   UNL     1      -2.832   3.308  -5.186  0.00  0.00    +0.003 A 
ATOM     17  C   UNL     1      -2.995   4.628  -5.564  0.00  0.00    +0.039 A 
ATOM     18  C   UNL     1      -2.366   5.634  -4.851  0.00  0.00    +0.129 A 
ATOM     19  F   UNL     1      -2.529   6.925  -5.217  0.00  0.00    -0.205 F 
ENDBRANCH  12  13
BRANCH  12  20
ATOM     20  C   UNL     1       0.333   6.881  -3.755  0.00  0.00    +0.238 C 
ATOM     21  O   UNL     1       1.435   6.795  -3.256  0.00  0.00    -0.273 OA
ATOM     22  N   UNL     1       0.191   7.397  -4.992  0.00  0.00    -0.311 N 
ATOM     23  H   UNL     1      -0.690   7.466  -5.390  0.00  0.00    +0.149 HD
BRANCH  22  24
ATOM     24  C   UNL     1       1.369   7.854  -5.734  0.00  0.00    +0.135 C 
BRANCH  24  25
ATOM     25  C   UNL     1       0.934   8.392  -7.099  0.00  0.00    +0.135 C 
ATOM     26  C   UNL     1       2.167   8.875  -7.888  0.00  0.00    +0.035 C 
ATOM     27  C   UNL     1       2.144   8.028  -9.184  0.00  0.00    +0.031 C 
ATOM     28  C   UNL     1       0.663   7.574  -9.248  0.00  0.00    +0.160 C 
ATOM     29  O   UNL     1       0.322   7.341  -7.865  0.00  0.00    -0.375 OA
ENDBRANCH  24  25
ENDBRANCH  22  24
ENDBRANCH  12  20
ENDBRANCH   1  12
BRANCH   2  30
ATOM     30  C   UNL     1       1.007   4.510  -0.257  0.00  0.00    +0.241 C 
BRANCH  30  31
ATOM     31  N   UNL     1       2.054   3.502  -0.439  0.00  0.00    -0.235 N 
ATOM     32  C   UNL     1       1.879   2.141  -0.527  0.00  0.00    +0.090 A 
ATOM     33  C   UNL     1       0.769   1.305  -0.481  0.00  0.00    +0.029 A 
ATOM     34  C   UNL     1       0.931  -0.047  -0.601  0.00  0.00    +0.002 A 
ATOM     35  C   UNL     1       2.197  -0.595  -0.770  0.00  0.00    +0.002 A 
ATOM     36  C   UNL     1       3.301   0.204  -0.818  0.00  0.00    +0.032 A 
ATOM     37  C   UNL     1       3.162   1.593  -0.697  0.00  0.00    +0.113 A 
ATOM     38  N   UNL     1       4.044   2.613  -0.706  0.00  0.00    -0.129 NA
ATOM     39  N   UNL     1       3.432   3.735  -0.558  0.00  0.00    -0.064 NA
ENDBRANCH  30  31
ENDBRANCH   2  30
TORSDOF 10
