REMARK  Name = ZINC48865798
REMARK  5 active torsions:
REMARK  status: ('A' for Active; 'I' for Inactive)
REMARK    1  A    between atoms: C_1  and  C_2
REMARK    2  A    between atoms: C_5  and  C_8
REMARK    3  A    between atoms: C_5  and  N_11
REMARK    4  A    between atoms: C_18  and  C_20
REMARK    5  A    between atoms: C_20  and  O_21
REMARK                            x       y       z     vdW  Elec       q    Type
REMARK                         _______ _______ _______ _____ _____    ______ ____
ROOT
ATOM      1  N   UNL     1      -1.358  -2.098   2.449  0.00  0.00    -0.283 N 
ATOM      2  C   UNL     1      -0.882  -2.424   3.667  0.00  0.00    +0.303 C 
ATOM      3  O   UNL     1       0.117  -3.110   3.765  0.00  0.00    -0.253 OA
ATOM      4  N   UNL     1      -1.513  -1.989   4.776  0.00  0.00    -0.280 N 
ATOM      5  C   UNL     1      -2.731  -1.160   4.802  0.00  0.00    +0.110 C 
ATOM      6  C   UNL     1      -3.381  -1.452   6.178  0.00  0.00    +0.021 C 
ATOM      7  C   UNL     1      -2.132  -1.591   7.088  0.00  0.00    +0.026 C 
ATOM      8  C   UNL     1      -1.103  -2.269   6.160  0.00  0.00    +0.103 C 
ATOM      9  H   UNL     1      -2.155  -1.550   2.371  0.00  0.00    +0.151 HD
ENDROOT
BRANCH   1  14
ATOM     10  C   UNL     1      -0.019   1.526   0.010  0.00  0.00    +0.007 C 
ATOM     11  C   UNL     1       0.002  -0.004   0.002  0.00  0.00    -0.014 C 
ATOM     12  C   UNL     1      -1.433  -0.534   0.013  0.00  0.00    +0.006 C 
ATOM     13  C   UNL     1      -1.413  -2.063   0.004  0.00  0.00    +0.038 C 
ATOM     14  C   UNL     1      -0.673  -2.570   1.244  0.00  0.00    +0.137 C 
ATOM     15  C   UNL     1       0.763  -2.041   1.233  0.00  0.00    +0.038 C 
ATOM     16  C   UNL     1       0.742  -0.511   1.242  0.00  0.00    +0.006 C 
BRANCH  14  17
ATOM     17  C   UNL     1      -0.652  -4.077   1.236  0.00  0.00    +0.379 C 
ATOM     18  O   UNL     1      -0.125  -4.675   0.313  0.00  0.00    -0.244 OA
ATOM     19  O   UNL     1      -1.163  -4.699   2.152  0.00  0.00    -0.244 OA
ENDBRANCH  14  17
ENDBRANCH   1  14
BRANCH   8  20
ATOM     20  C   UNL     1       0.288  -1.688   6.418  0.00  0.00    +0.178 C 
BRANCH  20  21
ATOM     21  O   UNL     1       0.234  -0.263   6.326  0.00  0.00    -0.393 OA
ATOM     22  H   UNL     1       1.084   0.174   6.479  0.00  0.00    +0.209 HD
ENDBRANCH  20  21
ENDBRANCH   8  20
TORSDOF 4
