REMARK  Name = ZINC51093867
REMARK  9 active torsions:
REMARK  status: ('A' for Active; 'I' for Inactive)
REMARK    1  A    between atoms: C_1  and  C_2
REMARK    2  A    between atoms: C_2  and  C_3
REMARK    3  A    between atoms: C_3  and  C_4
REMARK    4  A    between atoms: C_4  and  C_6
REMARK    5  A    between atoms: C_4  and  N_8
REMARK    6  A    between atoms: C_6  and  C_7
REMARK    7  A    between atoms: C_9  and  C_11
REMARK    8  A    between atoms: C_16  and  N_17
REMARK    9  A    between atoms: N_17  and  N_18
REMARK                            x       y       z     vdW  Elec       q    Type
REMARK                         _______ _______ _______ _____ _____    ______ ____
ROOT
ATOM      1  C   UNL     1       2.121  -4.212  -1.570  0.00  0.00    +0.079 A 
ATOM      2  C   UNL     1       3.043  -3.366  -2.197  0.00  0.00    +0.033 A 
ATOM      3  C   UNL     1       3.755  -3.857  -3.278  0.00  0.00    +0.037 A 
ATOM      4  C   UNL     1       3.539  -5.156  -3.704  0.00  0.00    +0.128 A 
ATOM      5  N   UNL     1       2.666  -5.937  -3.099  0.00  0.00    -0.237 NA
ATOM      6  C   UNL     1       1.962  -5.520  -2.057  0.00  0.00    +0.144 A 
ATOM      7 BR   UNL     1       5.014  -2.760  -4.166  0.00  0.00    -0.049 Br
ENDROOT
BRANCH   1   9
ATOM      8  N   UNL     1       1.585  -2.530   0.121  0.00  0.00    -0.308 N 
ATOM      9  C   UNL     1       1.335  -3.741  -0.414  0.00  0.00    +0.248 C 
ATOM     10  O   UNL     1       0.462  -4.445   0.055  0.00  0.00    -0.270 OA
ATOM     11  H   UNL     1       2.282  -1.968  -0.253  0.00  0.00    +0.149 HD
BRANCH   8  12
ATOM     12  C   UNL     1       0.805  -2.062   1.270  0.00  0.00    +0.073 C 
BRANCH  12  13
ATOM     13  C   UNL     1       1.426  -2.599   2.561  0.00  0.00    +0.019 C 
ATOM     14  C   UNL     1       1.309  -4.124   2.587  0.00  0.00    +0.006 C 
ENDBRANCH  12  13
BRANCH  12  15
ATOM     15  C   UNL     1       0.809  -0.532   1.299  0.00  0.00    +0.022 C 
BRANCH  15  17
ATOM     16  C   UNL     1       0.081   1.534   0.097  0.00  0.00    +0.004 C 
ATOM     17  C   UNL     1       0.077   0.004   0.067  0.00  0.00    -0.002 C 
ENDBRANCH  15  17
ENDBRANCH  12  15
ENDBRANCH   8  12
ENDBRANCH   1   9
BRANCH   6  18
ATOM     18  N   UNL     1       1.060  -6.376  -1.450  0.00  0.00    -0.267 N 
ATOM     19  H   UNL     1       0.484  -6.049  -0.742  0.00  0.00    +0.167 HD
BRANCH  18  20
ATOM     20  N   UNL     1       0.983  -7.680  -1.848  0.00  0.00    -0.255 NA
ATOM     21  H   UNL     1       0.284  -8.179  -1.317  0.00  0.00    +0.140 HD
ATOM     22  H   UNL     1       0.800  -7.746  -2.838  0.00  0.00    +0.140 HD
ENDBRANCH  18  20
ENDBRANCH   6  18
TORSDOF 7
