REMARK  Name = ZINC20990375
REMARK  8 active torsions:
REMARK  status: ('A' for Active; 'I' for Inactive)
REMARK    1  A    between atoms: C_1  and  C_2
REMARK    2  A    between atoms: C_16  and  C_17
REMARK    3  A    between atoms: C_17  and  O_19
REMARK    4  A    between atoms: O_19  and  C_20
REMARK    5  A    between atoms: C_20  and  C_22
REMARK    6  A    between atoms: C_20  and  C_23
REMARK    7  A    between atoms: N_25  and  C_26
REMARK    8  A    between atoms: C_32  and  C_34
REMARK                            x       y       z     vdW  Elec       q    Type
REMARK                         _______ _______ _______ _____ _____    ______ ____
ROOT
ATOM      1  C   UNL     1      -3.207  -0.896   3.917  0.00  0.00    +0.046 C 
ATOM      2  C   UNL     1      -2.932   0.577   4.080  0.00  0.00    -0.015 A 
ATOM      3  C   UNL     1      -2.120   1.244   3.160  0.00  0.00    +0.076 A 
ATOM      4  C   UNL     1      -1.919   2.623   3.402  0.00  0.00    +0.116 A 
ATOM      5  N   UNL     1      -1.168   3.371   2.604  0.00  0.00    -0.226 NA
ATOM      6  C   UNL     1      -0.582   2.877   1.551  0.00  0.00    +0.114 A 
ATOM      7  N   UNL     1      -0.703   1.561   1.215  0.00  0.00    -0.296 N 
ATOM      8  C   UNL     1      -1.434   0.713   1.960  0.00  0.00    +0.263 A 
ATOM      9  O   UNL     1      -1.529  -0.463   1.655  0.00  0.00    -0.267 OA
ATOM     10  C   UNL     1      -0.013   1.086   0.008  0.00  0.00    +0.126 C 
ATOM     11  C   UNL     1      -0.754   1.593  -1.227  0.00  0.00    +0.022 C 
ATOM     12  C   UNL     1      -0.226   2.949  -1.665  0.00  0.00    +0.002 C 
ATOM     13  C   UNL     1      -0.502   4.031  -0.637  0.00  0.00    +0.008 C 
ATOM     14  C   UNL     1       0.259   3.763   0.660  0.00  0.00    +0.074 C 
ATOM     15  S   UNL     1      -2.863   2.920   4.875  0.00  0.00    -0.062 S 
ATOM     16  C   UNL     1      -3.477   1.263   5.127  0.00  0.00    +0.102 A 
ENDROOT
BRANCH  16  17
ATOM     17  C   UNL     1      -4.348   0.763   6.192  0.00  0.00    +0.347 C 
ATOM     18  O   UNL     1      -4.673  -0.409   6.212  0.00  0.00    -0.244 OA
BRANCH  17  19
ATOM     19  O   UNL     1      -4.790   1.602   7.152  0.00  0.00    -0.448 OA
BRANCH  19  20
ATOM     20  C   UNL     1      -5.650   1.037   8.176  0.00  0.00    +0.259 C 
ATOM     21  C   UNL     1      -7.111   1.147   7.734  0.00  0.00    +0.062 C 
BRANCH  20  22
ATOM     22  C   UNL     1      -5.458   1.793   9.466  0.00  0.00    +0.254 C 
ATOM     23  O   UNL     1      -4.743   2.772   9.494  0.00  0.00    -0.272 OA
ATOM     24  N   UNL     1      -6.081   1.381  10.588  0.00  0.00    -0.309 N 
ATOM     25  H   UNL     1      -6.730   0.493  10.562  0.00  0.00    +0.149 HD
BRANCH  24  26
ATOM     26  C   UNL     1      -5.895   2.116  11.841  0.00  0.00    +0.076 C 
ATOM     27  C   UNL     1      -6.880   3.285  11.899  0.00  0.00    +0.022 C 
ATOM     28  C   UNL     1      -8.312   2.748  11.830  0.00  0.00    +0.002 C 
ATOM     29  C   UNL     1      -8.563   1.811  13.013  0.00  0.00    +0.000 C 
ATOM     30  C   UNL     1      -7.577   0.642  12.955  0.00  0.00    +0.005 C 
ATOM     31  C   UNL     1      -6.146   1.178  13.024  0.00  0.00    +0.006 C 
ATOM     32  C   UNL     1      -5.160   0.010  12.967  0.00  0.00    +0.009 C 
ENDBRANCH  24  26
ENDBRANCH  20  22
ENDBRANCH  19  20
ENDBRANCH  17  19
ENDBRANCH  16  17
TORSDOF 5
