REMARK  Name = ZINC35033718
REMARK  10 active torsions:
REMARK  status: ('A' for Active; 'I' for Inactive)
REMARK    1  A    between atoms: C_1  and  C_2
REMARK    2  A    between atoms: C_2  and  C_3
REMARK    3  A    between atoms: C_3  and  C_5
REMARK    4  A    between atoms: C_3  and  N_20
REMARK    5  A    between atoms: N_15  and  C_16
REMARK    6  A    between atoms: C_16  and  C_17
REMARK    7  A    between atoms: C_17  and  O_18
REMARK    8  A    between atoms: O_18  and  C_19
REMARK    9  A    between atoms: C_24  and  C_27
REMARK   10  A    between atoms: C_28  and  C_30
REMARK                            x       y       z     vdW  Elec       q    Type
REMARK                         _______ _______ _______ _____ _____    ______ ____
ROOT
ATOM      1  C   UNL     1       2.552   0.537  -1.014  0.00  0.00    -0.001 C 
ENDROOT
BRANCH   1   2
ATOM      2  C   UNL     1       3.348  -0.740  -1.086  0.00  0.00    +0.099 A 
ATOM      3  N   UNL     1       2.732  -1.863  -0.875  0.00  0.00    -0.235 NA
ATOM      4  C   UNL     1       3.383  -3.052  -0.924  0.00  0.00    +0.078 A 
ATOM      5  C   UNL     1       2.720  -4.260  -0.697  0.00  0.00    +0.028 A 
ATOM      6  C   UNL     1       3.420  -5.444  -0.757  0.00  0.00    +0.002 A 
ATOM      7  C   UNL     1       4.780  -5.452  -1.040  0.00  0.00    +0.001 A 
ATOM      8  C   UNL     1       5.456  -4.274  -1.267  0.00  0.00    +0.015 A 
ATOM      9  C   UNL     1       4.766  -3.065  -1.211  0.00  0.00    +0.065 A 
ATOM     10  C   UNL     1       5.434  -1.776  -1.445  0.00  0.00    +0.262 A 
ATOM     11  O   UNL     1       6.623  -1.717  -1.698  0.00  0.00    -0.267 OA
ATOM     12  N   UNL     1       4.673  -0.658  -1.374  0.00  0.00    -0.295 N 
BRANCH  12  13
ATOM     13  C   UNL     1       5.287   0.652  -1.605  0.00  0.00    +0.154 C 
BRANCH  13  14
ATOM     14  C   UNL     1       5.811   1.210  -0.280  0.00  0.00    +0.181 C 
BRANCH  14  15
ATOM     15  O   UNL     1       6.863   0.374   0.206  0.00  0.00    -0.381 OA
ATOM     16  C   UNL     1       7.425   0.809   1.445  0.00  0.00    +0.194 C 
ENDBRANCH  14  15
ENDBRANCH  13  14
ENDBRANCH  12  13
ENDBRANCH   1   2
BRANCH   1  17
ATOM     17  N   UNL     1       1.579   0.571  -2.113  0.00  0.00    +0.388 N 
ATOM     18  C   UNL     1       2.291   0.533  -3.397  0.00  0.00    -0.059 C 
ATOM     19  C   UNL     1       1.276   0.452  -4.541  0.00  0.00    +0.090 C 
ATOM     20  N   UNL     1       0.329   1.570  -4.405  0.00  0.00    -0.298 N 
ATOM     21  C   UNL     1      -0.310   1.781  -3.097  0.00  0.00    +0.057 C 
ATOM     22  C   UNL     1       0.780   1.800  -2.021  0.00  0.00    -0.055 C 
ATOM     23  C   UNL     1      -1.058   3.116  -3.100  0.00  0.00    +0.026 C 
ATOM     24  C   UNL     1       0.056   2.378  -5.449  0.00  0.00    +0.247 C 
ATOM     25  O   UNL     1      -0.643   3.360  -5.290  0.00  0.00    -0.270 OA
ATOM     26  H   UNL     1       0.970  -0.231  -2.046  0.00  0.00    -0.081 HD
BRANCH  24  27
ATOM     27  C   UNL     1       0.607   2.070  -6.785  0.00  0.00    +0.038 A 
ATOM     28  C   UNL     1       0.904   0.751  -7.134  0.00  0.00    +0.014 A 
ATOM     29  C   UNL     1       1.418   0.469  -8.382  0.00  0.00    +0.022 A 
ATOM     30  C   UNL     1       1.639   1.492  -9.290  0.00  0.00    +0.059 A 
ATOM     31  C   UNL     1       1.345   2.803  -8.951  0.00  0.00    +0.060 A 
ATOM     32  C   UNL     1       0.825   3.096  -7.706  0.00  0.00    +0.034 A 
ATOM     33 CL   UNL     1       1.625   4.078 -10.095  0.00  0.00    -0.082 Cl
ATOM     34 CL   UNL     1       2.287   1.129 -10.860  0.00  0.00    -0.082 Cl
ENDBRANCH  24  27
ENDBRANCH   1  17
BRANCH   1  36
ATOM     35  C   UNL     1       2.828   0.588   1.469  0.00  0.00    +0.002 C 
ATOM     36  C   UNL     1       1.813   0.603   0.324  0.00  0.00    -0.011 C 
ENDBRANCH   1  36
TORSDOF 7
