REMARK  Name = ZINC36848113
REMARK  10 active torsions:
REMARK  status: ('A' for Active; 'I' for Inactive)
REMARK    1  A    between atoms: C_1  and  C_2
REMARK    2  A    between atoms: C_6  and  N_8
REMARK    3  A    between atoms: N_8  and  C_9
REMARK    4  A    between atoms: C_9  and  N_11
REMARK    5  A    between atoms: N_11  and  C_12
REMARK    6  A    between atoms: C_12  and  C_13
REMARK    7  A    between atoms: C_16  and  N_19
REMARK    8  A    between atoms: N_22  and  C_23
REMARK    9  A    between atoms: C_23  and  C_24
REMARK   10  A    between atoms: C_23  and  C_25
REMARK                            x       y       z     vdW  Elec       q    Type
REMARK                         _______ _______ _______ _____ _____    ______ ____
ROOT
ATOM      1  C   UNL     1      -0.274  -6.747   4.973  0.00  0.00    -0.030 A 
ATOM      2  C   UNL     1       0.871  -6.879   5.737  0.00  0.00    +0.007 A 
ATOM      3  C   UNL     1       0.788  -7.355   7.031  0.00  0.00    +0.023 A 
ATOM      4  C   UNL     1      -0.447  -7.701   7.564  0.00  0.00    +0.035 A 
ATOM      5  C   UNL     1      -1.595  -7.568   6.794  0.00  0.00    +0.023 A 
ATOM      6  C   UNL     1      -1.506  -7.086   5.502  0.00  0.00    +0.007 A 
ENDROOT
BRANCH   4   7
ATOM      7  N   UNL     1      -0.534  -8.184   8.874  0.00  0.00    -0.269 N 
ATOM      8  C   UNL     1       0.463  -8.936   9.383  0.00  0.00    +0.304 C 
ATOM      9  O   UNL     1       1.387  -9.281   8.673  0.00  0.00    -0.253 OA
ATOM     10  N   UNL     1       0.434  -9.304  10.680  0.00  0.00    -0.297 N 
ATOM     11  H   UNL     1      -1.312  -7.979   9.416  0.00  0.00    +0.156 HD
ATOM     12  H   UNL     1      -0.303  -9.028  11.246  0.00  0.00    +0.151 HD
BRANCH  10  13
ATOM     13  C   UNL     1       1.518 -10.120  11.233  0.00  0.00    +0.068 C 
ATOM     14  C   UNL     1       1.610  -9.890  12.743  0.00  0.00    +0.027 C 
ATOM     15  C   UNL     1       1.233 -11.598  10.959  0.00  0.00    +0.027 C 
ENDBRANCH  10  13
ENDBRANCH   4   7
BRANCH   1  16
ATOM     16  C   UNL     1      -0.180  -6.228   3.561  0.00  0.00    +0.138 C 
BRANCH  16  17
ATOM     17  N   UNL     1      -0.305  -4.768   3.569  0.00  0.00    -0.322 N 
ATOM     18  H   UNL     1      -0.428  -4.296   4.407  0.00  0.00    +0.148 HD
BRANCH  17  19
ATOM     19  C   UNL     1      -0.251  -4.081   2.411  0.00  0.00    +0.135 C 
ATOM     20  S   UNL     1      -0.035  -4.913   0.930  0.00  0.00    -0.019 S 
BRANCH  19  21
ATOM     21  N   UNL     1      -0.365  -2.738   2.418  0.00  0.00    -0.297 N 
ATOM     22  H   UNL     1      -0.407  -2.259   3.260  0.00  0.00    +0.154 HD
BRANCH  21  28
ATOM     23  C   UNL     1      -2.054  -2.368  -2.184  0.00  0.00    +0.044 C 
ATOM     24  C   UNL     1      -1.237  -1.833  -1.038  0.00  0.00    -0.049 A 
ATOM     25  C   UNL     1      -0.544  -0.644  -1.179  0.00  0.00    +0.003 A 
ATOM     26  C   UNL     1       0.207  -0.149  -0.129  0.00  0.00    +0.002 A 
ATOM     27  C   UNL     1       0.268  -0.841   1.065  0.00  0.00    +0.023 A 
ATOM     28  C   UNL     1      -0.426  -2.035   1.210  0.00  0.00    +0.033 A 
ATOM     29  C   UNL     1      -1.184  -2.526   0.155  0.00  0.00    +0.026 A 
ENDBRANCH  21  28
ENDBRANCH  19  21
ENDBRANCH  17  19
ENDBRANCH  16  17
ENDBRANCH   1  16
TORSDOF 7
