REMARK  Name = ZINC44874076
REMARK  10 active torsions:
REMARK  status: ('A' for Active; 'I' for Inactive)
REMARK    1  A    between atoms: C_1  and  C_2
REMARK    2  A    between atoms: C_5  and  S_8
REMARK    3  A    between atoms: S_8  and  N_11
REMARK    4  A    between atoms: N_11  and  C_12
REMARK    5  A    between atoms: N_11  and  C_13
REMARK    6  A    between atoms: C_16  and  C_19
REMARK    7  A    between atoms: N_21  and  C_22
REMARK    8  A    between atoms: C_22  and  C_23
REMARK    9  A    between atoms: C_26  and  C_29
REMARK   10  A    between atoms: C_29  and  N_30
REMARK                            x       y       z     vdW  Elec       q    Type
REMARK                         _______ _______ _______ _____ _____    ______ ____
ROOT
ATOM      1  C   UNL     1       4.043  -6.077  -5.024  0.00  0.00    +0.244 C 
ATOM      2  O   UNL     1       3.348  -6.323  -5.990  0.00  0.00    -0.270 OA
ATOM      3  N   UNL     1       5.385  -6.061  -5.145  0.00  0.00    -0.307 N 
ATOM      4  H   UNL     1       5.939  -5.864  -4.373  0.00  0.00    +0.149 HD
ENDROOT
BRANCH   1   8
ATOM      5  C   UNL     1       2.241  -5.265  -1.265  0.00  0.00    +0.051 A 
ATOM      6  C   UNL     1       1.444  -5.547  -2.371  0.00  0.00    +0.025 A 
ATOM      7  C   UNL     1       2.025  -5.810  -3.591  0.00  0.00    +0.015 A 
ATOM      8  C   UNL     1       3.417  -5.794  -3.718  0.00  0.00    +0.037 A 
ATOM      9  C   UNL     1       4.214  -5.511  -2.605  0.00  0.00    +0.015 A 
ATOM     10  C   UNL     1       3.627  -5.243  -1.390  0.00  0.00    +0.025 A 
BRANCH   5  11
ATOM     11  N   UNL     1       1.651  -4.999  -0.034  0.00  0.00    -0.206 N 
ATOM     12  C   UNL     1       1.950  -5.850   1.120  0.00  0.00    +0.157 C 
BRANCH  11  13
ATOM     13  S   UNL     1       0.610  -3.721   0.127  0.00  0.00    +0.074 S 
ATOM     14  O   UNL     1      -0.309  -4.073   1.151  0.00  0.00    -0.150 OA
ATOM     15  O   UNL     1       0.192  -3.371  -1.185  0.00  0.00    -0.150 OA
BRANCH  13  20
ATOM     16  C   UNL     1       3.818   0.943   2.216  0.00  0.00    +0.044 C 
ATOM     17  C   UNL     1       3.017  -0.222   1.694  0.00  0.00    -0.050 A 
ATOM     18  C   UNL     1       2.892  -0.420   0.332  0.00  0.00    +0.005 A 
ATOM     19  C   UNL     1       2.157  -1.488  -0.147  0.00  0.00    +0.029 A 
ATOM     20  C   UNL     1       1.548  -2.360   0.737  0.00  0.00    +0.109 A 
ATOM     21  C   UNL     1       1.675  -2.163   2.099  0.00  0.00    +0.029 A 
ATOM     22  C   UNL     1       2.413  -1.097   2.578  0.00  0.00    +0.005 A 
ENDBRANCH  13  20
ENDBRANCH  11  13
ENDBRANCH   5  11
ENDBRANCH   1   8
BRANCH   3  23
ATOM     23  C   UNL     1       6.007  -6.341  -6.441  0.00  0.00    +0.139 C 
BRANCH  23  24
ATOM     24  C   UNL     1       7.506  -6.262  -6.307  0.00  0.00    -0.030 A 
ATOM     25  C   UNL     1       8.155  -5.058  -6.511  0.00  0.00    +0.005 A 
ATOM     26  C   UNL     1       9.530  -4.985  -6.388  0.00  0.00    +0.002 A 
ATOM     27  C   UNL     1      10.255  -6.115  -6.061  0.00  0.00    -0.064 A 
ATOM     28  C   UNL     1       9.606  -7.319  -5.857  0.00  0.00    +0.002 A 
ATOM     29  C   UNL     1       8.231  -7.391  -5.976  0.00  0.00    +0.005 A 
BRANCH  27  30
ATOM     30  C   UNL     1      11.754  -6.036  -5.928  0.00  0.00    -0.043 C 
BRANCH  30  31
ATOM     31  N   UNL     1      12.106  -5.709  -4.540  0.00  0.00    +0.382 N 
ATOM     32  C   UNL     1      11.607  -4.367  -4.214  0.00  0.00    -0.078 C 
ATOM     33  C   UNL     1      11.900  -4.053  -2.745  0.00  0.00    -0.019 C 
ATOM     34  C   UNL     1      13.412  -4.109  -2.509  0.00  0.00    -0.004 C 
ATOM     35  C   UNL     1      13.933  -5.488  -2.922  0.00  0.00    -0.019 C 
ATOM     36  C   UNL     1      13.565  -5.749  -4.384  0.00  0.00    -0.078 C 
ATOM     37  H   UNL     1      11.684  -6.383  -3.920  0.00  0.00    -0.081 HD
ENDBRANCH  30  31
ENDBRANCH  27  30
ENDBRANCH  23  24
ENDBRANCH   3  23
TORSDOF 8
