REMARK  Name = ZINC04701132
REMARK  4 active torsions:
REMARK  status: ('A' for Active; 'I' for Inactive)
REMARK    1  A    between atoms: C_4  and  C_7
REMARK    2  A    between atoms: C_8  and  C_9
REMARK    3  A    between atoms: C_14  and  N_15
REMARK    4  A    between atoms: C_17  and  C_20
REMARK                            x       y       z     vdW  Elec       q    Type
REMARK                         _______ _______ _______ _____ _____    ______ ____
ROOT
ATOM      1  C   UNL     1       3.637   3.563   0.073  0.00  0.00    -0.004 A 
ATOM      2  C   UNL     1       3.666   2.183  -0.144  0.00  0.00    +0.015 A 
ATOM      3  C   UNL     1       4.868   1.511  -0.161  0.00  0.00    -0.024 A 
ATOM      4  C   UNL     1       6.065   2.189   0.038  0.00  0.00    +0.033 A 
ATOM      5  C   UNL     1       6.042   3.568   0.257  0.00  0.00    +0.046 A 
ATOM      6  C   UNL     1       4.843   4.256   0.269  0.00  0.00    +0.034 A 
ATOM      7  N   UNL     1       7.159   1.326  -0.016  0.00  0.00    -0.336 N 
ATOM      8  C   UNL     1       6.709  -0.045  -0.269  0.00  0.00    +0.105 C 
ATOM      9  C   UNL     1       5.178   0.045  -0.371  0.00  0.00    +0.064 C 
ATOM     10  H   UNL     1       8.084   1.595   0.097  0.00  0.00    +0.147 HD
ENDROOT
BRANCH   8  11
ATOM     11  C   UNL     1       7.105  -0.944   0.874  0.00  0.00    -0.027 A 
ATOM     12  C   UNL     1       7.097  -0.460   2.169  0.00  0.00    +0.005 A 
ATOM     13  C   UNL     1       7.455  -1.286   3.218  0.00  0.00    +0.000 A 
ATOM     14  C   UNL     1       7.832  -2.593   2.971  0.00  0.00    +0.000 A 
ATOM     15  C   UNL     1       7.845  -3.075   1.675  0.00  0.00    +0.000 A 
ATOM     16  C   UNL     1       7.481  -2.251   0.627  0.00  0.00    +0.005 A 
ENDBRANCH   8  11
BRANCH   6  17
ATOM     17  N   UNL     1       4.830   5.633   0.481  0.00  0.00    -0.357 N 
ATOM     18  H   UNL     1       3.988   6.114   0.494  0.00  0.00    +0.142 HD
ATOM     19  H   UNL     1       5.664   6.111   0.616  0.00  0.00    +0.142 HD
ENDBRANCH   6  17
BRANCH   1  21
ATOM     20  C   UNL     1       1.288   3.745   0.705  0.00  0.00    +0.008 C 
ATOM     21  C   UNL     1       2.355   4.285   0.091  0.00  0.00    +0.010 C 
BRANCH  20  25
ATOM     22  C   UNL     1       1.743   0.247   3.064  0.00  0.00    +0.000 A 
ATOM     23  C   UNL     1       2.756   1.189   3.027  0.00  0.00    +0.001 A 
ATOM     24  C   UNL     1       2.615   2.329   2.263  0.00  0.00    +0.008 A 
ATOM     25  C   UNL     1       1.446   2.530   1.524  0.00  0.00    -0.025 A 
ATOM     26  C   UNL     1       0.427   1.575   1.566  0.00  0.00    +0.008 A 
ATOM     27  C   UNL     1       0.582   0.440   2.335  0.00  0.00    +0.001 A 
ENDBRANCH  20  25
ENDBRANCH   1  21
TORSDOF 4
