REMARK  Name = ZINC46085162
REMARK  12 active torsions:
REMARK  status: ('A' for Active; 'I' for Inactive)
REMARK    1  A    between atoms: C_1  and  C_2
REMARK    2  A    between atoms: C_2  and  C_3
REMARK    3  A    between atoms: C_3  and  C_4
REMARK    4  A    between atoms: C_4  and  N_5
REMARK    5  A    between atoms: N_13  and  N_14
REMARK    6  A    between atoms: C_15  and  C_17
REMARK    7  A    between atoms: C_17  and  O_18
REMARK    8  A    between atoms: O_18  and  C_19
REMARK    9  A    between atoms: C_22  and  C_25
REMARK   10  A    between atoms: C_25  and  C_26
REMARK   11  A    between atoms: C_25  and  C_27
REMARK   12  A    between atoms: C_25  and  C_28
REMARK                            x       y       z     vdW  Elec       q    Type
REMARK                         _______ _______ _______ _____ _____    ______ ____
ROOT
ATOM      1  N   UNL     1      -5.704  -3.635  -2.821  0.00  0.00    -0.203 N 
ATOM      2  C   UNL     1      -6.732  -4.011  -3.607  0.00  0.00    +0.270 C 
ATOM      3  O   UNL     1      -7.769  -4.394  -3.108  0.00  0.00    -0.270 OA
ATOM      4  H   UNL     1      -4.875  -3.329  -3.221  0.00  0.00    +0.177 HD
ENDROOT
BRANCH   1  13
ATOM      5  N   UNL     1      -2.787  -2.571   0.015  0.00  0.00    -0.266 N 
ATOM      6  C   UNL     1      -3.513  -2.843   1.169  0.00  0.00    +0.046 A 
ATOM      7  C   UNL     1      -3.184  -2.727   2.516  0.00  0.00    +0.024 A 
ATOM      8  C   UNL     1      -4.104  -3.071   3.486  0.00  0.00    +0.002 A 
ATOM      9  C   UNL     1      -5.361  -3.533   3.133  0.00  0.00    +0.001 A 
ATOM     10  C   UNL     1      -5.705  -3.655   1.802  0.00  0.00    +0.012 A 
ATOM     11  C   UNL     1      -4.785  -3.311   0.818  0.00  0.00    +0.028 A 
ATOM     12  C   UNL     1      -4.832  -3.322  -0.663  0.00  0.00    +0.153 C 
ATOM     13  N   UNL     1      -5.832  -3.688  -1.427  0.00  0.00    -0.174 NA
ATOM     14  C   UNL     1      -3.508  -2.826  -1.090  0.00  0.00    +0.271 C 
ATOM     15  O   UNL     1      -3.135  -2.678  -2.239  0.00  0.00    -0.268 OA
BRANCH   5  16
ATOM     16  C   UNL     1      -1.413  -2.063   0.004  0.00  0.00    +0.114 C 
BRANCH  16  17
ATOM     17  C   UNL     1      -1.433  -0.534   0.013  0.00  0.00    +0.019 C 
BRANCH  17  19
ATOM     18  C   UNL     1      -0.019   1.526   0.010  0.00  0.00    +0.004 C 
ATOM     19  C   UNL     1       0.002  -0.004   0.002  0.00  0.00    -0.002 C 
ENDBRANCH  17  19
ENDBRANCH  16  17
ENDBRANCH   5  16
ENDBRANCH   1  13
BRANCH   2  20
ATOM     20  C   UNL     1      -6.595  -3.955  -5.107  0.00  0.00    +0.326 C 
BRANCH  20  21
ATOM     21  O   UNL     1      -7.809  -4.400  -5.714  0.00  0.00    -0.483 OA
BRANCH  21  22
ATOM     22  C   UNL     1      -7.852  -4.410  -7.072  0.00  0.00    +0.121 A 
ATOM     23  C   UNL     1      -6.746  -4.007  -7.806  0.00  0.00    +0.046 A 
ATOM     24  C   UNL     1      -6.792  -4.019  -9.186  0.00  0.00    +0.008 A 
ATOM     25  C   UNL     1      -7.940  -4.433  -9.837  0.00  0.00    -0.042 A 
ATOM     26  C   UNL     1      -9.044  -4.835  -9.108  0.00  0.00    +0.008 A 
ATOM     27  C   UNL     1      -9.001  -4.831  -7.728  0.00  0.00    +0.046 A 
BRANCH  25  28
ATOM     28  C   UNL     1      -7.988  -4.445 -11.343  0.00  0.00    -0.013 C 
ATOM     29  C   UNL     1      -6.900  -5.377 -11.881  0.00  0.00    +0.015 C 
ATOM     30  C   UNL     1      -9.359  -4.941 -11.806  0.00  0.00    +0.015 C 
ATOM     31  C   UNL     1      -7.752  -3.029 -11.872  0.00  0.00    +0.015 C 
ENDBRANCH  25  28
ENDBRANCH  21  22
ENDBRANCH  20  21
ENDBRANCH   2  20
TORSDOF 8
