REMARK  Name = ZINC51122687
REMARK  3 active torsions:
REMARK  status: ('A' for Active; 'I' for Inactive)
REMARK    1  A    between atoms: C_3  and  C_9
REMARK    2  A    between atoms: N_7  and  N_8
REMARK    3  A    between atoms: N_11  and  C_12
REMARK                            x       y       z     vdW  Elec       q    Type
REMARK                         _______ _______ _______ _____ _____    ______ ____
ROOT
ATOM      1  C   UNL     1       3.490   2.441   0.391  0.00  0.00    +0.252 C 
ATOM      2  O   UNL     1       4.525   2.114   0.940  0.00  0.00    -0.270 OA
ATOM      3  N   UNL     1       3.450   3.559  -0.361  0.00  0.00    -0.279 N 
ATOM      4  H   UNL     1       2.613   3.848  -0.757  0.00  0.00    +0.155 HD
ENDROOT
BRANCH   3   5
ATOM      5  C   UNL     1       4.617   4.304  -0.571  0.00  0.00    +0.071 A 
ATOM      6  C   UNL     1       5.816   3.657  -0.842  0.00  0.00    +0.065 A 
ATOM      7  C   UNL     1       6.967   4.395  -1.049  0.00  0.00    +0.042 A 
ATOM      8  C   UNL     1       6.925   5.776  -0.985  0.00  0.00    +0.044 A 
ATOM      9  C   UNL     1       5.732   6.424  -0.715  0.00  0.00    +0.042 A 
ATOM     10  C   UNL     1       4.577   5.692  -0.514  0.00  0.00    +0.065 A 
ATOM     11 CL   UNL     1       3.080   6.505  -0.182  0.00  0.00    -0.082 Cl
ATOM     12 CL   UNL     1       8.373   6.700  -1.244  0.00  0.00    -0.083 Cl
ATOM     13 CL   UNL     1       5.870   1.924  -0.922  0.00  0.00    -0.082 Cl
ENDBRANCH   3   5
BRANCH   1  16
ATOM     14  C   UNL     1      -0.053   1.228   0.198  0.00  0.00    +0.021 A 
ATOM     15  C   UNL     1       1.054   2.041   0.025  0.00  0.00    +0.018 A 
ATOM     16  C   UNL     1       2.280   1.615   0.547  0.00  0.00    +0.078 A 
ATOM     17  C   UNL     1       2.336   0.384   1.223  0.00  0.00    +0.144 A 
ATOM     18  N   UNL     1       1.246  -0.355   1.360  0.00  0.00    -0.239 NA
ATOM     19  C   UNL     1       0.081   0.029   0.875  0.00  0.00    +0.113 A 
ATOM     20  N   UNL     1       3.537  -0.059   1.747  0.00  0.00    -0.267 N 
ATOM     21  H   UNL     1       4.319   0.515   1.720  0.00  0.00    +0.167 HD
BRANCH  20  22
ATOM     22  N   UNL     1       3.622  -1.304   2.303  0.00  0.00    -0.255 NA
ATOM     23  H   UNL     1       4.555  -1.486   2.641  0.00  0.00    +0.140 HD
ATOM     24  H   UNL     1       2.942  -1.418   3.039  0.00  0.00    +0.140 HD
ENDBRANCH  20  22
ENDBRANCH   1  16
TORSDOF 3
