REMARK  Name = ZINC17724752
REMARK  2 active torsions:
REMARK  status: ('A' for Active; 'I' for Inactive)
REMARK    1  A    between atoms: C_1  and  S_2
REMARK    2  A    between atoms: S_2  and  C_3
REMARK                            x       y       z     vdW  Elec       q    Type
REMARK                         _______ _______ _______ _____ _____    ______ ____
ROOT
ATOM      1  C   UNL     1      -1.702  -0.454   0.016  0.00  0.00    +0.112 A 
ATOM      2  C   UNL     1      -2.085  -1.826   0.018  0.00  0.00    +0.064 A 
ATOM      3  C   UNL     1      -1.221  -3.011   0.009  0.00  0.00    +0.072 A 
ATOM      4  C   UNL     1      -1.867  -4.239   0.013  0.00  0.00    +0.085 A 
ATOM      5  C   UNL     1      -1.165  -5.448   0.006  0.00  0.00    +0.200 A 
ATOM      6  C   UNL     1       0.221  -5.416  -0.007  0.00  0.00    +0.122 A 
ATOM      7  C   UNL     1       0.863  -4.175  -0.011  0.00  0.00    +0.253 A 
ATOM      8  N   UNL     1       0.172  -3.028  -0.003  0.00  0.00    -0.321 N 
ATOM      9  O   UNL     1       2.084  -4.135  -0.022  0.00  0.00    -0.268 OA
ATOM     10  O   UNL     1      -1.828  -6.630   0.011  0.00  0.00    -0.286 OA
ATOM     11  S   UNL     1      -3.597  -3.840   0.029  0.00  0.00    -0.063 S 
ATOM     12  C   UNL     1      -3.472  -2.071   0.030  0.00  0.00    +0.117 A 
ATOM     13  N   UNL     1      -4.347  -1.083   0.039  0.00  0.00    -0.207 NA
ATOM     14  C   UNL     1      -3.933   0.178   0.037  0.00  0.00    +0.215 A 
ATOM     15  N   UNL     1      -2.640   0.479   0.030  0.00  0.00    -0.208 NA
ATOM     16  N   UNL     1      -4.867   1.198   0.047  0.00  0.00    -0.327 N 
ATOM     17  H   UNL     1      -5.814   0.989   0.055  0.00  0.00    +0.145 HD
ATOM     18  H   UNL     1      -4.574   2.123   0.045  0.00  0.00    +0.145 HD
ATOM     19  H   UNL     1       0.654  -2.186  -0.007  0.00  0.00    +0.169 HD
ENDROOT
BRANCH   1  21
ATOM     20  C   UNL     1      -0.022   1.810   0.012  0.00  0.00    +0.091 C 
ATOM     21  S   UNL     1       0.002  -0.004   0.002  0.00  0.00    -0.108 S 
ENDBRANCH   1  21
TORSDOF 1
