REMARK  Name = ZINC14950577
REMARK  9 active torsions:
REMARK  status: ('A' for Active; 'I' for Inactive)
REMARK    1  A    between atoms: C_1  and  N_63
REMARK    2  A    between atoms: C_2  and  N_63
REMARK    3  A    between atoms: C_3  and  C_4
REMARK    4  A    between atoms: C_3  and  N_63
REMARK    5  A    between atoms: C_9  and  C_10
REMARK    6  A    between atoms: C_13  and  N_16
REMARK    7  A    between atoms: N_21  and  C_28
REMARK    8  A    between atoms: C_23  and  C_24
REMARK    9  A    between atoms: C_32  and  N_34
REMARK                            x       y       z     vdW  Elec       q    Type
REMARK                         _______ _______ _______ _____ _____    ______ ____
ROOT
ATOM      1  N   UNL     1      -2.727   7.783  -1.440  0.00  0.00    -0.266 N 
ATOM      2  C   UNL     1      -2.759   8.915  -0.522  0.00  0.00    +0.119 C 
ATOM      3  C   UNL     1      -2.111   8.599   0.827  0.00  0.00    +0.059 C 
ATOM      4  C   UNL     1      -0.796   7.906   0.581  0.00  0.00    +0.016 A 
ATOM      5  C   UNL     1      -0.581   7.142  -0.563  0.00  0.00    +0.133 A 
ATOM      6  N   UNL     1       0.673   6.642  -0.484  0.00  0.00    -0.227 N 
ATOM      7  N   UNL     1       1.242   7.117   0.710  0.00  0.00    -0.161 NA
ATOM      8  C   UNL     1       0.358   7.866   1.334  0.00  0.00    +0.170 A 
ATOM      9  C   UNL     1      -1.645   6.980  -1.566  0.00  0.00    +0.270 C 
ATOM     10  O   UNL     1      -1.555   6.168  -2.467  0.00  0.00    -0.268 OA
ENDROOT
BRANCH   1  14
ATOM     11  C   UNL     1      -6.094   6.990  -3.764  0.00  0.00    -0.018 A 
ATOM     12  C   UNL     1      -5.719   6.105  -2.754  0.00  0.00    +0.010 A 
ATOM     13  C   UNL     1      -4.605   6.370  -1.986  0.00  0.00    +0.024 A 
ATOM     14  C   UNL     1      -3.855   7.517  -2.219  0.00  0.00    +0.037 A 
ATOM     15  C   UNL     1      -4.231   8.403  -3.222  0.00  0.00    +0.024 A 
ATOM     16  C   UNL     1      -5.341   8.140  -3.996  0.00  0.00    +0.010 A 
BRANCH  11  22
ATOM     17  C   UNL     1      -8.326   7.638  -4.667  0.00  0.00    -0.056 A 
ATOM     18  C   UNL     1      -9.436   7.372  -5.443  0.00  0.00    +0.002 A 
ATOM     19  C   UNL     1      -9.528   6.179  -6.137  0.00  0.00    +0.000 A 
ATOM     20  C   UNL     1      -8.507   5.249  -6.061  0.00  0.00    +0.001 A 
ATOM     21  C   UNL     1      -7.391   5.506  -5.293  0.00  0.00    +0.009 A 
ATOM     22  C   UNL     1      -7.292   6.707  -4.592  0.00  0.00    -0.017 A 
BRANCH  17  23
ATOM     23  C   UNL     1      -8.229   8.936  -3.907  0.00  0.00    -0.043 C 
BRANCH  23  26
ATOM     24  C   UNL     1      -8.008   9.825  -1.666  0.00  0.00    -0.096 C 
ATOM     25  C   UNL     1      -9.860   8.364  -2.211  0.00  0.00    -0.096 C 
ATOM     26  N   UNL     1      -8.435   8.661  -2.469  0.00  0.00    +0.379 N 
ATOM     27  H   UNL     1      -7.871   7.846  -2.202  0.00  0.00    -0.082 HD
ENDBRANCH  23  26
ENDBRANCH  17  23
ENDBRANCH  11  22
ENDBRANCH   1  14
BRANCH   6  28
ATOM     28  C   UNL     1       1.292   5.808  -1.423  0.00  0.00    +0.068 A 
ATOM     29  C   UNL     1       1.159   6.069  -2.781  0.00  0.00    +0.028 A 
ATOM     30  C   UNL     1       1.774   5.250  -3.708  0.00  0.00    +0.004 A 
ATOM     31  C   UNL     1       2.515   4.162  -3.288  0.00  0.00    +0.023 A 
ATOM     32  C   UNL     1       2.653   3.895  -1.932  0.00  0.00    +0.027 A 
ATOM     33  C   UNL     1       2.041   4.720  -0.998  0.00  0.00    +0.050 A 
BRANCH  32  34
ATOM     34  N   UNL     1       3.407   2.798  -1.508  0.00  0.00    -0.358 N 
ATOM     35  H   UNL     1       3.834   2.223  -2.161  0.00  0.00    +0.142 HD
ATOM     36  H   UNL     1       3.503   2.612  -0.561  0.00  0.00    +0.142 HD
ENDBRANCH  32  34
ENDBRANCH   6  28
BRANCH   8  37
ATOM     37  C   UNL     1       0.573   8.565   2.652  0.00  0.00    +0.436 C 
ATOM     38  F   UNL     1       1.899   8.389   3.062  0.00  0.00    -0.164 F 
ATOM     39  F   UNL     1       0.307   9.930   2.505  0.00  0.00    -0.164 F 
ATOM     40  F   UNL     1      -0.288   8.023   3.613  0.00  0.00    -0.164 F 
ENDBRANCH   8  37
TORSDOF 7
