REMARK  Name = ZINC12246356
REMARK  9 active torsions:
REMARK  status: ('A' for Active; 'I' for Inactive)
REMARK    1  A    between atoms: C_1  and  N_69
REMARK    2  A    between atoms: C_2  and  C_3
REMARK    3  A    between atoms: C_2  and  N_69
REMARK    4  A    between atoms: C_7  and  O_9
REMARK    5  A    between atoms: O_9  and  C_10
REMARK    6  A    between atoms: C_10  and  C_11
REMARK    7  A    between atoms: C_18  and  C_20
REMARK    8  A    between atoms: C_28  and  C_29
REMARK    9  A    between atoms: C_28  and  N_69
REMARK                            x       y       z     vdW  Elec       q    Type
REMARK                         _______ _______ _______ _____ _____    ______ ____
ROOT
ATOM      1  C   UNL     1       6.482  -3.907   0.393  0.00  0.00    -0.060 A 
ATOM      2  C   UNL     1       7.674  -3.372   0.844  0.00  0.00    +0.002 A 
ATOM      3  C   UNL     1       7.818  -2.002   0.964  0.00  0.00    +0.004 A 
ATOM      4  C   UNL     1       6.771  -1.164   0.630  0.00  0.00    +0.045 A 
ATOM      5  C   UNL     1       5.572  -1.700   0.183  0.00  0.00    +0.121 A 
ATOM      6  C   UNL     1       5.430  -3.075   0.063  0.00  0.00    +0.047 A 
ENDROOT
BRANCH   1   7
ATOM      7  C   UNL     1       6.329  -5.401   0.263  0.00  0.00    -0.043 C 
BRANCH   7   9
ATOM      8  C   UNL     1       8.180  -5.596  -1.286  0.00  0.00    -0.095 C 
ATOM      9  N   UNL     1       6.728  -5.803  -1.102  0.00  0.00    +0.383 N 
ATOM     10  H   UNL     1       6.220  -5.226  -1.782  0.00  0.00    -0.081 HD
BRANCH   9  11
ATOM     11  C   UNL     1       6.388  -7.224  -1.330  0.00  0.00    -0.043 C 
BRANCH  11  12
ATOM     12  C   UNL     1       6.599  -7.547  -2.787  0.00  0.00    -0.063 A 
ATOM     13  C   UNL     1       7.837  -8.024  -3.212  0.00  0.00    +0.004 A 
ATOM     14  C   UNL     1       8.062  -8.325  -4.520  0.00  0.00    +0.028 A 
ATOM     15  C   UNL     1       7.032  -8.155  -5.462  0.00  0.00    +0.071 A 
ATOM     16  C   UNL     1       5.774  -7.670  -5.027  0.00  0.00    +0.001 A 
ATOM     17  C   UNL     1       5.577  -7.373  -3.668  0.00  0.00    +0.011 A 
ATOM     18  C   UNL     1       4.744  -7.500  -5.971  0.00  0.00    +0.011 A 
ATOM     19  C   UNL     1       5.007  -7.813  -7.274  0.00  0.00    +0.020 A 
ATOM     20  C   UNL     1       6.266  -8.285  -7.636  0.00  0.00    +0.111 A 
ATOM     21  N   UNL     1       7.223  -8.443  -6.753  0.00  0.00    -0.255 NA
ENDBRANCH  11  12
ENDBRANCH   9  11
ENDBRANCH   7   9
ENDBRANCH   1   7
BRANCH   5  22
ATOM     22  O   UNL     1       4.539  -0.878  -0.142  0.00  0.00    -0.492 OA
BRANCH  22  23
ATOM     23  C   UNL     1       4.755   0.526   0.007  0.00  0.00    +0.234 C 
BRANCH  23  24
ATOM     24  C   UNL     1       3.491   1.284  -0.404  0.00  0.00    +0.044 C 
ATOM     25  C   UNL     1       3.760   2.789  -0.360  0.00  0.00    +0.010 C 
ATOM     26  C   UNL     1       2.506   3.547  -0.802  0.00  0.00    +0.019 C 
ATOM     27  C   UNL     1       1.360   3.233   0.158  0.00  0.00    +0.108 C 
ATOM     28  N   UNL     1       1.188   1.776   0.238  0.00  0.00    -0.296 N 
ATOM     29  C   UNL     1       2.354   0.944   0.566  0.00  0.00    +0.115 C 
ATOM     30  C   UNL     1      -0.014   1.212   0.009  0.00  0.00    +0.266 C 
ATOM     31  O   UNL     1      -0.996   1.914  -0.142  0.00  0.00    -0.268 OA
BRANCH  30  32
ATOM     32  C   UNL     1      -0.141  -0.254  -0.053  0.00  0.00    +0.145 A 
ATOM     33  C   UNL     1      -1.303  -0.955  -0.146  0.00  0.00    +0.126 A 
ATOM     34  N   UNL     1      -0.983  -2.300  -0.177  0.00  0.00    -0.300 N 
ATOM     35  C   UNL     1      -1.643  -3.507  -0.260  0.00  0.00    +0.100 A 
ATOM     36  C   UNL     1      -0.968  -4.655  -0.263  0.00  0.00    +0.067 A 
ATOM     37  S   UNL     1       0.723  -4.092  -0.144  0.00  0.00    -0.058 S 
ATOM     38  C   UNL     1       0.387  -2.347  -0.099  0.00  0.00    +0.178 A 
ATOM     39  N   UNL     1       0.882  -1.147  -0.032  0.00  0.00    -0.217 NA
ENDBRANCH  30  32
ENDBRANCH  23  24
ENDBRANCH  22  23
ENDBRANCH   5  22
TORSDOF 8
