REMARK  Name = ZINC03173966
REMARK  4 active torsions:
REMARK  status: ('A' for Active; 'I' for Inactive)
REMARK    1  A    between atoms: C_1  and  C_2
REMARK    2  A    between atoms: C_2  and  C_3
REMARK    3  A    between atoms: C_16  and  C_27
REMARK    4  A    between atoms: C_19  and  C_21
REMARK                            x       y       z     vdW  Elec       q    Type
REMARK                         _______ _______ _______ _____ _____    ______ ____
ROOT
ATOM      1  C   UNL     1      -0.080   3.717   0.012  0.00  0.00    +0.124 C 
ATOM      2  C   UNL     1      -0.419   4.535   1.238  0.00  0.00    +0.041 A 
ATOM      3  C   UNL     1       0.458   4.780   2.236  0.00  0.00    -0.015 A 
ATOM      4  C   UNL     1      -0.237   5.585   3.220  0.00  0.00    +0.003 A 
ATOM      5  C   UNL     1       0.157   6.132   4.446  0.00  0.00    +0.010 A 
ATOM      6  C   UNL     1      -0.784   6.861   5.131  0.00  0.00    +0.001 A 
ATOM      7  C   UNL     1      -2.067   7.051   4.643  0.00  0.00    +0.002 A 
ATOM      8  C   UNL     1      -2.483   6.520   3.434  0.00  0.00    +0.026 A 
ATOM      9  C   UNL     1      -1.549   5.777   2.716  0.00  0.00    +0.047 A 
ATOM     10  N   UNL     1      -1.622   5.128   1.517  0.00  0.00    -0.356 N 
ATOM     11  H   UNL     1      -2.406   5.093   0.948  0.00  0.00    +0.166 HD
ATOM     12  C   UNL     1       1.882   4.288   2.269  0.00  0.00    +0.071 C 
ATOM     13  C   UNL     1       2.035   3.138   1.266  0.00  0.00    +0.194 C 
ATOM     14  N   UNL     1       1.379   3.514   0.005  0.00  0.00    -0.275 N 
ATOM     15  C   UNL     1       2.093   3.668  -1.127  0.00  0.00    +0.248 C 
ATOM     16  O   UNL     1       3.260   3.329  -1.161  0.00  0.00    -0.270 OA
ENDROOT
BRANCH  15  17
ATOM     17  C   UNL     1       1.457   4.248  -2.329  0.00  0.00    +0.037 A 
ATOM     18  C   UNL     1       0.133   3.935  -2.642  0.00  0.00    +0.013 A 
ATOM     19  C   UNL     1      -0.456   4.484  -3.762  0.00  0.00    +0.001 A 
ATOM     20  C   UNL     1       0.266   5.333  -4.582  0.00  0.00    +0.000 A 
ATOM     21  C   UNL     1       1.581   5.643  -4.280  0.00  0.00    +0.001 A 
ATOM     22  C   UNL     1       2.180   5.105  -3.160  0.00  0.00    +0.013 A 
ENDBRANCH  15  17
BRANCH  13  23
ATOM     23  C   UNL     1       3.498   2.877   1.015  0.00  0.00    +0.376 C 
ATOM     24  O   UNL     1       4.234   3.790   0.724  0.00  0.00    -0.244 OA
ATOM     25  O   UNL     1       3.984   1.630   1.114  0.00  0.00    -0.244 OA
ENDBRANCH  13  23
BRANCH   1  27
ATOM     26  C   UNL     1      -0.506   1.577  -1.204  0.00  0.00    +0.006 C 
ATOM     27  C   UNL     1      -0.794   2.365   0.075  0.00  0.00    +0.025 C 
ENDBRANCH   1  27
TORSDOF 3
