REMARK  Name = ZINC07393068
REMARK  9 active torsions:
REMARK  status: ('A' for Active; 'I' for Inactive)
REMARK    1  A    between atoms: C_1  and  C_2
REMARK    2  A    between atoms: C_2  and  O_3
REMARK    3  A    between atoms: O_3  and  C_4
REMARK    4  A    between atoms: C_4  and  C_5
REMARK    5  A    between atoms: C_5  and  S_6
REMARK    6  A    between atoms: S_6  and  C_7
REMARK    7  A    between atoms: N_21  and  C_22
REMARK    8  A    between atoms: C_24  and  C_29
REMARK    9  A    between atoms: C_27  and  C_28
REMARK                            x       y       z     vdW  Elec       q    Type
REMARK                         _______ _______ _______ _____ _____    ______ ____
ROOT
ATOM      1  C   UNL     1       1.335   5.813   0.023  0.00  0.00    +0.177 A 
ATOM      2  N   UNL     1       0.770   4.627   0.022  0.00  0.00    -0.221 NA
ATOM      3  C   UNL     1       1.511   3.507   0.007  0.00  0.00    +0.104 A 
ATOM      4  C   UNL     1       1.184   2.074   0.002  0.00  0.00    +0.026 A 
ATOM      5  C   UNL     1      -0.017   1.362   0.009  0.00  0.00    +0.012 A 
ATOM      6  C   UNL     1       0.002  -0.004   0.002  0.00  0.00    +0.001 A 
ATOM      7  C   UNL     1       1.208  -0.691  -0.013  0.00  0.00    +0.002 A 
ATOM      8  C   UNL     1       2.404  -0.009  -0.021  0.00  0.00    +0.026 A 
ATOM      9  C   UNL     1       2.408   1.384  -0.014  0.00  0.00    +0.049 A 
ATOM     10  N   UNL     1       3.427   2.312  -0.018  0.00  0.00    -0.349 N 
ATOM     11  H   UNL     1       4.374   2.099  -0.029  0.00  0.00    +0.166 HD
ATOM     12  C   UNL     1       2.902   3.595  -0.005  0.00  0.00    +0.132 A 
ATOM     13  C   UNL     1       3.496   4.874  -0.003  0.00  0.00    +0.283 A 
ATOM     14  O   UNL     1       4.709   4.998  -0.015  0.00  0.00    -0.265 OA
ATOM     15  N   UNL     1       2.693   5.960   0.011  0.00  0.00    -0.254 N 
ENDROOT
BRANCH  15  16
ATOM     16  C   UNL     1       3.256   7.243   0.013  0.00  0.00    +0.055 A 
ATOM     17  C   UNL     1       3.524   7.887  -1.188  0.00  0.00    +0.030 A 
ATOM     18  C   UNL     1       4.078   9.152  -1.182  0.00  0.00    -0.048 A 
ATOM     19  C   UNL     1       4.367   9.777   0.018  0.00  0.00    +0.004 A 
ATOM     20  C   UNL     1       4.101   9.138   1.215  0.00  0.00    +0.005 A 
ATOM     21  C   UNL     1       3.541   7.875   1.216  0.00  0.00    -0.026 A 
ATOM     22  C   UNL     1       3.246   7.181   2.521  0.00  0.00    +0.046 C 
ATOM     23  C   UNL     1       4.370   9.852  -2.484  0.00  0.00    +0.044 C 
ENDBRANCH  15  16
BRANCH   1  24
ATOM     24  S   UNL     1       0.315   7.250   0.043  0.00  0.00    -0.085 S 
BRANCH  24  25
ATOM     25  C   UNL     1      -1.320   6.475   0.054  0.00  0.00    +0.105 C 
BRANCH  25  26
ATOM     26  C   UNL     1      -2.399   7.560   0.072  0.00  0.00    +0.171 C 
BRANCH  26  27
ATOM     27  O   UNL     1      -3.690   6.948   0.081  0.00  0.00    -0.379 OA
BRANCH  27  29
ATOM     28  C   UNL     1      -6.101   7.117   0.106  0.00  0.00    +0.034 C 
ATOM     29  C   UNL     1      -4.774   7.879   0.098  0.00  0.00    +0.156 C 
ENDBRANCH  27  29
ENDBRANCH  26  27
ENDBRANCH  25  26
ENDBRANCH  24  25
ENDBRANCH   1  24
TORSDOF 6
