REMARK  Name = ZINC13471091
REMARK  14 active torsions:
REMARK  status: ('A' for Active; 'I' for Inactive)
REMARK    1  A    between atoms: C_1  and  N_66
REMARK    2  A    between atoms: C_5  and  C_7
REMARK    3  A    between atoms: C_8  and  O_12
REMARK    4  A    between atoms: O_12  and  C_13
REMARK    5  A    between atoms: C_13  and  C_14
REMARK    6  A    between atoms: C_14  and  C_15
REMARK    7  A    between atoms: C_15  and  C_16
REMARK    8  A    between atoms: C_16  and  C_17
REMARK    9  A    between atoms: C_17  and  C_18
REMARK   10  A    between atoms: C_18  and  C_19
REMARK   11  A    between atoms: C_19  and  O_20
REMARK   12  A    between atoms: O_20  and  C_21
REMARK   13  A    between atoms: C_22  and  C_26
REMARK   14  A    between atoms: C_31  and  N_68
REMARK                            x       y       z     vdW  Elec       q    Type
REMARK                         _______ _______ _______ _____ _____    ______ ____
ROOT
ATOM      1  C   UNL     1      -1.321   0.747  -1.646  0.00  0.00    +0.000 C 
ENDROOT
BRANCH   1   2
ATOM      2  C   UNL     1      -0.719   0.013  -0.446  0.00  0.00    +0.003 C 
BRANCH   2   3
ATOM      3  C   UNL     1      -1.577   0.273   0.794  0.00  0.00    +0.041 C 
BRANCH   3   4
ATOM      4  C   UNL     1      -0.975  -0.461   1.994  0.00  0.00    +0.231 C 
BRANCH   4   5
ATOM      5  O   UNL     1      -1.777  -0.218   3.151  0.00  0.00    -0.475 OA
BRANCH   5   7
ATOM      6  C   UNL     1      -2.067  -0.648   5.512  0.00  0.00    +0.137 A 
ATOM      7  C   UNL     1      -1.378  -0.802   4.312  0.00  0.00    +0.250 A 
ATOM      8  N   UNL     1      -0.308  -1.566   4.397  0.00  0.00    -0.154 NA
ATOM      9  S   UNL     1      -0.286  -2.014   6.042  0.00  0.00    +0.119 S 
ATOM     10  N   UNL     1      -1.573  -1.269   6.564  0.00  0.00    -0.187 NA
BRANCH   6  15
ATOM     11  C   UNL     1      -5.812   1.811   3.366  0.00  0.00    -0.096 C 
ATOM     12  C   UNL     1      -5.349   2.028   5.735  0.00  0.00    -0.075 C 
ATOM     13  C   UNL     1      -5.072   1.192   6.987  0.00  0.00    +0.009 C 
ATOM     14  C   UNL     1      -3.826   0.375   6.787  0.00  0.00    -0.025 C 
ATOM     15  C   UNL     1      -3.293   0.171   5.602  0.00  0.00    -0.037 C 
ATOM     16  C   UNL     1      -3.877   0.727   4.335  0.00  0.00    -0.041 C 
ATOM     17  N   UNL     1      -5.277   1.128   4.566  0.00  0.00    +0.381 N 
ATOM     18  H   UNL     1      -5.840   0.290   4.752  0.00  0.00    -0.082 HD
ENDBRANCH   6  15
ENDBRANCH   5   7
ENDBRANCH   4   5
ENDBRANCH   3   4
ENDBRANCH   2   3
ENDBRANCH   1   2
BRANCH   1  19
ATOM     19  C   UNL     1      -0.462   0.487  -2.885  0.00  0.00    +0.003 C 
BRANCH  19  20
ATOM     20  C   UNL     1      -1.065   1.220  -4.086  0.00  0.00    +0.041 C 
BRANCH  20  21
ATOM     21  C   UNL     1      -0.206   0.961  -5.325  0.00  0.00    +0.231 C 
BRANCH  21  22
ATOM     22  O   UNL     1      -0.768   1.646  -6.446  0.00  0.00    -0.475 OA
BRANCH  22  23
ATOM     23  C   UNL     1      -0.122   1.519  -7.635  0.00  0.00    +0.250 A 
ATOM     24  C   UNL     1      -0.562   2.133  -8.805  0.00  0.00    +0.137 A 
ATOM     25  N   UNL     1       0.158   1.928  -9.889  0.00  0.00    -0.187 NA
ATOM     26  S   UNL     1       1.342   0.995  -9.434  0.00  0.00    +0.119 S 
ATOM     27  N   UNL     1       0.978   0.809  -7.778  0.00  0.00    -0.154 NA
BRANCH  24  28
ATOM     28  C   UNL     1      -1.778   2.972  -8.829  0.00  0.00    -0.037 C 
ATOM     29  C   UNL     1      -2.208   3.420  -9.988  0.00  0.00    -0.025 C 
ATOM     30  C   UNL     1      -3.432   4.281 -10.122  0.00  0.00    +0.009 C 
ATOM     31  C   UNL     1      -4.264   4.201  -8.839  0.00  0.00    -0.075 C 
ATOM     32  C   UNL     1      -2.461   3.279  -7.527  0.00  0.00    -0.041 C 
ATOM     33  C   UNL     1      -4.144   4.655  -6.462  0.00  0.00    -0.096 C 
ATOM     34  N   UNL     1      -3.358   4.438  -7.697  0.00  0.00    +0.381 N 
ATOM     35  H   UNL     1      -2.793   5.275  -7.885  0.00  0.00    -0.082 HD
ENDBRANCH  24  28
ENDBRANCH  22  23
ENDBRANCH  21  22
ENDBRANCH  20  21
ENDBRANCH  19  20
ENDBRANCH   1  19
TORSDOF 12
