REMARK  Name = ZINC11912660
REMARK  15 active torsions:
REMARK  status: ('A' for Active; 'I' for Inactive)
REMARK    1  A    between atoms: C_1  and  C_2
REMARK    2  A    between atoms: C_2  and  C_3
REMARK    3  A    between atoms: C_2  and  C_4
REMARK    4  A    between atoms: C_4  and  C_5
REMARK    5  A    between atoms: C_5  and  C_7
REMARK    6  A    between atoms: C_5  and  N_26
REMARK    7  A    between atoms: C_16  and  C_17
REMARK    8  A    between atoms: C_16  and  N_74
REMARK    9  A    between atoms: C_20  and  N_23
REMARK   10  A    between atoms: N_23  and  C_24
REMARK   11  A    between atoms: N_23  and  C_25
REMARK   12  A    between atoms: C_27  and  C_29
REMARK   13  A    between atoms: C_32  and  C_34
REMARK   14  A    between atoms: C_34  and  O_35
REMARK   15  A    between atoms: O_35  and  C_36
REMARK                            x       y       z     vdW  Elec       q    Type
REMARK                         _______ _______ _______ _____ _____    ______ ____
ROOT
ATOM      1  C   UNL     1       0.824   7.982   0.672  0.00  0.00    +0.154 A 
ATOM      2  N   UNL     1      -0.427   8.281   0.437  0.00  0.00    -0.132 NA
ATOM      3  N   UNL     1      -0.774   9.294   1.153  0.00  0.00    -0.134 NA
ATOM      4  C   UNL     1       0.238   9.685   1.871  0.00  0.00    +0.132 A 
ATOM      5  N   UNL     1       1.283   8.874   1.576  0.00  0.00    -0.315 N 
ATOM      6  C   UNL     1       2.634   8.976   2.127  0.00  0.00    +0.106 C 
ATOM      7  C   UNL     1       2.563   9.611   3.518  0.00  0.00    -0.056 C 
ATOM      8  C   UNL     1       1.548  11.638   2.632  0.00  0.00    -0.071 C 
ATOM      9  C   UNL     1       0.278  10.814   2.869  0.00  0.00    +0.058 C 
ATOM     10  N   UNL     1       2.659  11.088   3.438  0.00  0.00    +0.384 N 
ATOM     11  H   UNL     1       2.602  11.474   4.388  0.00  0.00    -0.081 HD
ENDROOT
BRANCH   1  12
ATOM     12  C   UNL     1       1.608   6.857   0.048  0.00  0.00    +0.142 C 
BRANCH  12  13
ATOM     13  N   UNL     1       0.800   5.635   0.057  0.00  0.00    -0.299 N 
ATOM     14  C   UNL     1       1.401   4.429   0.036  0.00  0.00    +0.280 C 
ATOM     15  O   UNL     1       2.616   4.355   0.010  0.00  0.00    -0.267 OA
ATOM     16  H   UNL     1      -0.168   5.693   0.078  0.00  0.00    +0.150 HD
BRANCH  14  17
ATOM     17  C   UNL     1       0.593   3.205   0.046  0.00  0.00    +0.190 A 
ATOM     18  C   UNL     1       1.072   1.927   0.027  0.00  0.00    +0.055 A 
ATOM     19  C   UNL     1      -0.046   1.077   0.046  0.00  0.00    +0.048 A 
ATOM     20  C   UNL     1      -1.144   1.865   0.069  0.00  0.00    +0.131 A 
ATOM     21  O   UNL     1      -0.755   3.146   0.074  0.00  0.00    -0.453 OA
BRANCH  20  22
ATOM     22  C   UNL     1      -2.571   1.380   0.088  0.00  0.00    +0.233 C 
BRANCH  22  23
ATOM     23  O   UNL     1      -3.000   1.218   1.442  0.00  0.00    -0.375 OA
ATOM     24  C   UNL     1      -4.347   0.760   1.573  0.00  0.00    +0.194 C 
ENDBRANCH  22  23
ENDBRANCH  20  22
ENDBRANCH  14  17
ENDBRANCH  12  13
BRANCH  12  25
ATOM     25  C   UNL     1       1.963   7.222  -1.395  0.00  0.00    +0.033 C 
BRANCH  25  27
ATOM     26  C   UNL     1       3.117   6.438  -3.468  0.00  0.00    +0.007 C 
ATOM     27  C   UNL     1       2.863   6.137  -1.989  0.00  0.00    -0.015 C 
ATOM     28  C   UNL     1       4.196   6.113  -1.238  0.00  0.00    +0.007 C 
ENDBRANCH  25  27
ENDBRANCH  12  25
ENDBRANCH   1  12
BRANCH  10  29
ATOM     29  C   UNL     1       3.951  11.475   2.842  0.00  0.00    -0.043 C 
BRANCH  29  30
ATOM     30  C   UNL     1       4.126  12.963   3.003  0.00  0.00    -0.064 A 
ATOM     31  C   UNL     1       3.694  13.820   2.008  0.00  0.00    +0.003 A 
ATOM     32  C   UNL     1       3.848  15.185   2.155  0.00  0.00    +0.023 A 
ATOM     33  C   UNL     1       4.449  15.695   3.299  0.00  0.00    +0.029 A 
ATOM     34  C   UNL     1       4.887  14.831   4.294  0.00  0.00    +0.023 A 
ATOM     35  C   UNL     1       4.725  13.468   4.143  0.00  0.00    +0.003 A 
BRANCH  33  36
ATOM     36  N   UNL     1       4.612  17.074   3.447  0.00  0.00    -0.336 N 
ATOM     37  C   UNL     1       5.130  17.619   4.705  0.00  0.00    +0.129 C 
ATOM     38  C   UNL     1       4.264  17.976   2.346  0.00  0.00    +0.129 C 
ENDBRANCH  33  36
ENDBRANCH  29  30
ENDBRANCH  10  29
TORSDOF 10
