REMARK  Name = ZINC63362973
REMARK  16 active torsions:
REMARK  status: ('A' for Active; 'I' for Inactive)
REMARK    1  A    between atoms: C_1  and  C_2
REMARK    2  A    between atoms: C_2  and  C_3
REMARK    3  A    between atoms: C_3  and  N_4
REMARK    4  A    between atoms: C_5  and  C_7
REMARK    5  A    between atoms: C_7  and  C_9
REMARK    6  A    between atoms: C_7  and  N_10
REMARK    7  A    between atoms: C_11  and  C_13
REMARK    8  A    between atoms: C_19  and  C_21
REMARK    9  A    between atoms: C_21  and  C_23
REMARK   10  A    between atoms: C_21  and  N_33
REMARK   11  A    between atoms: C_23  and  C_24
REMARK   12  A    between atoms: C_34  and  O_36
REMARK   13  A    between atoms: O_36  and  C_37
REMARK   14  A    between atoms: C_37  and  C_38
REMARK   15  A    between atoms: C_37  and  C_39
REMARK   16  A    between atoms: C_37  and  C_40
REMARK                            x       y       z     vdW  Elec       q    Type
REMARK                         _______ _______ _______ _____ _____    ______ ____
ROOT
ATOM      1  C   UNL     1       3.407  -6.353   4.621  0.00  0.00    +0.078 C 
ATOM      2  C   UNL     1       4.551  -5.393   4.960  0.00  0.00    +0.032 C 
ATOM      3  C   UNL     1       5.267  -5.885   6.221  0.00  0.00    +0.108 C 
ATOM      4  N   UNL     1       5.689  -7.277   6.013  0.00  0.00    -0.300 N 
ATOM      5  C   UNL     1       4.684  -8.265   5.596  0.00  0.00    +0.108 C 
ATOM      6  C   UNL     1       3.974  -7.746   4.341  0.00  0.00    +0.032 C 
ATOM      7  C   UNL     1       6.973  -7.641   6.200  0.00  0.00    +0.236 C 
ATOM      8  O   UNL     1       7.793  -6.816   6.544  0.00  0.00    -0.274 OA
ENDROOT
BRANCH   1  10
ATOM      9  N   UNL     1       2.093  -4.639   3.414  0.00  0.00    -0.304 N 
ATOM     10  C   UNL     1       2.678  -5.853   3.400  0.00  0.00    +0.217 C 
ATOM     11  O   UNL     1       2.618  -6.544   2.405  0.00  0.00    -0.275 OA
ATOM     12  H   UNL     1       2.141  -4.087   4.209  0.00  0.00    +0.149 HD
BRANCH   9  13
ATOM     13  C   UNL     1       1.385  -4.154   2.227  0.00  0.00    +0.156 C 
ATOM     14  C   UNL     1      -0.051  -4.684   2.238  0.00  0.00    +0.038 C 
BRANCH  13  16
ATOM     15  N   UNL     1       0.762  -1.976   1.234  0.00  0.00    -0.314 N 
ATOM     16  C   UNL     1       1.364  -2.647   2.235  0.00  0.00    +0.233 C 
ATOM     17  O   UNL     1       1.890  -2.038   3.143  0.00  0.00    -0.274 OA
ATOM     18  H   UNL     1       0.342  -2.462   0.507  0.00  0.00    +0.149 HD
BRANCH  15  19
ATOM     19  C   UNL     1       0.742  -0.511   1.242  0.00  0.00    +0.104 C 
BRANCH  19  21
ATOM     20  C   UNL     1      -0.019   1.526   0.010  0.00  0.00    +0.005 C 
ATOM     21  C   UNL     1       0.002  -0.004   0.002  0.00  0.00    +0.015 C 
ENDBRANCH  19  21
ENDBRANCH  15  19
ENDBRANCH  13  16
ENDBRANCH   9  13
ENDBRANCH   1  10
BRANCH   7  22
ATOM     22  C   UNL     1       7.390  -9.073   5.983  0.00  0.00    +0.166 C 
BRANCH  22  23
ATOM     23  N   UNL     1       8.839  -9.133   5.776  0.00  0.00    -0.269 N 
ATOM     24  C   UNL     1       9.676  -8.693   6.737  0.00  0.00    +0.401 C 
ATOM     25  O   UNL     1       9.228  -8.245   7.774  0.00  0.00    -0.226 OA
ATOM     26  H   UNL     1       9.196  -9.491   4.948  0.00  0.00    +0.153 HD
BRANCH  24  27
ATOM     27  O   UNL     1      11.008  -8.749   6.546  0.00  0.00    -0.445 OA
BRANCH  27  28
ATOM     28  C   UNL     1      11.835  -8.264   7.606  0.00  0.00    +0.107 C 
ATOM     29  C   UNL     1      11.566  -9.077   8.875  0.00  0.00    +0.055 C 
ATOM     30  C   UNL     1      13.306  -8.408   7.211  0.00  0.00    +0.055 C 
ATOM     31  C   UNL     1      11.518  -6.791   7.868  0.00  0.00    +0.055 C 
ENDBRANCH  27  28
ENDBRANCH  24  27
ENDBRANCH  22  23
BRANCH  22  32
ATOM     32  C   UNL     1       7.015  -9.905   7.210  0.00  0.00    +0.065 C 
BRANCH  32  33
ATOM     33  C   UNL     1       7.319 -11.357   6.945  0.00  0.00    -0.039 C 
ATOM     34  C   UNL     1       8.442 -12.028   7.288  0.00  0.00    -0.001 A 
ATOM     35  C   UNL     1       9.670 -11.623   7.983  0.00  0.00    +0.010 A 
ATOM     36  C   UNL     1      10.643 -12.540   8.185  0.00  0.00    +0.001 A 
ATOM     37  C   UNL     1      10.509 -13.865   7.747  0.00  0.00    +0.002 A 
ATOM     38  C   UNL     1       9.411 -14.313   7.102  0.00  0.00    +0.026 A 
ATOM     39  C   UNL     1       8.325 -13.433   6.836  0.00  0.00    +0.043 A 
ATOM     40  N   UNL     1       7.175 -13.623   6.238  0.00  0.00    -0.380 N 
ATOM     41  C   UNL     1       6.428 -12.360   6.247  0.00  0.00    +0.144 C 
ATOM     42  H   UNL     1       6.866 -14.460   5.856  0.00  0.00    +0.160 HD
ENDBRANCH  32  33
ENDBRANCH  22  32
ENDBRANCH   7  22
TORSDOF 11
