REMARK  Name = ZINC13571167
REMARK  3 active torsions:
REMARK  status: ('A' for Active; 'I' for Inactive)
REMARK    1  A    between atoms: C_5  and  C_7
REMARK    2  A    between atoms: C_7  and  C_8
REMARK    3  A    between atoms: C_7  and  C_19
REMARK                            x       y       z     vdW  Elec       q    Type
REMARK                         _______ _______ _______ _____ _____    ______ ____
ROOT
ATOM      1  C   UNL     1       1.250  -2.168  -0.023  0.00  0.00    +0.117 C 
ENDROOT
BRANCH   1   2
ATOM      2  C   UNL     1       0.170  -2.387   1.004  0.00  0.00    +0.094 A 
ATOM      3  C   UNL     1       0.351  -1.971   2.317  0.00  0.00    +0.260 A 
ATOM      4  N   UNL     1      -0.638  -2.180   3.227  0.00  0.00    -0.302 N 
ATOM      5  H   UNL     1      -0.517  -1.892   4.145  0.00  0.00    +0.171 HD
ATOM      6  C   UNL     1      -1.784  -2.784   2.863  0.00  0.00    +0.161 A 
ATOM      7  S   UNL     1      -3.011  -3.033   4.030  0.00  0.00    -0.013 S 
ATOM      8  N   UNL     1      -1.982  -3.195   1.597  0.00  0.00    -0.302 N 
ATOM      9  H   UNL     1      -2.816  -3.628   1.357  0.00  0.00    +0.171 HD
ATOM     10  C   UNL     1      -1.024  -3.004   0.652  0.00  0.00    +0.260 A 
ATOM     11  O   UNL     1      -1.227  -3.409  -0.604  0.00  0.00    -0.267 OA
ATOM     12  O   UNL     1       1.486  -1.371   2.683  0.00  0.00    -0.267 OA
ENDBRANCH   1   2
BRANCH   1  13
ATOM     13  C   UNL     1       0.622  -1.967  -1.378  0.00  0.00    +0.094 A 
ATOM     14  C   UNL     1       1.034  -2.727  -2.466  0.00  0.00    +0.260 A 
ATOM     15  N   UNL     1       0.452  -2.528  -3.678  0.00  0.00    -0.302 N 
ATOM     16  C   UNL     1      -0.515  -1.605  -3.829  0.00  0.00    +0.161 A 
ATOM     17  S   UNL     1      -1.229  -1.377  -5.368  0.00  0.00    -0.013 S 
ATOM     18  N   UNL     1      -0.930  -0.858  -2.790  0.00  0.00    -0.302 N 
ATOM     19  H   UNL     1      -1.629  -0.198  -2.921  0.00  0.00    +0.171 HD
ATOM     20  C   UNL     1      -0.382  -1.024  -1.557  0.00  0.00    +0.260 A 
ATOM     21  O   UNL     1      -0.802  -0.284  -0.528  0.00  0.00    -0.267 OA
ATOM     22  O   UNL     1       1.993  -3.644  -2.322  0.00  0.00    -0.267 OA
ATOM     23  H   UNL     1       0.736  -3.056  -4.441  0.00  0.00    +0.171 HD
ENDBRANCH   1  13
BRANCH   1  28
ATOM     24  C   UNL     1       2.155   1.285   1.190  0.00  0.00    +0.003 A 
ATOM     25  C   UNL     1       3.528   1.244   0.996  0.00  0.00    +0.017 A 
ATOM     26  C   UNL     1       4.102   0.098   0.481  0.00  0.00    +0.083 A 
ATOM     27  N   UNL     1       3.360  -0.949   0.174  0.00  0.00    -0.364 N 
ATOM     28  C   UNL     1       2.052  -0.946   0.344  0.00  0.00    +0.028 A 
ATOM     29  C   UNL     1       1.409   0.165   0.856  0.00  0.00    +0.022 A 
ATOM     30  H   UNL     1       3.787  -1.741  -0.187  0.00  0.00    +0.165 HD
ENDBRANCH   1  28
TORSDOF 3
