REMARK  Name = ZINC58570182
REMARK  5 active torsions:
REMARK  status: ('A' for Active; 'I' for Inactive)
REMARK    1  A    between atoms: C_10  and  C_11
REMARK    2  A    between atoms: C_12  and  C_13
REMARK    3  A    between atoms: N_15  and  C_16
REMARK    4  A    between atoms: C_16  and  C_17
REMARK    5  A    between atoms: C_21  and  N_23
REMARK                            x       y       z     vdW  Elec       q    Type
REMARK                         _______ _______ _______ _____ _____    ______ ____
ROOT
ATOM      1  C   UNL     1       7.217  -0.461   0.046  0.00  0.00    +0.237 C 
ATOM      2  O   UNL     1       7.059   0.745  -0.010  0.00  0.00    -0.271 OA
ATOM      3  N   UNL     1       8.461  -0.979   0.012  0.00  0.00    -0.308 N 
ATOM      4  H   UNL     1       8.587  -1.940   0.056  0.00  0.00    +0.149 HD
ENDROOT
BRANCH   1   6
ATOM      5  C   UNL     1       4.811  -0.826   0.183  0.00  0.00    +0.013 C 
ATOM      6  C   UNL     1       6.058  -1.346   0.149  0.00  0.00    +0.068 C 
BRANCH   5  16
ATOM      7  C   UNL     1      -0.303  -0.199   0.401  0.00  0.00    +0.001 A 
ATOM      8  C   UNL     1       0.775   0.677   0.303  0.00  0.00    +0.001 A 
ATOM      9  C   UNL     1       2.056   0.209   0.265  0.00  0.00    +0.009 A 
ATOM     10  C   UNL     1       2.292  -1.169   0.325  0.00  0.00    -0.011 A 
ATOM     11  C   UNL     1       1.198  -2.062   0.425  0.00  0.00    -0.017 A 
ATOM     12  C   UNL     1      -0.109  -1.546   0.462  0.00  0.00    +0.008 A 
ATOM     13  C   UNL     1       1.438  -3.445   0.486  0.00  0.00    +0.008 A 
ATOM     14  C   UNL     1       2.710  -3.932   0.450  0.00  0.00    +0.001 A 
ATOM     15  C   UNL     1       3.812  -3.095   0.353  0.00  0.00    +0.008 A 
ATOM     16  C   UNL     1       3.648  -1.715   0.287  0.00  0.00    -0.017 A 
ENDBRANCH   5  16
ENDBRANCH   1   6
BRANCH   3  17
ATOM     17  C   UNL     1       9.622  -0.092  -0.091  0.00  0.00    +0.140 C 
BRANCH  17  18
ATOM     18  C   UNL     1      10.883  -0.916  -0.110  0.00  0.00    -0.029 A 
ATOM     19  C   UNL     1      11.517  -1.236   1.077  0.00  0.00    +0.005 A 
ATOM     20  C   UNL     1      12.675  -1.992   1.064  0.00  0.00    +0.002 A 
ATOM     21  C   UNL     1      13.202  -2.430  -0.135  0.00  0.00    +0.023 A 
ATOM     22  C   UNL     1      12.568  -2.111  -1.328  0.00  0.00    +0.035 A 
ATOM     23  C   UNL     1      11.402  -1.356  -1.312  0.00  0.00    +0.028 A 
BRANCH  22  24
ATOM     24  N   UNL     1      13.100  -2.553  -2.545  0.00  0.00    -0.270 N 
ATOM     25  C   UNL     1      12.973  -1.794  -3.651  0.00  0.00    +0.301 C 
ATOM     26  O   UNL     1      12.484  -0.684  -3.574  0.00  0.00    -0.253 OA
ATOM     27  N   UNL     1      13.389  -2.266  -4.843  0.00  0.00    -0.313 N 
ATOM     28  H   UNL     1      13.559  -3.406  -2.592  0.00  0.00    +0.156 HD
ATOM     29  H   UNL     1      13.780  -3.151  -4.905  0.00  0.00    +0.146 HD
ATOM     30  H   UNL     1      13.298  -1.719  -5.640  0.00  0.00    +0.146 HD
ENDBRANCH  22  24
ENDBRANCH  17  18
ENDBRANCH   3  17
TORSDOF 5
