REMARK  Name = ZINC12348310
REMARK  7 active torsions:
REMARK  status: ('A' for Active; 'I' for Inactive)
REMARK    1  A    between atoms: C_1  and  C_2
REMARK    2  A    between atoms: C_2  and  N_3
REMARK    3  A    between atoms: N_3  and  C_4
REMARK    4  A    between atoms: N_3  and  C_6
REMARK    5  A    between atoms: C_4  and  C_5
REMARK    6  A    between atoms: C_9  and  C_12
REMARK    7  A    between atoms: N_18  and  C_21
REMARK                            x       y       z     vdW  Elec       q    Type
REMARK                         _______ _______ _______ _____ _____    ______ ____
ROOT
ATOM      1  C   UNL     1       1.646  -6.127   0.636  0.00  0.00    +0.092 C 
ATOM      2  C   UNL     1       2.367  -6.628   1.855  0.00  0.00    +0.070 A 
ATOM      3  C   UNL     1       3.700  -6.956   1.839  0.00  0.00    +0.125 A 
ATOM      4  N   UNL     1       4.051  -7.368   3.087  0.00  0.00    -0.277 N 
ATOM      5  H   UNL     1       4.934  -7.657   3.365  0.00  0.00    +0.189 HD
ATOM      6  N   UNL     1       2.909  -7.299   3.901  0.00  0.00    -0.218 N 
ATOM      7  C   UNL     1       1.884  -6.848   3.145  0.00  0.00    +0.278 A 
ATOM      8  O   UNL     1       0.740  -6.665   3.524  0.00  0.00    -0.265 OA
ATOM      9  N   UNL     1       4.450  -6.850   0.692  0.00  0.00    -0.303 N 
ATOM     10  C   UNL     1       3.799  -6.708  -0.512  0.00  0.00    +0.017 C 
ATOM     11  C   UNL     1       2.495  -6.372  -0.592  0.00  0.00    +0.024 C 
ATOM     12  C   UNL     1       1.860  -6.232  -1.841  0.00  0.00    +0.162 C 
ATOM     13  O   UNL     1       0.679  -5.950  -1.879  0.00  0.00    -0.292 OA
ATOM     14  C   UNL     1       2.611  -6.423  -3.130  0.00  0.00    +0.080 C 
ATOM     15  C   UNL     1       4.086  -6.077  -2.900  0.00  0.00    +0.014 C 
ATOM     16  C   UNL     1       4.612  -6.953  -1.762  0.00  0.00    +0.051 C 
ATOM     17  H   UNL     1       5.419  -6.875   0.731  0.00  0.00    +0.153 HD
ENDROOT
BRANCH   1  21
ATOM     18  C   UNL     1       0.908  -1.939   1.045  0.00  0.00    +0.013 A 
ATOM     19  C   UNL     1      -0.150  -2.816   0.897  0.00  0.00    +0.022 A 
ATOM     20  C   UNL     1       0.088  -4.171   0.765  0.00  0.00    +0.006 A 
ATOM     21  C   UNL     1       1.385  -4.649   0.779  0.00  0.00    -0.035 A 
ATOM     22  C   UNL     1       2.444  -3.772   0.926  0.00  0.00    +0.006 A 
ATOM     23  C   UNL     1       2.205  -2.416   1.054  0.00  0.00    +0.022 A 
BRANCH  18  24
ATOM     24  N   UNL     1       0.667  -0.568   1.179  0.00  0.00    -0.394 NA
ATOM     25  H   UNL     1       1.544  -0.080   1.271  0.00  0.00    +0.126 HD
BRANCH  24  27
ATOM     26  C   UNL     1       0.868  -0.191  -1.233  0.00  0.00    +0.022 C 
ATOM     27  C   UNL     1      -0.044  -0.078  -0.010  0.00  0.00    +0.081 C 
ENDBRANCH  24  27
BRANCH  24  28
ATOM     28  C   UNL     1      -0.154  -0.330   2.373  0.00  0.00    +0.081 C 
ATOM     29  C   UNL     1       0.637  -0.723   3.623  0.00  0.00    +0.022 C 
ENDBRANCH  24  28
ENDBRANCH  18  24
ENDBRANCH   1  21
BRANCH   6  30
ATOM     30  C   UNL     1       2.844  -7.638   5.256  0.00  0.00    +0.067 A 
ATOM     31  C   UNL     1       1.643  -7.527   5.944  0.00  0.00    +0.028 A 
ATOM     32  C   UNL     1       1.582  -7.862   7.283  0.00  0.00    +0.002 A 
ATOM     33  C   UNL     1       2.716  -8.307   7.938  0.00  0.00    +0.000 A 
ATOM     34  C   UNL     1       3.914  -8.418   7.256  0.00  0.00    +0.002 A 
ATOM     35  C   UNL     1       3.980  -8.090   5.916  0.00  0.00    +0.028 A 
ENDBRANCH   6  30
TORSDOF 5
