REMARK  Name = ZINC21010230
REMARK  5 active torsions:
REMARK  status: ('A' for Active; 'I' for Inactive)
REMARK    1  A    between atoms: C_3  and  S_18
REMARK    2  A    between atoms: C_6  and  N_7
REMARK    3  A    between atoms: C_8  and  C_10
REMARK    4  A    between atoms: C_15  and  O_16
REMARK    5  A    between atoms: S_18  and  N_21
REMARK                            x       y       z     vdW  Elec       q    Type
REMARK                         _______ _______ _______ _____ _____    ______ ____
ROOT
ATOM      1  N   UNL     1      -2.488  -0.338   0.012  0.00  0.00    -0.281 N 
ATOM      2  C   UNL     1      -1.397  -0.862  -0.581  0.00  0.00    +0.252 C 
ATOM      3  O   UNL     1      -1.462  -1.950  -1.121  0.00  0.00    -0.270 OA
ATOM      4  H   UNL     1      -2.412   0.609   0.566  0.00  0.00    +0.155 HD
ENDROOT
BRANCH   2   5
ATOM      5  C   UNL     1      -0.126  -0.116  -0.576  0.00  0.00    +0.078 A 
ATOM      6  C   UNL     1      -0.047   1.135   0.043  0.00  0.00    +0.018 A 
ATOM      7  C   UNL     1       1.145   1.825   0.049  0.00  0.00    +0.021 A 
ATOM      8  C   UNL     1       2.268   1.286  -0.561  0.00  0.00    +0.044 A 
ATOM      9  C   UNL     1       2.203   0.053  -1.181  0.00  0.00    +0.066 A 
ATOM     10  C   UNL     1       1.010  -0.655  -1.196  0.00  0.00    +0.130 A 
ATOM     11 CL   UNL     1       3.764   2.166  -0.546  0.00  0.00    -0.083 Cl
BRANCH  10  12
ATOM     12  O   UNL     1       0.945  -1.866  -1.804  0.00  0.00    -0.506 OA
ATOM     13  H   UNL     1       1.837  -2.287  -2.289  0.00  0.00    +0.292 HD
ENDBRANCH  10  12
ENDBRANCH   2   5
BRANCH   1  19
ATOM     14  C   UNL     1      -4.896  -0.270  -0.156  0.00  0.00    +0.025 A 
ATOM     15  C   UNL     1      -6.108  -0.926  -0.248  0.00  0.00    +0.030 A 
ATOM     16  C   UNL     1      -6.149  -2.308  -0.249  0.00  0.00    +0.105 A 
ATOM     17  C   UNL     1      -4.978  -3.038  -0.164  0.00  0.00    +0.030 A 
ATOM     18  C   UNL     1      -3.762  -2.388  -0.077  0.00  0.00    +0.025 A 
ATOM     19  C   UNL     1      -3.717  -1.000  -0.076  0.00  0.00    +0.034 A 
BRANCH  16  20
ATOM     20  S   UNL     1      -7.698  -3.142  -0.361  0.00  0.00    +0.056 S 
ATOM     21  O   UNL     1      -8.602  -2.237  -0.980  0.00  0.00    -0.153 OA
ATOM     22  O   UNL     1      -7.428  -4.431  -0.892  0.00  0.00    -0.153 OA
BRANCH  20  23
ATOM     23  N   UNL     1      -8.242  -3.372   1.186  0.00  0.00    -0.204 NA
ATOM     24  H   UNL     1      -9.212  -3.891   1.160  0.00  0.00    +0.144 HD
ATOM     25  H   UNL     1      -8.362  -2.397   1.681  0.00  0.00    +0.144 HD
ENDBRANCH  20  23
ENDBRANCH  16  20
ENDBRANCH   1  19
TORSDOF 5
