REMARK  Name = ZINC13499290
REMARK  10 active torsions:
REMARK  status: ('A' for Active; 'I' for Inactive)
REMARK    1  A    between atoms: C_1  and  C_2
REMARK    2  A    between atoms: C_2  and  C_3
REMARK    3  A    between atoms: C_3  and  C_4
REMARK    4  A    between atoms: C_4  and  C_6
REMARK    5  A    between atoms: C_4  and  N_69
REMARK    6  A    between atoms: N_10  and  C_11
REMARK    7  A    between atoms: C_16  and  C_17
REMARK    8  A    between atoms: C_16  and  N_69
REMARK    9  A    between atoms: C_22  and  C_29
REMARK   10  A    between atoms: C_30  and  N_69
REMARK                            x       y       z     vdW  Elec       q    Type
REMARK                         _______ _______ _______ _____ _____    ______ ____
ROOT
ATOM      1  N   UNL     1      -3.170   0.901  -1.323  0.00  0.00    +0.391 N 
ATOM      2  H   UNL     1      -2.265   0.575  -1.681  0.00  0.00    -0.080 HD
ENDROOT
BRANCH   1   3
ATOM      3  C   UNL     1      -3.440   2.251  -1.861  0.00  0.00    -0.067 C 
ATOM      4  C   UNL     1      -4.790   2.793  -1.349  0.00  0.00    -0.015 C 
ATOM      5  C   UNL     1      -5.373   3.567  -2.558  0.00  0.00    -0.002 C 
ATOM      6  C   UNL     1      -4.960   2.682  -3.761  0.00  0.00    -0.002 C 
ATOM      7  C   UNL     1      -3.548   2.181  -3.395  0.00  0.00    -0.015 C 
ENDBRANCH   1   3
BRANCH   1   8
ATOM      8  C   UNL     1      -4.225  -0.037  -1.757  0.00  0.00    +0.003 C 
BRANCH   8   9
ATOM      9  C   UNL     1      -5.413   0.042  -0.833  0.00  0.00    +0.138 A 
ATOM     10  N   UNL     1      -5.386   0.041   0.477  0.00  0.00    -0.115 NA
ATOM     11  N   UNL     1      -6.600   0.124   0.900  0.00  0.00    -0.023 NA
ATOM     12  N   UNL     1      -7.402   0.169  -0.106  0.00  0.00    -0.044 NA
ATOM     13  N   UNL     1      -6.708   0.120  -1.193  0.00  0.00    -0.228 N 
BRANCH  13  14
ATOM     14  C   UNL     1      -7.231   0.145  -2.561  0.00  0.00    +0.111 C 
ATOM     15  C   UNL     1      -8.061   1.426  -2.786  0.00  0.00    +0.027 C 
ATOM     16  C   UNL     1      -9.231   0.965  -3.691  0.00  0.00    +0.002 C 
ATOM     17  C   UNL     1      -9.560  -0.442  -3.135  0.00  0.00    +0.002 C 
ATOM     18  C   UNL     1      -8.183  -1.042  -2.783  0.00  0.00    +0.027 C 
ENDBRANCH  13  14
ENDBRANCH   8   9
BRANCH   8  19
ATOM     19  C   UNL     1      -3.656  -1.457  -1.736  0.00  0.00    -0.008 C 
BRANCH  19  21
ATOM     20  C   UNL     1      -2.056  -3.025  -2.842  0.00  0.00    +0.004 C 
ATOM     21  C   UNL     1      -2.542  -1.575  -2.777  0.00  0.00    -0.005 C 
ENDBRANCH  19  21
ENDBRANCH   8  19
ENDBRANCH   1   8
BRANCH   1  22
ATOM     22  C   UNL     1      -3.113   0.949   0.154  0.00  0.00    -0.036 C 
BRANCH  22  23
ATOM     23  C   UNL     1      -1.802   1.567   0.567  0.00  0.00    +0.001 A 
ATOM     24  C   UNL     1      -1.750   2.880   0.903  0.00  0.00    +0.017 A 
ATOM     25  C   UNL     1      -0.460   3.451   1.294  0.00  0.00    -0.001 A 
ATOM     26  C   UNL     1      -0.342   4.800   1.644  0.00  0.00    +0.010 A 
ATOM     27  C   UNL     1       0.876   5.303   2.004  0.00  0.00    +0.004 A 
ATOM     28  C   UNL     1       1.999   4.487   2.025  0.00  0.00    -0.048 A 
ATOM     29  C   UNL     1       1.906   3.155   1.684  0.00  0.00    +0.029 A 
ATOM     30  C   UNL     1       0.676   2.620   1.314  0.00  0.00    +0.049 A 
ATOM     31  N   UNL     1       0.555   1.292   0.967  0.00  0.00    -0.322 N 
ATOM     32  H   UNL     1       1.339   0.720   0.982  0.00  0.00    +0.169 HD
ATOM     33  C   UNL     1      -0.634   0.776   0.609  0.00  0.00    +0.251 A 
ATOM     34  O   UNL     1      -0.704  -0.403   0.308  0.00  0.00    -0.268 OA
ATOM     35  C   UNL     1       3.332   5.063   2.425  0.00  0.00    +0.044 C 
ENDBRANCH  22  23
ENDBRANCH   1  22
TORSDOF 8
