REMARK  Name = ZINC53629632
REMARK  8 active torsions:
REMARK  status: ('A' for Active; 'I' for Inactive)
REMARK    1  A    between atoms: C_1  and  O_2
REMARK    2  A    between atoms: O_2  and  C_3
REMARK    3  A    between atoms: C_6  and  C_9
REMARK    4  A    between atoms: C_13  and  C_24
REMARK    5  A    between atoms: C_18  and  C_20
REMARK    6  A    between atoms: N_26  and  C_27
REMARK    7  A    between atoms: C_27  and  C_28
REMARK    8  A    between atoms: C_28  and  C_29
REMARK                            x       y       z     vdW  Elec       q    Type
REMARK                         _______ _______ _______ _____ _____    ______ ____
ROOT
ATOM      1  C   UNL     1       2.494  -2.493  -4.364  0.00  0.00    +0.070 C 
ATOM      2  N   UNL     1       3.027  -1.748  -5.301  0.00  0.00    -0.254 NA
ATOM      3  C   UNL     1       3.687  -2.374  -6.449  0.00  0.00    +0.246 C 
ATOM      4  C   UNL     1       4.942  -1.624  -6.831  0.00  0.00    +0.073 C 
ATOM      5  H   UNL     1       6.054  -4.563  -6.456  0.00  0.00    +0.170 HD
ATOM      6  C   UNL     1       5.955  -2.515  -6.797  0.00  0.00    +0.100 C 
ATOM      7  N   UNL     1       5.521  -3.754  -6.425  0.00  0.00    -0.269 N 
ATOM      8  N   UNL     1       4.182  -3.694  -6.001  0.00  0.00    -0.220 N 
ATOM      9  C   UNL     1       3.414  -4.558  -5.261  0.00  0.00    +0.132 C 
ATOM     10  C   UNL     1       2.533  -3.958  -4.420  0.00  0.00    +0.057 C 
ENDROOT
BRANCH   1  14
ATOM     11  C   UNL     1       0.605  -0.607  -1.055  0.00  0.00    +0.120 A 
ATOM     12  C   UNL     1       1.172   0.165  -2.061  0.00  0.00    +0.046 A 
ATOM     13  C   UNL     1       1.785  -0.444  -3.135  0.00  0.00    +0.013 A 
ATOM     14  C   UNL     1       1.836  -1.836  -3.211  0.00  0.00    +0.000 A 
ATOM     15  C   UNL     1       1.266  -2.608  -2.198  0.00  0.00    +0.013 A 
ATOM     16  C   UNL     1       0.659  -1.993  -1.124  0.00  0.00    +0.046 A 
BRANCH  11  18
ATOM     17  C   UNL     1      -0.017   1.425   0.010  0.00  0.00    +0.277 C 
ATOM     18  O   UNL     1       0.002  -0.004   0.002  0.00  0.00    -0.495 OA
ENDBRANCH  11  18
ENDBRANCH   1  14
BRANCH   9  19
ATOM     19  C   UNL     1       3.544  -6.056  -5.370  0.00  0.00    +0.432 C 
ATOM     20  F   UNL     1       2.635  -6.666  -4.498  0.00  0.00    -0.165 F 
ATOM     21  F   UNL     1       3.270  -6.453  -6.683  0.00  0.00    -0.165 F 
ATOM     22  F   UNL     1       4.846  -6.437  -5.029  0.00  0.00    -0.165 F 
ENDBRANCH   9  19
BRANCH   4  23
ATOM     23  C   UNL     1       5.036  -0.252  -7.162  0.00  0.00    +0.245 C 
ATOM     24  O   UNL     1       6.115   0.231  -7.454  0.00  0.00    -0.270 OA
ATOM     25  N   UNL     1       3.932   0.521  -7.155  0.00  0.00    -0.311 N 
ATOM     26  H   UNL     1       3.072   0.136  -6.923  0.00  0.00    +0.149 HD
BRANCH  25  27
ATOM     27  C   UNL     1       4.029   1.942  -7.498  0.00  0.00    +0.110 C 
BRANCH  27  28
ATOM     28  C   UNL     1       2.643   2.583  -7.414  0.00  0.00    +0.073 C 
BRANCH  28  29
ATOM     29  C   UNL     1       2.744   4.045  -7.767  0.00  0.00    +0.035 A 
ATOM     30  H   UNL     1       2.847   6.570  -9.595  0.00  0.00    +0.166 HD
ATOM     31  C   UNL     1       2.716   4.563  -9.010  0.00  0.00    +0.105 A 
ATOM     32  N   UNL     1       2.834   5.920  -8.876  0.00  0.00    -0.352 N 
ATOM     33  C   UNL     1       2.931   6.184  -7.555  0.00  0.00    +0.171 A 
ATOM     34  N   UNL     1       2.871   5.058  -6.898  0.00  0.00    -0.350 N 
ATOM     35  H   UNL     1       2.914   4.969  -5.933  0.00  0.00    +0.166 HD
ENDBRANCH  28  29
ENDBRANCH  27  28
ENDBRANCH  25  27
ENDBRANCH   4  23
TORSDOF 7
