REMARK  Name = ZINC12159540
REMARK  12 active torsions:
REMARK  status: ('A' for Active; 'I' for Inactive)
REMARK    1  A    between atoms: C_1  and  C_2
REMARK    2  A    between atoms: C_2  and  C_3
REMARK    3  A    between atoms: C_3  and  C_20
REMARK    4  A    between atoms: N_6  and  C_10
REMARK    5  A    between atoms: C_10  and  C_11
REMARK    6  A    between atoms: C_11  and  C_12
REMARK    7  A    between atoms: C_15  and  O_18
REMARK    8  A    between atoms: O_18  and  C_19
REMARK    9  A    between atoms: C_25  and  C_26
REMARK   10  A    between atoms: C_25  and  N_69
REMARK   11  A    between atoms: C_29  and  S_32
REMARK   12  A    between atoms: S_32  and  C_33
REMARK                            x       y       z     vdW  Elec       q    Type
REMARK                         _______ _______ _______ _____ _____    ______ ____
ROOT
ATOM      1  C   UNL     1       2.165   0.655  -0.015  0.00  0.00    +0.115 C 
ATOM      2  C   UNL     1       1.230   1.848   0.000  0.00  0.00    +0.247 C 
ATOM      3  O   UNL     1       1.538   3.020   0.003  0.00  0.00    -0.273 OA
ATOM      4  N   UNL     1      -0.016   1.334   0.009  0.00  0.00    -0.224 N 
ATOM      5  C   UNL     1       0.002  -0.004   0.002  0.00  0.00    +0.309 C 
ATOM      6  O   UNL     1      -0.999  -0.693   0.008  0.00  0.00    -0.252 OA
ATOM      7  N   UNL     1       1.252  -0.501  -0.013  0.00  0.00    -0.285 N 
ATOM      8  H   UNL     1       1.503  -1.438  -0.019  0.00  0.00    +0.151 HD
ENDROOT
BRANCH   1   9
ATOM      9  C   UNL     1       3.023   0.660  -1.282  0.00  0.00    +0.018 C 
ATOM     10  C   UNL     1       4.030   1.812  -1.213  0.00  0.00    -0.013 C 
ATOM     11  C   UNL     1       4.844   1.850  -2.508  0.00  0.00    -0.078 C 
ATOM     12  C   UNL     1       2.995   0.915  -3.765  0.00  0.00    -0.078 C 
ATOM     13  C   UNL     1       2.126   0.850  -2.507  0.00  0.00    -0.013 C 
ATOM     14  N   UNL     1       3.924   2.059  -3.647  0.00  0.00    +0.382 N 
ATOM     15  H   UNL     1       3.380   2.914  -3.484  0.00  0.00    -0.081 HD
BRANCH  14  16
ATOM     16  C   UNL     1       4.696   2.213  -4.897  0.00  0.00    -0.043 C 
BRANCH  16  17
ATOM     17  C   UNL     1       5.470   3.505  -4.834  0.00  0.00    -0.064 A 
ATOM     18  C   UNL     1       4.894   4.676  -5.292  0.00  0.00    +0.003 A 
ATOM     19  C   UNL     1       5.598   5.863  -5.231  0.00  0.00    +0.015 A 
ATOM     20  C   UNL     1       6.890   5.877  -4.719  0.00  0.00    +0.008 A 
ATOM     21  C   UNL     1       7.467   4.697  -4.264  0.00  0.00    +0.015 A 
ATOM     22  C   UNL     1       6.755   3.515  -4.323  0.00  0.00    +0.003 A 
BRANCH  20  23
ATOM     23  S   UNL     1       7.795   7.387  -4.646  0.00  0.00    -0.129 S 
ATOM     24  C   UNL     1       6.652   8.617  -5.335  0.00  0.00    +0.090 C 
ENDBRANCH  20  23
ENDBRANCH  16  17
ENDBRANCH  14  16
ENDBRANCH   1   9
BRANCH   1  26
ATOM     25  C   UNL     1       2.170   0.567   2.482  0.00  0.00    +0.006 C 
ATOM     26  C   UNL     1       3.050   0.645   1.233  0.00  0.00    +0.032 C 
ENDBRANCH   1  26
BRANCH   4  27
ATOM     27  C   UNL     1      -1.239   2.140   0.020  0.00  0.00    +0.122 C 
BRANCH  27  28
ATOM     28  C   UNL     1      -1.657   2.413   1.466  0.00  0.00    +0.054 C 
BRANCH  28  29
ATOM     29  C   UNL     1      -2.916   3.243   1.476  0.00  0.00    -0.046 A 
ATOM     30  C   UNL     1      -2.832   4.623   1.489  0.00  0.00    +0.007 A 
ATOM     31  C   UNL     1      -3.984   5.386   1.493  0.00  0.00    +0.046 A 
ATOM     32  C   UNL     1      -5.225   4.766   1.496  0.00  0.00    +0.120 A 
ATOM     33  C   UNL     1      -5.306   3.381   1.489  0.00  0.00    +0.046 A 
ATOM     34  C   UNL     1      -4.151   2.623   1.480  0.00  0.00    +0.007 A 
BRANCH  32  35
ATOM     35  O   UNL     1      -6.360   5.514   1.505  0.00  0.00    -0.495 OA
ATOM     36  C   UNL     1      -6.200   6.934   1.512  0.00  0.00    +0.277 C 
ENDBRANCH  32  35
ENDBRANCH  28  29
ENDBRANCH  27  28
ENDBRANCH   4  27
TORSDOF 9
