REMARK  Name = ZINC04323363
REMARK  5 active torsions:
REMARK  status: ('A' for Active; 'I' for Inactive)
REMARK    1  A    between atoms: C_1  and  C_2
REMARK    2  A    between atoms: N_5  and  C_7
REMARK    3  A    between atoms: C_9  and  S_14
REMARK    4  A    between atoms: S_14  and  C_15
REMARK    5  A    between atoms: C_15  and  C_16
REMARK                            x       y       z     vdW  Elec       q    Type
REMARK                         _______ _______ _______ _____ _____    ______ ____
ROOT
ATOM      1  C   UNL     1      -0.013   1.086   0.008  0.00  0.00    +0.069 C 
ATOM      2  C   UNL     1      -0.718   1.572   1.248  0.00  0.00    +0.088 A 
ATOM      3  C   UNL     1      -0.119   1.845   2.473  0.00  0.00    +0.167 A 
ATOM      4  C   UNL     1      -1.086   2.259   3.341  0.00  0.00    +0.128 A 
ATOM      5  N   UNL     1      -2.262   2.248   2.665  0.00  0.00    -0.258 N 
ATOM      6  N   UNL     1      -2.001   1.815   1.357  0.00  0.00    -0.174 NA
ATOM      7  C   UNL     1      -3.571   2.627   3.204  0.00  0.00    +0.173 C 
ATOM      8  S   UNL     1      -0.829   2.711   5.018  0.00  0.00    -0.040 S 
ATOM      9  C   UNL     1       0.895   2.974   5.076  0.00  0.00    +0.159 C 
ATOM     10  N   UNL     1       1.800   2.586   4.277  0.00  0.00    -0.115 NA
ATOM     11  S   UNL     1       1.585   1.708   2.897  0.00  0.00    +0.104 S 
ATOM     12  O   UNL     1       1.812   0.348   3.239  0.00  0.00    -0.146 OA
ATOM     13  O   UNL     1       2.315   2.370   1.873  0.00  0.00    -0.146 OA
ENDROOT
BRANCH   9  14
ATOM     14  S   UNL     1       1.463   3.921   6.449  0.00  0.00    -0.084 S 
BRANCH  14  15
ATOM     15  C   UNL     1       3.240   3.937   6.106  0.00  0.00    +0.164 C 
BRANCH  15  16
ATOM     16  C   UNL     1       3.936   4.697   7.157  0.00  0.00    -0.094 C 
ATOM     17  C   UNL     1       4.491   5.302   7.996  0.00  0.00    +0.004 C 
ENDBRANCH  15  16
ENDBRANCH  14  15
ENDBRANCH   9  14
TORSDOF 3
