REMARK  Name = ZINC35276985
REMARK  4 active torsions:
REMARK  status: ('A' for Active; 'I' for Inactive)
REMARK    1  A    between atoms: C_1  and  C_2
REMARK    2  A    between atoms: C_6  and  N_8
REMARK    3  A    between atoms: C_9  and  N_20
REMARK    4  A    between atoms: C_11  and  C_13
REMARK                            x       y       z     vdW  Elec       q    Type
REMARK                         _______ _______ _______ _____ _____    ______ ____
ROOT
ATOM      1  N   UNL     1       0.052  -2.798   2.394  0.00  0.00    -0.218 N 
ATOM      2  C   UNL     1      -0.559  -3.993   2.629  0.00  0.00    +0.120 A 
ATOM      3  C   UNL     1      -0.304  -4.340   3.918  0.00  0.00    +0.073 A 
ATOM      4  C   UNL     1       0.487  -3.325   4.489  0.00  0.00    +0.095 A 
ATOM      5  N   UNL     1       0.703  -2.406   3.571  0.00  0.00    -0.165 NA
ENDROOT
BRANCH   1  11
ATOM      6  C   UNL     1      -0.018   1.503   0.010  0.00  0.00    +0.044 C 
ATOM      7  C   UNL     1       0.002  -0.004   0.002  0.00  0.00    -0.048 A 
ATOM      8  C   UNL     1       0.006  -0.688  -1.200  0.00  0.00    +0.003 A 
ATOM      9  C   UNL     1       0.025  -2.071  -1.212  0.00  0.00    +0.002 A 
ATOM     10  C   UNL     1       0.040  -2.773  -0.022  0.00  0.00    +0.028 A 
ATOM     11  C   UNL     1       0.036  -2.089   1.186  0.00  0.00    +0.068 A 
ATOM     12  C   UNL     1       0.023  -0.700   1.194  0.00  0.00    +0.031 A 
ENDBRANCH   1  11
BRANCH   4  13
ATOM     13  C   UNL     1       0.996  -3.298   5.882  0.00  0.00    +0.002 A 
ATOM     14  C   UNL     1       0.703  -4.345   6.754  0.00  0.00    +0.011 A 
ATOM     15  C   UNL     1       1.178  -4.316   8.049  0.00  0.00    +0.016 A 
ATOM     16  C   UNL     1       1.944  -3.248   8.483  0.00  0.00    +0.018 A 
ATOM     17  C   UNL     1       2.238  -2.205   7.622  0.00  0.00    +0.016 A 
ATOM     18  C   UNL     1       1.773  -2.229   6.322  0.00  0.00    +0.011 A 
ATOM     19 BR   UNL     1       2.592  -3.213  10.259  0.00  0.00    -0.050 Br
ENDBRANCH   4  13
BRANCH   2  20
ATOM     20  N   UNL     1      -1.309  -4.725   1.714  0.00  0.00    -0.343 N 
ATOM     21  H   UNL     1      -1.435  -4.391   0.812  0.00  0.00    +0.144 HD
ATOM     22  H   UNL     1      -1.706  -5.570   1.978  0.00  0.00    +0.144 HD
ENDBRANCH   2  20
TORSDOF 3
