REMARK  Name = ZINC02399279
REMARK  6 active torsions:
REMARK  status: ('A' for Active; 'I' for Inactive)
REMARK    1  A    between atoms: C_1  and  C_2
REMARK    2  A    between atoms: C_2  and  N_3
REMARK    3  A    between atoms: C_12  and  S_13
REMARK    4  A    between atoms: S_13  and  C_14
REMARK    5  A    between atoms: C_14  and  C_15
REMARK    6  A    between atoms: N_17  and  C_18
REMARK                            x       y       z     vdW  Elec       q    Type
REMARK                         _______ _______ _______ _____ _____    ______ ____
ROOT
ATOM      1  N   UNL     1       9.104  -4.339   5.675  0.00  0.00    -0.288 N 
ATOM      2  C   UNL     1      10.324  -4.230   6.233  0.00  0.00    +0.263 A 
ATOM      3  O   UNL     1      10.814  -5.169   6.835  0.00  0.00    -0.267 OA
ATOM      4  C   UNL     1      11.034  -2.994   6.115  0.00  0.00    +0.076 A 
ATOM      5  C   UNL     1      12.357  -2.654   6.642  0.00  0.00    -0.023 A 
ATOM      6  C   UNL     1      12.814  -1.410   6.395  0.00  0.00    -0.004 A 
ATOM      7  S   UNL     1      11.529  -0.626   5.458  0.00  0.00    -0.073 S 
ATOM      8  C   UNL     1      10.379  -1.976   5.401  0.00  0.00    +0.117 A 
ATOM      9  N   UNL     1       9.175  -2.150   4.869  0.00  0.00    -0.216 NA
ATOM     10  C   UNL     1       8.542  -3.299   4.993  0.00  0.00    +0.173 A 
ATOM     11  C   UNL     1      14.124  -0.822   6.822  0.00  0.00    +0.043 C 
ATOM     12  C   UNL     1      14.730  -1.724   7.907  0.00  0.00    +0.005 C 
ATOM     13  C   UNL     1      14.653  -3.179   7.435  0.00  0.00    +0.005 C 
ATOM     14  C   UNL     1      13.198  -3.649   7.437  0.00  0.00    +0.037 C 
ENDROOT
BRANCH   1  16
ATOM     15  C   UNL     1       8.719  -6.511   4.620  0.00  0.00    +0.027 C 
ATOM     16  C   UNL     1       8.368  -5.600   5.798  0.00  0.00    +0.124 C 
ENDBRANCH   1  16
BRANCH  10  17
ATOM     17  S   UNL     1       6.945  -3.493   4.274  0.00  0.00    -0.078 S 
BRANCH  17  18
ATOM     18  C   UNL     1       6.728  -1.853   3.541  0.00  0.00    +0.173 C 
BRANCH  18  19
ATOM     19  C   UNL     1       5.391  -1.783   2.851  0.00  0.00    +0.227 C 
ATOM     20  O   UNL     1       4.656  -2.748   2.854  0.00  0.00    -0.275 OA
ATOM     21  N   UNL     1       5.011  -0.649   2.229  0.00  0.00    -0.285 N 
ATOM     22  H   UNL     1       5.628   0.096   2.160  0.00  0.00    +0.155 HD
BRANCH  21  23
ATOM     23  C   UNL     1       3.725  -0.547   1.683  0.00  0.00    +0.037 A 
ATOM     24  C   UNL     1       2.657  -1.191   2.295  0.00  0.00    +0.027 A 
ATOM     25  C   UNL     1       1.388  -1.090   1.758  0.00  0.00    +0.051 A 
ATOM     26  C   UNL     1       1.177  -0.347   0.608  0.00  0.00    +0.166 A 
ATOM     27  C   UNL     1       2.246   0.301  -0.008  0.00  0.00    +0.168 A 
ATOM     28  C   UNL     1       3.517   0.199   0.531  0.00  0.00    +0.072 A 
ATOM     29  O   UNL     1       1.781   0.958  -1.110  0.00  0.00    -0.453 OA
ATOM     30  C   UNL     1       0.354   1.044  -0.934  0.00  0.00    +0.466 C 
ATOM     31  O   UNL     1       0.042  -0.094  -0.110  0.00  0.00    -0.453 OA
ENDBRANCH  21  23
ENDBRANCH  18  19
ENDBRANCH  17  18
ENDBRANCH  10  17
TORSDOF 5
