REMARK  Name = ZINC61890553
REMARK  3 active torsions:
REMARK  status: ('A' for Active; 'I' for Inactive)
REMARK    1  A    between atoms: C_3  and  C_17
REMARK    2  A    between atoms: C_5  and  N_8
REMARK    3  A    between atoms: C_9  and  C_11
REMARK                            x       y       z     vdW  Elec       q    Type
REMARK                         _______ _______ _______ _____ _____    ______ ____
ROOT
ATOM      1  N   UNL     1       1.137  -1.208  -1.821  0.00  0.00    -0.310 N 
ATOM      2  C   UNL     1       0.975  -2.543  -1.742  0.00  0.00    +0.231 C 
ATOM      3  O   UNL     1       1.009  -3.095  -0.662  0.00  0.00    -0.274 OA
ATOM      4  H   UNL     1       1.111  -0.766  -2.685  0.00  0.00    +0.149 HD
ENDROOT
BRANCH   2   5
ATOM      5  C   UNL     1       0.753  -3.351  -2.994  0.00  0.00    +0.151 C 
ATOM      6  C   UNL     1      -0.715  -3.159  -3.449  0.00  0.00    +0.098 C 
ATOM      7  S   UNL     1      -1.092  -4.866  -4.048  0.00  0.00    -0.143 S 
ATOM      8  C   UNL     1       0.055  -5.748  -2.900  0.00  0.00    +0.151 C 
ATOM      9  N   UNL     1       1.119  -4.735  -2.723  0.00  0.00    -0.296 NA
ATOM     10  H   UNL     1       1.950  -4.996  -3.232  0.00  0.00    +0.123 HD
ENDBRANCH   2   5
BRANCH   1  14
ATOM     11  C   UNL     1      -0.019   1.538   0.011  0.00  0.00    +0.003 C 
ATOM     12  C   UNL     1       1.477   1.939  -0.002  0.00  0.00    +0.020 C 
ATOM     13  C   UNL     1       2.107   0.881  -0.942  0.00  0.00    +0.112 C 
ATOM     14  C   UNL     1       1.353  -0.422  -0.604  0.00  0.00    +0.090 C 
ATOM     15  C   UNL     1       0.002  -0.004   0.002  0.00  0.00    +0.023 C 
BRANCH  13  16
ATOM     16  C   UNL     1       3.545   0.735  -0.665  0.00  0.00    +0.068 C 
ATOM     17  N   UNL     1       4.655   0.623  -0.450  0.00  0.00    -0.196 NA
ENDBRANCH  13  16
ENDBRANCH   1  14
TORSDOF 3
