REMARK  Name = ZINC11739745
REMARK  12 active torsions:
REMARK  status: ('A' for Active; 'I' for Inactive)
REMARK    1  A    between atoms: C_1  and  C_2
REMARK    2  A    between atoms: C_5  and  O_35
REMARK    3  A    between atoms: C_6  and  N_8
REMARK    4  A    between atoms: C_9  and  C_11
REMARK    5  A    between atoms: C_11  and  C_13
REMARK    6  A    between atoms: C_11  and  O_19
REMARK    7  A    between atoms: O_19  and  C_20
REMARK    8  A    between atoms: C_20  and  C_22
REMARK    9  A    between atoms: C_22  and  C_23
REMARK   10  A    between atoms: C_23  and  C_25
REMARK   11  A    between atoms: C_23  and  N_31
REMARK   12  A    between atoms: O_35  and  C_36
REMARK                            x       y       z     vdW  Elec       q    Type
REMARK                         _______ _______ _______ _____ _____    ______ ____
ROOT
ATOM      1  C   UNL     1      -0.121   1.081   0.246  0.00  0.00    +0.292 C 
ENDROOT
BRANCH   1   2
ATOM      2  C   UNL     1      -0.899   1.530  -0.964  0.00  0.00    +0.002 A 
ATOM      3  C   UNL     1      -0.662   2.776  -1.514  0.00  0.00    +0.008 A 
ATOM      4  C   UNL     1      -1.373   3.186  -2.627  0.00  0.00    +0.000 A 
ATOM      5  C   UNL     1      -2.328   2.355  -3.182  0.00  0.00    +0.000 A 
ATOM      6  C   UNL     1      -2.569   1.112  -2.628  0.00  0.00    +0.000 A 
ATOM      7  C   UNL     1      -1.855   0.699  -1.519  0.00  0.00    +0.008 A 
ENDBRANCH   1   2
BRANCH   1   9
ATOM      8  N   UNL     1      -2.018   1.181   1.831  0.00  0.00    -0.279 N 
ATOM      9  C   UNL     1      -0.783   1.605   1.494  0.00  0.00    +0.263 C 
ATOM     10  O   UNL     1      -0.206   2.410   2.194  0.00  0.00    -0.271 OA
ATOM     11  H   UNL     1      -2.512   0.601   1.230  0.00  0.00    +0.155 HD
BRANCH   8  17
ATOM     12  C   UNL     1      -1.450   2.747   6.457  0.00  0.00    +0.044 C 
ATOM     13  C   UNL     1      -2.336   2.342   5.307  0.00  0.00    -0.048 A 
ATOM     14  C   UNL     1      -3.711   2.362   5.455  0.00  0.00    +0.007 A 
ATOM     15  C   UNL     1      -4.528   1.992   4.404  0.00  0.00    +0.048 A 
ATOM     16  C   UNL     1      -3.971   1.598   3.198  0.00  0.00    +0.141 A 
ATOM     17  C   UNL     1      -2.587   1.578   3.048  0.00  0.00    +0.076 A 
ATOM     18  C   UNL     1      -1.772   1.945   4.109  0.00  0.00    +0.030 A 
BRANCH  16  19
ATOM     19  O   UNL     1      -4.774   1.233   2.163  0.00  0.00    -0.493 OA
ATOM     20  C   UNL     1      -6.185   1.279   2.389  0.00  0.00    +0.277 C 
ENDBRANCH  16  19
ENDBRANCH   8  17
ENDBRANCH   1   9
BRANCH   1  21
ATOM     21  O   UNL     1       1.236   1.593   0.166  0.00  0.00    -0.447 OA
BRANCH  21  22
ATOM     22  C   UNL     1       2.143   0.821  -0.452  0.00  0.00    +0.310 C 
ATOM     23  O   UNL     1       1.815  -0.248  -0.911  0.00  0.00    -0.251 OA
BRANCH  22  24
ATOM     24  C   UNL     1       3.571   1.286  -0.573  0.00  0.00    +0.147 C 
BRANCH  24  25
ATOM     25  C   UNL     1       4.391   0.229  -1.314  0.00  0.00    +0.115 C 
BRANCH  25  26
ATOM     26  N   UNL     1       3.905   0.109  -2.691  0.00  0.00    -0.292 N 
ATOM     27  C   UNL     1       4.023   1.149  -3.540  0.00  0.00    +0.298 C 
ATOM     28  O   UNL     1       4.615   2.153  -3.193  0.00  0.00    -0.253 OA
ATOM     29  N   UNL     1       3.487   1.075  -4.774  0.00  0.00    -0.313 N 
ATOM     30  H   UNL     1       3.497  -0.718  -2.991  0.00  0.00    +0.151 HD
ATOM     31  H   UNL     1       3.015   0.275  -5.051  0.00  0.00    +0.146 HD
ATOM     32  H   UNL     1       3.572   1.824  -5.386  0.00  0.00    +0.146 HD
ENDBRANCH  25  26
BRANCH  25  33
ATOM     33  C   UNL     1       5.842   0.636  -1.328  0.00  0.00    -0.027 A 
ATOM     34  C   UNL     1       6.706   0.087  -2.257  0.00  0.00    +0.005 A 
ATOM     35  C   UNL     1       8.035   0.465  -2.273  0.00  0.00    +0.000 A 
ATOM     36  C   UNL     1       8.503   1.385  -1.353  0.00  0.00    +0.000 A 
ATOM     37  C   UNL     1       7.641   1.930  -0.420  0.00  0.00    +0.000 A 
ATOM     38  C   UNL     1       6.310   1.556  -0.408  0.00  0.00    +0.005 A 
ENDBRANCH  25  33
ENDBRANCH  24  25
ENDBRANCH  22  24
ENDBRANCH  21  22
ENDBRANCH   1  21
TORSDOF 10
