REMARK  Name = ZINC05764466
REMARK  5 active torsions:
REMARK  status: ('A' for Active; 'I' for Inactive)
REMARK    1  A    between atoms: C_1  and  C_2
REMARK    2  A    between atoms: C_10  and  O_25
REMARK    3  A    between atoms: C_21  and  C_22
REMARK    4  A    between atoms: C_21  and  O_24
REMARK    5  A    between atoms: O_25  and  S_26
REMARK                            x       y       z     vdW  Elec       q    Type
REMARK                         _______ _______ _______ _____ _____    ______ ____
ROOT
ATOM      1  C   UNL     1      -2.736   1.904   0.365  0.00  0.00    +0.015 C 
ATOM      2  C   UNL     1      -2.250   1.476  -1.020  0.00  0.00    +0.011 C 
ATOM      3  C   UNL     1      -2.233  -0.035  -1.109  0.00  0.00    +0.011 C 
ATOM      4  C   UNL     1      -1.372  -0.563   0.055  0.00  0.00    +0.009 C 
ATOM      5  C   UNL     1       0.027   0.033  -0.001  0.00  0.00    +0.023 C 
ATOM      6  C   UNL     1       0.877  -0.464   1.132  0.00  0.00    -0.041 A 
ATOM      7  C   UNL     1       0.693  -1.769   1.569  0.00  0.00    +0.008 A 
ATOM      8  C   UNL     1       1.453  -2.279   2.600  0.00  0.00    +0.049 A 
ATOM      9  C   UNL     1       2.413  -1.480   3.205  0.00  0.00    +0.159 A 
ATOM     10  C   UNL     1       2.594  -0.178   2.772  0.00  0.00    +0.052 A 
ATOM     11  C   UNL     1       1.824   0.336   1.738  0.00  0.00    -0.040 A 
ATOM     12  C   UNL     1       2.060   1.768   1.336  0.00  0.00    +0.036 C 
ATOM     13  C   UNL     1       1.425   2.076  -0.019  0.00  0.00    +0.009 C 
ATOM     14  C   UNL     1      -0.015   1.566   0.001  0.00  0.00    +0.000 C 
ATOM     15  C   UNL     1      -0.779   1.987  -1.238  0.00  0.00    +0.002 C 
ATOM     16  C   UNL     1      -1.021   3.493  -1.400  0.00  0.00    +0.008 C 
ATOM     17  C   UNL     1      -2.282   3.555  -2.305  0.00  0.00    +0.049 C 
ATOM     18  C   UNL     1      -3.039   2.220  -2.092  0.00  0.00    +0.132 C 
ENDROOT
BRANCH  18  19
ATOM     19  C   UNL     1      -3.061   1.441  -3.341  0.00  0.00    -0.070 C 
ATOM     20  C   UNL     1      -3.079   0.820  -4.338  0.00  0.00    +0.007 C 
ENDBRANCH  18  19
BRANCH  18  21
ATOM     21  O   UNL     1      -4.371   2.472  -1.641  0.00  0.00    -0.376 OA
ATOM     22  H   UNL     1      -4.921   2.943  -2.282  0.00  0.00    +0.211 HD
ENDBRANCH  18  21
BRANCH   9  23
ATOM     23  O   UNL     1       3.172  -1.974   4.218  0.00  0.00    -0.323 OA
BRANCH  23  24
ATOM     24  S   UNL     1       4.463  -2.637   3.759  0.00  0.00    +0.282 S 
ATOM     25  O   UNL     1       5.022  -3.272   4.900  0.00  0.00    -0.105 OA
ATOM     26  O   UNL     1       4.153  -3.346   2.567  0.00  0.00    -0.105 OA
ATOM     27  O   UNL     1       5.424  -1.524   3.365  0.00  0.00    -0.012 OA
ENDBRANCH  23  24
ENDBRANCH   9  23
TORSDOF 4
