REMARK  Name = ZINC40725855
REMARK  8 active torsions:
REMARK  status: ('A' for Active; 'I' for Inactive)
REMARK    1  A    between atoms: C_1  and  C_2
REMARK    2  A    between atoms: C_2  and  C_4
REMARK    3  A    between atoms: C_2  and  N_10
REMARK    4  A    between atoms: C_12  and  N_26
REMARK    5  A    between atoms: C_13  and  N_17
REMARK    6  A    between atoms: N_17  and  C_18
REMARK    7  A    between atoms: C_18  and  C_19
REMARK    8  A    between atoms: C_19  and  C_20
REMARK                            x       y       z     vdW  Elec       q    Type
REMARK                         _______ _______ _______ _____ _____    ______ ____
ROOT
ATOM      1  N   UNL     1      -1.372  -0.511   0.012  0.00  0.00    -0.321 N 
ATOM      2  C   UNL     1      -2.072  -0.647  -1.181  0.00  0.00    +0.145 A 
ATOM      3  C   UNL     1      -3.384  -1.123  -1.183  0.00  0.00    +0.105 A 
ATOM      4  C   UNL     1      -4.041  -1.240  -2.409  0.00  0.00    +0.145 A 
ATOM      5  N   UNL     1      -3.397  -0.895  -3.521  0.00  0.00    -0.219 NA
ATOM      6  C   UNL     1      -2.158  -0.449  -3.475  0.00  0.00    +0.225 A 
ATOM      7  N   UNL     1      -1.503  -0.319  -2.338  0.00  0.00    -0.219 NA
ATOM      8  H   UNL     1      -1.794  -0.752   0.852  0.00  0.00    +0.148 HD
ENDROOT
BRANCH   3   9
ATOM      9  N   UNL     1      -4.025  -1.477   0.016  0.00  0.00    -0.353 N 
ATOM     10  H   UNL     1      -3.556  -1.391   0.861  0.00  0.00    +0.143 HD
ATOM     11  H   UNL     1      -4.938  -1.806  -0.001  0.00  0.00    +0.143 HD
ENDBRANCH   3   9
BRANCH   1  13
ATOM     12  C   UNL     1      -0.019   1.526   0.010  0.00  0.00    +0.033 C 
ATOM     13  C   UNL     1       0.002  -0.004   0.002  0.00  0.00    +0.099 C 
BRANCH  13  14
ATOM     14  C   UNL     1       0.731  -0.503   1.223  0.00  0.00    -0.028 A 
ATOM     15  C   UNL     1       0.081  -0.558   2.442  0.00  0.00    +0.005 A 
ATOM     16  C   UNL     1       0.749  -1.016   3.562  0.00  0.00    +0.000 A 
ATOM     17  C   UNL     1       2.068  -1.420   3.463  0.00  0.00    +0.000 A 
ATOM     18  C   UNL     1       2.718  -1.365   2.244  0.00  0.00    +0.000 A 
ATOM     19  C   UNL     1       2.048  -0.911   1.123  0.00  0.00    +0.005 A 
ENDBRANCH  13  14
ENDBRANCH   1  13
BRANCH   4  20
ATOM     20  N   UNL     1      -5.348  -1.709  -2.467  0.00  0.00    -0.327 N 
ATOM     21  H   UNL     1      -5.811  -1.959  -1.652  0.00  0.00    +0.148 HD
BRANCH  20  22
ATOM     22  C   UNL     1      -6.027  -1.827  -3.760  0.00  0.00    +0.107 C 
BRANCH  22  23
ATOM     23  C   UNL     1      -7.444  -2.364  -3.545  0.00  0.00    +0.054 C 
BRANCH  23  24
ATOM     24  C   UNL     1      -8.142  -2.485  -4.875  0.00  0.00    -0.046 A 
ATOM     25  C   UNL     1      -8.865  -1.418  -5.375  0.00  0.00    +0.004 A 
ATOM     26  C   UNL     1      -9.506  -1.529  -6.595  0.00  0.00    +0.000 A 
ATOM     27  C   UNL     1      -9.423  -2.707  -7.315  0.00  0.00    +0.000 A 
ATOM     28  C   UNL     1      -8.699  -3.773  -6.815  0.00  0.00    +0.000 A 
ATOM     29  C   UNL     1      -8.055  -3.660  -5.597  0.00  0.00    +0.004 A 
ENDBRANCH  23  24
ENDBRANCH  22  23
ENDBRANCH  20  22
ENDBRANCH   4  20
TORSDOF 7
