REMARK  Name = ZINC08439176
REMARK  8 active torsions:
REMARK  status: ('A' for Active; 'I' for Inactive)
REMARK    1  A    between atoms: C_1  and  C_2
REMARK    2  A    between atoms: C_2  and  O_3
REMARK    3  A    between atoms: O_3  and  C_4
REMARK    4  A    between atoms: C_7  and  S_10
REMARK    5  A    between atoms: S_10  and  N_13
REMARK    6  A    between atoms: C_16  and  N_25
REMARK    7  A    between atoms: N_25  and  C_26
REMARK    8  A    between atoms: C_31  and  C_32
REMARK                            x       y       z     vdW  Elec       q    Type
REMARK                         _______ _______ _______ _____ _____    ______ ____
ROOT
ATOM      1  N   UNL     1       0.276  -7.205  -2.742  0.00  0.00    -0.128 NA
ATOM      2  C   UNL     1       0.025  -8.375  -3.267  0.00  0.00    +0.095 C 
ATOM      3  C   UNL     1      -1.251  -8.623  -3.954  0.00  0.00    +0.057 C 
ATOM      4  C   UNL     1      -1.408  -9.721  -4.729  0.00  0.00    +0.081 C 
ATOM      5  C   UNL     1      -0.299 -10.684  -4.893  0.00  0.00    +0.208 C 
ATOM      6  O   UNL     1      -0.341 -11.527  -5.768  0.00  0.00    -0.285 OA
ATOM      7  C   UNL     1       0.861 -10.609  -3.982  0.00  0.00    +0.033 A 
ATOM      8  C   UNL     1       1.026  -9.466  -3.181  0.00  0.00    +0.013 A 
ATOM      9  C   UNL     1       2.112  -9.377  -2.324  0.00  0.00    +0.011 A 
ATOM     10  C   UNL     1       3.029 -10.414  -2.267  0.00  0.00    +0.001 A 
ATOM     11  C   UNL     1       2.869 -11.537  -3.060  0.00  0.00    +0.001 A 
ATOM     12  C   UNL     1       1.788 -11.644  -3.909  0.00  0.00    +0.012 A 
ENDROOT
BRANCH   1  13
ATOM     13  S   UNL     1       1.821  -6.609  -2.750  0.00  0.00    +0.099 S 
ATOM     14  O   UNL     1       2.569  -7.430  -3.636  0.00  0.00    -0.146 OA
ATOM     15  O   UNL     1       2.191  -6.420  -1.391  0.00  0.00    -0.146 OA
BRANCH  13  19
ATOM     16  C   UNL     1       1.657  -2.492  -4.630  0.00  0.00    +0.121 A 
ATOM     17  C   UNL     1       1.500  -2.637  -3.259  0.00  0.00    +0.047 A 
ATOM     18  C   UNL     1       1.550  -3.894  -2.688  0.00  0.00    +0.032 A 
ATOM     19  C   UNL     1       1.757  -5.007  -3.482  0.00  0.00    +0.113 A 
ATOM     20  C   UNL     1       1.914  -4.865  -4.848  0.00  0.00    +0.032 A 
ATOM     21  C   UNL     1       1.859  -3.611  -5.425  0.00  0.00    +0.047 A 
BRANCH  16  22
ATOM     22  O   UNL     1       1.607  -1.257  -5.194  0.00  0.00    -0.492 OA
BRANCH  22  24
ATOM     23  C   UNL     1       1.371   1.147  -5.125  0.00  0.00    +0.048 C 
ATOM     24  C   UNL     1       1.397  -0.150  -4.315  0.00  0.00    +0.225 C 
ENDBRANCH  22  24
ENDBRANCH  16  22
ENDBRANCH  13  19
ENDBRANCH   1  13
BRANCH   4  25
ATOM     25  N   UNL     1      -2.617  -9.944  -5.372  0.00  0.00    -0.311 N 
ATOM     26  H   UNL     1      -2.937  -9.313  -6.035  0.00  0.00    +0.152 HD
BRANCH  25  27
ATOM     27  C   UNL     1      -3.372 -11.078  -5.064  0.00  0.00    +0.034 A 
ATOM     28  C   UNL     1      -2.976 -11.920  -4.032  0.00  0.00    +0.023 A 
ATOM     29  C   UNL     1      -3.726 -13.039  -3.730  0.00  0.00    +0.002 A 
ATOM     30  C   UNL     1      -4.869 -13.323  -4.454  0.00  0.00    +0.000 A 
ATOM     31  C   UNL     1      -5.266 -12.488  -5.482  0.00  0.00    +0.005 A 
ATOM     32  C   UNL     1      -4.524 -11.364  -5.786  0.00  0.00    -0.029 A 
ATOM     33  C   UNL     1      -4.961 -10.451  -6.903  0.00  0.00    +0.045 C 
ENDBRANCH  25  27
ENDBRANCH   4  25
TORSDOF 6
