REMARK  Name = ZINC44171073
REMARK  11 active torsions:
REMARK  status: ('A' for Active; 'I' for Inactive)
REMARK    1  A    between atoms: C_3  and  O_33
REMARK    2  A    between atoms: C_6  and  C_7
REMARK    3  A    between atoms: C_8  and  C_9
REMARK    4  A    between atoms: C_11  and  O_32
REMARK    5  A    between atoms: C_13  and  O_15
REMARK    6  A    between atoms: O_15  and  C_16
REMARK    7  A    between atoms: C_18  and  O_31
REMARK    8  A    between atoms: C_20  and  O_30
REMARK    9  A    between atoms: C_22  and  O_29
REMARK   10  A    between atoms: C_24  and  C_27
REMARK   11  A    between atoms: C_27  and  O_28
REMARK                            x       y       z     vdW  Elec       q    Type
REMARK                         _______ _______ _______ _____ _____    ______ ____
ROOT
ATOM      1  C   UNL     1       0.016  -2.864  -0.100  0.00  0.00    -0.018 A 
ATOM      2  C   UNL     1       1.210  -2.171   0.108  0.00  0.00    +0.053 A 
ATOM      3  C   UNL     1       2.415  -2.852   0.094  0.00  0.00    +0.121 A 
ATOM      4  C   UNL     1       2.438  -4.222  -0.127  0.00  0.00    +0.091 A 
ATOM      5  C   UNL     1       1.254  -4.915  -0.335  0.00  0.00    +0.128 A 
ATOM      6  C   UNL     1       0.043  -4.244  -0.316  0.00  0.00    +0.054 A 
ENDROOT
BRANCH   1   8
ATOM      7  C   UNL     1      -1.355  -0.912  -0.614  0.00  0.00    +0.008 C 
ATOM      8  C   UNL     1      -1.270  -2.143  -0.086  0.00  0.00    +0.009 C 
BRANCH   7  14
ATOM      9  C   UNL     1       0.530  -1.202  -2.212  0.00  0.00    +0.011 A 
ATOM     10  C   UNL     1       1.582  -0.685  -2.936  0.00  0.00    +0.046 A 
ATOM     11  C   UNL     1       1.889   0.667  -2.851  0.00  0.00    +0.117 A 
ATOM     12  C   UNL     1       1.138   1.504  -2.035  0.00  0.00    +0.046 A 
ATOM     13  C   UNL     1       0.085   0.996  -1.307  0.00  0.00    +0.011 A 
ATOM     14  C   UNL     1      -0.229  -0.364  -1.390  0.00  0.00    -0.025 A 
BRANCH  11  15
ATOM     15  O   UNL     1       2.927   1.173  -3.567  0.00  0.00    -0.507 OA
ATOM     16  H   UNL     1       2.681   1.485  -4.449  0.00  0.00    +0.292 HD
ENDBRANCH  11  15
ENDBRANCH   7  14
ENDBRANCH   1   8
BRANCH   3  17
ATOM     17  O   UNL     1       3.578  -2.179   0.296  0.00  0.00    -0.507 OA
ATOM     18  H   UNL     1       3.846  -2.125   1.224  0.00  0.00    +0.292 HD
ENDBRANCH   3  17
BRANCH   5  19
ATOM     19  O   UNL     1       1.282  -6.257  -0.552  0.00  0.00    -0.461 OA
BRANCH  19  20
ATOM     20  C   UNL     1       2.565  -6.887  -0.552  0.00  0.00    +0.339 C 
ATOM     21  C   UNL     1       2.389  -8.402  -0.687  0.00  0.00    +0.214 C 
ATOM     22  C   UNL     1       1.718  -8.713  -2.028  0.00  0.00    +0.180 C 
ATOM     23  C   UNL     1       2.565  -8.124  -3.159  0.00  0.00    +0.177 C 
ATOM     24  C   UNL     1       2.734  -6.620  -2.930  0.00  0.00    +0.179 C 
ATOM     25  O   UNL     1       3.335  -6.399  -1.652  0.00  0.00    -0.331 OA
BRANCH  23  26
ATOM     26  O   UNL     1       1.912  -8.347  -4.411  0.00  0.00    -0.386 OA
ATOM     27  H   UNL     1       1.769  -9.280  -4.619  0.00  0.00    +0.210 HD
ENDBRANCH  23  26
BRANCH  22  28
ATOM     28  O   UNL     1       0.412  -8.134  -2.054  0.00  0.00    -0.386 OA
ATOM     29  H   UNL     1      -0.177  -8.459  -1.359  0.00  0.00    +0.210 HD
ENDBRANCH  22  28
BRANCH  21  30
ATOM     30  O   UNL     1       3.668  -9.037  -0.632  0.00  0.00    -0.383 OA
ATOM     31  H   UNL     1       4.152  -8.878   0.190  0.00  0.00    +0.210 HD
ENDBRANCH  21  30
BRANCH  24  32
ATOM     32  C   UNL     1       3.629  -6.034  -4.024  0.00  0.00    +0.190 C 
BRANCH  32  33
ATOM     33  O   UNL     1       3.692  -4.614  -3.877  0.00  0.00    -0.392 OA
ATOM     34  H   UNL     1       4.244  -4.174  -4.539  0.00  0.00    +0.210 HD
ENDBRANCH  32  33
ENDBRANCH  24  32
ENDBRANCH  19  20
ENDBRANCH   5  19
TORSDOF 11
