REMARK  Name = ZINC09158554
REMARK  15 active torsions:
REMARK  status: ('A' for Active; 'I' for Inactive)
REMARK    1  A    between atoms: C_1  and  C_2
REMARK    2  A    between atoms: C_2  and  N_3
REMARK    3  A    between atoms: N_3  and  C_4
REMARK    4  A    between atoms: N_3  and  C_6
REMARK    5  A    between atoms: C_4  and  C_5
REMARK    6  A    between atoms: C_9  and  C_12
REMARK    7  A    between atoms: C_20  and  O_38
REMARK    8  A    between atoms: C_23  and  C_24
REMARK    9  A    between atoms: C_23  and  N_78
REMARK   10  A    between atoms: N_26  and  C_27
REMARK   11  A    between atoms: C_28  and  C_34
REMARK   12  A    between atoms: C_29  and  C_33
REMARK   13  A    between atoms: C_30  and  C_32
REMARK   14  A    between atoms: C_34  and  O_36
REMARK   15  A    between atoms: O_36  and  C_37
REMARK                            x       y       z     vdW  Elec       q    Type
REMARK                         _______ _______ _______ _____ _____    ______ ____
ROOT
ATOM      1  C   UNL     1      -2.554   3.866   0.047  0.00  0.00    -0.031 C 
ATOM      2  C   UNL     1      -3.135   3.903  -1.367  0.00  0.00    +0.011 C 
ATOM      3  C   UNL     1      -2.164   4.636  -2.293  0.00  0.00    +0.005 C 
ATOM      4  C   UNL     1      -1.968   6.076  -1.815  0.00  0.00    +0.000 C 
ATOM      5  C   UNL     1      -3.317   6.798  -1.813  0.00  0.00    +0.003 C 
ATOM      6  C   UNL     1      -4.280   6.077  -0.869  0.00  0.00    +0.035 C 
ATOM      7  C   UNL     1      -4.479   4.635  -1.343  0.00  0.00    +0.066 C 
ATOM      8  C   UNL     1      -5.420   3.913  -0.372  0.00  0.00    +0.016 C 
ATOM      9  C   UNL     1      -4.776   3.875   1.016  0.00  0.00    -0.075 C 
ATOM     10  N   UNL     1      -3.494   3.145   0.932  0.00  0.00    +0.390 N 
ATOM     11  H   UNL     1      -3.667   2.211   0.542  0.00  0.00    -0.080 HD
ENDROOT
BRANCH   1  15
ATOM     12  C   UNL     1       1.180   1.788   0.000  0.00  0.00    +0.030 A 
ATOM     13  C   UNL     1      -0.013   1.076   0.008  0.00  0.00    +0.023 A 
ATOM     14  C   UNL     1      -1.217   1.751   0.017  0.00  0.00    +0.004 A 
ATOM     15  C   UNL     1      -1.237   3.134   0.031  0.00  0.00    -0.060 A 
ATOM     16  C   UNL     1      -0.051   3.845   0.023  0.00  0.00    +0.004 A 
ATOM     17  C   UNL     1       1.157   3.176   0.008  0.00  0.00    +0.023 A 
BRANCH  12  18
ATOM     18  N   UNL     1       2.401   1.108  -0.015  0.00  0.00    -0.330 N 
BRANCH  18  20
ATOM     19  C   UNL     1       4.109   2.115   1.417  0.00  0.00    +0.024 C 
ATOM     20  C   UNL     1       3.658   1.860  -0.022  0.00  0.00    +0.102 C 
ENDBRANCH  18  20
BRANCH  18  21
ATOM     21  C   UNL     1       2.423  -0.357  -0.022  0.00  0.00    +0.102 C 
ATOM     22  C   UNL     1       2.418  -0.859  -1.467  0.00  0.00    +0.024 C 
ENDBRANCH  18  21
ENDBRANCH  12  18
ENDBRANCH   1  15
BRANCH   7  23
ATOM     23  O   UNL     1      -5.049   4.636  -2.653  0.00  0.00    -0.388 OA
ATOM     24  H   UNL     1      -5.907   5.077  -2.709  0.00  0.00    +0.210 HD
ENDBRANCH   7  23
BRANCH  10  25
ATOM     25  C   UNL     1      -2.907   3.000   2.280  0.00  0.00    +0.020 C 
BRANCH  25  26
ATOM     26  C   UNL     1      -3.780   2.080   3.093  0.00  0.00    +0.201 C 
ATOM     27  O   UNL     1      -4.789   1.614   2.606  0.00  0.00    -0.278 OA
ATOM     28  N   UNL     1      -3.442   1.774   4.361  0.00  0.00    -0.281 N 
ATOM     29  H   UNL     1      -2.635   2.147   4.751  0.00  0.00    +0.155 HD
BRANCH  28  30
ATOM     30  C   UNL     1      -4.245   0.928   5.109  0.00  0.00    +0.086 A 
ATOM     31  C   UNL     1      -4.064   0.499   6.420  0.00  0.00    +0.091 A 
ATOM     32  C   UNL     1      -5.067  -0.391   6.955  0.00  0.00    -0.025 A 
ATOM     33  C   UNL     1      -6.085  -0.728   6.144  0.00  0.00    -0.008 A 
ATOM     34  S   UNL     1      -5.721   0.153   4.640  0.00  0.00    -0.078 S 
ATOM     35  C   UNL     1      -7.256  -1.630   6.438  0.00  0.00    +0.052 C 
ATOM     36  C   UNL     1      -4.977  -0.920   8.363  0.00  0.00    +0.045 C 
BRANCH  31  37
ATOM     37  C   UNL     1      -2.915   0.930   7.218  0.00  0.00    +0.342 C 
ATOM     38  O   UNL     1      -2.988   1.938   7.895  0.00  0.00    -0.245 OA
BRANCH  37  39
ATOM     39  O   UNL     1      -1.774   0.210   7.201  0.00  0.00    -0.464 OA
ATOM     40  C   UNL     1      -0.676   0.696   8.016  0.00  0.00    +0.280 C 
ENDBRANCH  37  39
ENDBRANCH  31  37
ENDBRANCH  28  30
ENDBRANCH  25  26
ENDBRANCH  10  25
TORSDOF 10
