REMARK  Name = ZINC14478041
REMARK  4 active torsions:
REMARK  status: ('A' for Active; 'I' for Inactive)
REMARK    1  A    between atoms: C_4  and  N_32
REMARK    2  A    between atoms: C_5  and  C_7
REMARK    3  A    between atoms: C_18  and  S_23
REMARK    4  A    between atoms: S_23  and  N_26
REMARK                            x       y       z     vdW  Elec       q    Type
REMARK                         _______ _______ _______ _____ _____    ______ ____
ROOT
ATOM      1  C   UNL     1       9.926   2.050   0.763  0.00  0.00    +0.107 C 
ATOM      2  C   UNL     1       9.589   0.612   1.113  0.00  0.00    +0.029 C 
ATOM      3  C   UNL     1      10.756  -0.262   1.582  0.00  0.00    +0.033 C 
ATOM      4  C   UNL     1      10.027  -1.263   2.479  0.00  0.00    -0.030 C 
ATOM      5  C   UNL     1       8.917  -0.716   2.961  0.00  0.00    -0.023 C 
ATOM      6  C   UNL     1       8.824   0.681   2.468  0.00  0.00    +0.049 C 
ATOM      7  C   UNL     1       7.524   1.342   2.223  0.00  0.00    -0.018 A 
ATOM      8  C   UNL     1       6.378   0.998   2.907  0.00  0.00    +0.034 A 
ATOM      9  C   UNL     1       5.193   1.667   2.664  0.00  0.00    +0.106 A 
ATOM     10  C   UNL     1       5.156   2.694   1.740  0.00  0.00    +0.030 A 
ATOM     11  C   UNL     1       6.298   3.046   1.048  0.00  0.00    +0.025 A 
ATOM     12  C   UNL     1       7.491   2.371   1.275  0.00  0.00    +0.031 A 
ATOM     13  N   UNL     1       8.628   2.721   0.537  0.00  0.00    -0.336 N 
ATOM     14  H   UNL     1       8.562   3.417  -0.136  0.00  0.00    +0.147 HD
ENDROOT
BRANCH   1  19
ATOM     15  C   UNL     1      11.621   1.030  -2.452  0.00  0.00    +0.000 A 
ATOM     16  C   UNL     1      12.296   2.189  -2.788  0.00  0.00    +0.002 A 
ATOM     17  C   UNL     1      12.204   3.303  -1.974  0.00  0.00    +0.033 A 
ATOM     18  C   UNL     1      11.433   3.259  -0.828  0.00  0.00    +0.131 A 
ATOM     19  C   UNL     1      10.762   2.099  -0.489  0.00  0.00    +0.003 A 
ATOM     20  C   UNL     1      10.854   0.985  -1.303  0.00  0.00    +0.008 A 
BRANCH  18  21
ATOM     21  N   UNL     1      11.329   4.454   0.040  0.00  0.00    +0.057 N 
ATOM     22  O   UNL     1      12.008   5.438  -0.194  0.00  0.00    -0.126 OA
ATOM     23  O   UNL     1      10.566   4.453   0.989  0.00  0.00    -0.126 OA
ENDBRANCH  18  21
ENDBRANCH   1  19
BRANCH   9  24
ATOM     24  S   UNL     1       3.731   1.215   3.538  0.00  0.00    +0.061 S 
ATOM     25  O   UNL     1       2.884   2.356   3.531  0.00  0.00    -0.153 OA
ATOM     26  O   UNL     1       4.154   0.588   4.741  0.00  0.00    -0.153 OA
BRANCH  24  27
ATOM     27  N   UNL     1       2.965   0.052   2.642  0.00  0.00    -0.177 NA
ATOM     28  C   UNL     1       1.974   0.424   1.622  0.00  0.00    +0.109 C 
ATOM     29  C   UNL     1       0.676  -0.343   1.894  0.00  0.00    +0.017 C 
ATOM     30  C   UNL     1       0.977  -1.842   1.960  0.00  0.00    +0.003 C 
ATOM     31  C   UNL     1       1.950  -2.118   3.109  0.00  0.00    +0.017 C 
ATOM     32  C   UNL     1       3.263  -1.372   2.851  0.00  0.00    +0.109 C 
ENDBRANCH  24  27
ENDBRANCH   9  24
TORSDOF 4
