REMARK  Name = ZINC09448112
REMARK  10 active torsions:
REMARK  status: ('A' for Active; 'I' for Inactive)
REMARK    1  A    between atoms: C_1  and  C_2
REMARK    2  A    between atoms: C_2  and  C_4
REMARK    3  A    between atoms: C_2  and  S_20
REMARK    4  A    between atoms: N_6  and  C_7
REMARK    5  A    between atoms: C_10  and  N_17
REMARK    6  A    between atoms: C_12  and  C_13
REMARK    7  A    between atoms: S_20  and  C_21
REMARK    8  A    between atoms: C_24  and  C_29
REMARK    9  A    between atoms: N_25  and  C_26
REMARK   10  A    between atoms: C_26  and  C_27
REMARK                            x       y       z     vdW  Elec       q    Type
REMARK                         _______ _______ _______ _____ _____    ______ ____
ROOT
ATOM      1  C   UNL     1       0.070   1.962   0.498  0.00  0.00    +0.029 C 
ATOM      2  C   UNL     1       0.248   0.449   0.359  0.00  0.00    +0.137 C 
ENDROOT
BRANCH   2   3
ATOM      3  C   UNL     1       1.101   0.153  -0.847  0.00  0.00    +0.230 C 
ATOM      4  O   UNL     1       0.578  -0.103  -1.911  0.00  0.00    -0.274 OA
ATOM      5  N   UNL     1       2.445   0.172  -0.744  0.00  0.00    -0.284 N 
ATOM      6  H   UNL     1       2.864   0.453   0.085  0.00  0.00    +0.155 HD
BRANCH   5   7
ATOM      7  C   UNL     1       3.236  -0.215  -1.831  0.00  0.00    +0.045 A 
ATOM      8  C   UNL     1       2.720  -1.068  -2.798  0.00  0.00    +0.026 A 
ATOM      9  C   UNL     1       3.503  -1.448  -3.870  0.00  0.00    +0.034 A 
ATOM     10  C   UNL     1       4.800  -0.980  -3.982  0.00  0.00    +0.127 A 
ATOM     11  C   UNL     1       5.316  -0.131  -3.020  0.00  0.00    +0.047 A 
ATOM     12  C   UNL     1       4.536   0.258  -1.949  0.00  0.00    +0.078 A 
BRANCH  12  13
ATOM     13  C   UNL     1       5.097   1.189  -0.905  0.00  0.00    +0.419 C 
ATOM     14  F   UNL     1       6.413   1.525  -1.240  0.00  0.00    -0.166 F 
ATOM     15  F   UNL     1       4.319   2.351  -0.850  0.00  0.00    -0.166 F 
ATOM     16  F   UNL     1       5.080   0.556   0.342  0.00  0.00    -0.166 F 
ENDBRANCH  12  13
BRANCH  10  17
ATOM     17  N   UNL     1       5.636  -1.389  -5.132  0.00  0.00    +0.056 N 
ATOM     18  O   UNL     1       5.186  -2.132  -5.973  0.00  0.00    -0.126 OA
ATOM     19  O   UNL     1       6.770  -0.980  -5.231  0.00  0.00    -0.126 OA
ENDBRANCH  10  17
ENDBRANCH   5   7
ENDBRANCH   2   3
BRANCH   2  20
ATOM     20  S   UNL     1      -1.375  -0.335   0.160  0.00  0.00    -0.073 S 
BRANCH  20  21
ATOM     21  C   UNL     1      -2.189  -0.027   1.692  0.00  0.00    +0.193 A 
ATOM     22  N   UNL     1      -1.697   0.632   2.717  0.00  0.00    -0.122 NA
ATOM     23  N   UNL     1      -2.557   0.670   3.672  0.00  0.00    -0.128 NA
ATOM     24  C   UNL     1      -3.650   0.037   3.314  0.00  0.00    +0.165 A 
ATOM     25  N   UNL     1      -3.450  -0.423   2.034  0.00  0.00    -0.298 N 
BRANCH  24  26
ATOM     26  C   UNL     1      -4.869  -0.141   4.132  0.00  0.00    +0.019 A 
ATOM     27  C   UNL     1      -5.779  -1.153   3.822  0.00  0.00    +0.011 A 
ATOM     28  C   UNL     1      -6.914  -1.314   4.590  0.00  0.00    +0.001 A 
ATOM     29  C   UNL     1      -7.151  -0.475   5.664  0.00  0.00    +0.000 A 
ATOM     30  C   UNL     1      -6.253   0.530   5.976  0.00  0.00    +0.001 A 
ATOM     31  C   UNL     1      -5.112   0.699   5.221  0.00  0.00    +0.011 A 
ENDBRANCH  24  26
BRANCH  25  32
ATOM     32  C   UNL     1      -4.393  -1.183   1.209  0.00  0.00    +0.152 C 
BRANCH  32  33
ATOM     33  C   UNL     1      -4.098  -2.655   1.336  0.00  0.00    -0.013 C 
ATOM     34  C   UNL     1      -5.052  -3.488   1.672  0.00  0.00    +0.005 C 
ENDBRANCH  32  33
ENDBRANCH  25  32
ENDBRANCH  20  21
ENDBRANCH   2  20
TORSDOF 9
