REMARK  Name = ZINC40313518
REMARK  11 active torsions:
REMARK  status: ('A' for Active; 'I' for Inactive)
REMARK    1  A    between atoms: C_1  and  C_2
REMARK    2  A    between atoms: C_6  and  O_8
REMARK    3  A    between atoms: O_8  and  C_9
REMARK    4  A    between atoms: C_9  and  C_10
REMARK    5  A    between atoms: C_10  and  C_12
REMARK    6  A    between atoms: C_10  and  O_36
REMARK    7  A    between atoms: C_12  and  N_13
REMARK    8  A    between atoms: N_13  and  C_14
REMARK    9  A    between atoms: N_13  and  C_28
REMARK   10  A    between atoms: C_14  and  C_15
REMARK   11  A    between atoms: C_18  and  C_20
REMARK                            x       y       z     vdW  Elec       q    Type
REMARK                         _______ _______ _______ _____ _____    ______ ____
ROOT
ATOM      1  N   UNL     1      -0.305  -6.818   4.925  0.00  0.00    +0.389 N 
ATOM      2  H   UNL     1      -0.971  -6.933   5.674  0.00  0.00    -0.081 HD
ENDROOT
BRANCH   1   3
ATOM      3  C   UNL     1       0.936  -6.241   5.456  0.00  0.00    -0.045 C 
ATOM      4  C   UNL     1       2.100  -6.538   4.496  0.00  0.00    +0.009 C 
ATOM      5  C   UNL     1       3.449  -6.223   5.188  0.00  0.00    +0.164 C 
ATOM      6  S   UNL     1       3.063  -6.490   6.966  0.00  0.00    -0.033 S 
ATOM      7  O   UNL     1       3.216  -5.261   7.662  0.00  0.00    -0.174 OA
ATOM      8  O   UNL     1       3.757  -7.644   7.421  0.00  0.00    -0.174 OA
ATOM      9  C   UNL     1       1.268  -6.885   6.833  0.00  0.00    +0.151 C 
ENDBRANCH   1   3
BRANCH   1  10
ATOM     10  C   UNL     1      -0.865  -5.921   3.905  0.00  0.00    -0.043 C 
BRANCH  10  11
ATOM     11  C   UNL     1      -1.438  -4.674   4.582  0.00  0.00    +0.135 C 
BRANCH  11  12
ATOM     12  O   UNL     1      -0.370  -3.889   5.116  0.00  0.00    -0.390 OA
ATOM     13  H   UNL     1       0.221  -3.521   4.444  0.00  0.00    +0.210 HD
ENDBRANCH  11  12
BRANCH  11  14
ATOM     14  C   UNL     1      -2.216  -3.848   3.556  0.00  0.00    +0.258 C 
BRANCH  14  15
ATOM     15  O   UNL     1      -2.848  -2.747   4.211  0.00  0.00    -0.489 OA
BRANCH  15  21
ATOM     16  C   UNL     1      -5.669   1.218   3.836  0.00  0.00    +0.044 C 
ATOM     17  C   UNL     1      -4.973   0.034   3.216  0.00  0.00    -0.047 A 
ATOM     18  C   UNL     1      -5.083  -0.200   1.858  0.00  0.00    +0.003 A 
ATOM     19  C   UNL     1      -4.445  -1.285   1.287  0.00  0.00    +0.004 A 
ATOM     20  C   UNL     1      -3.696  -2.140   2.073  0.00  0.00    +0.045 A 
ATOM     21  C   UNL     1      -3.584  -1.907   3.436  0.00  0.00    +0.121 A 
ATOM     22  C   UNL     1      -4.220  -0.814   4.005  0.00  0.00    +0.049 A 
ENDBRANCH  15  21
ENDBRANCH  14  15
ENDBRANCH  11  14
ENDBRANCH  10  11
ENDBRANCH   1  10
BRANCH   1  23
ATOM     23  C   UNL     1      -0.018  -8.126   4.321  0.00  0.00    -0.003 C 
BRANCH  23  24
ATOM     24  C   UNL     1       0.427  -9.088   5.393  0.00  0.00    +0.089 A 
ATOM     25  C   UNL     1      -0.388  -9.808   6.189  0.00  0.00    +0.043 A 
ATOM     26  C   UNL     1       0.436 -10.570   7.042  0.00  0.00    +0.050 A 
ATOM     27  C   UNL     1       1.721 -10.269   6.716  0.00  0.00    +0.137 A 
ATOM     28  O   UNL     1       1.700  -9.373   5.710  0.00  0.00    -0.462 OA
BRANCH  27  29
ATOM     29  C   UNL     1       2.931 -10.831   7.351  0.00  0.00    +0.037 A 
ATOM     30  C   UNL     1       3.053 -10.842   8.742  0.00  0.00    +0.033 A 
ATOM     31  C   UNL     1       4.185 -11.369   9.329  0.00  0.00    +0.042 A 
ATOM     32  C   UNL     1       5.200 -11.887   8.541  0.00  0.00    +0.021 A 
ATOM     33  C   UNL     1       5.086 -11.880   7.163  0.00  0.00    +0.022 A 
ATOM     34  C   UNL     1       3.956 -11.360   6.563  0.00  0.00    +0.052 A 
ATOM     35 CL   UNL     1       3.812 -11.358   4.833  0.00  0.00    -0.083 Cl
ATOM     36 CL   UNL     1       4.338 -11.383  11.058  0.00  0.00    -0.084 Cl
ENDBRANCH  27  29
ENDBRANCH  23  24
ENDBRANCH   1  23
TORSDOF 10
