REMARK  Name = ZINC20923900
REMARK  10 active torsions:
REMARK  status: ('A' for Active; 'I' for Inactive)
REMARK    1  A    between atoms: C_1  and  C_2
REMARK    2  A    between atoms: C_2  and  C_3
REMARK    3  A    between atoms: C_7  and  C_33
REMARK    4  A    between atoms: C_8  and  N_9
REMARK    5  A    between atoms: C_10  and  C_12
REMARK    6  A    between atoms: C_12  and  N_13
REMARK    7  A    between atoms: N_13  and  C_14
REMARK    8  A    between atoms: N_13  and  S_20
REMARK    9  A    between atoms: S_20  and  C_23
REMARK   10  A    between atoms: C_27  and  N_29
REMARK                            x       y       z     vdW  Elec       q    Type
REMARK                         _______ _______ _______ _____ _____    ______ ____
ROOT
ATOM      1  N   UNL     1      -2.087  -1.060  -3.105  0.00  0.00    -0.194 N 
ENDROOT
BRANCH   1   2
ATOM      2  C   UNL     1      -2.509  -0.604  -4.356  0.00  0.00    +0.052 A 
ATOM      3  C   UNL     1      -1.629  -0.607  -5.431  0.00  0.00    +0.025 A 
ATOM      4  C   UNL     1      -2.050  -0.160  -6.668  0.00  0.00    +0.002 A 
ATOM      5  C   UNL     1      -3.344   0.300  -6.834  0.00  0.00    +0.000 A 
ATOM      6  C   UNL     1      -4.221   0.309  -5.765  0.00  0.00    +0.002 A 
ATOM      7  C   UNL     1      -3.807  -0.141  -4.527  0.00  0.00    +0.025 A 
ENDBRANCH   1   2
BRANCH   1   8
ATOM      8  S   UNL     1      -2.127  -0.046  -1.797  0.00  0.00    +0.075 S 
ATOM      9  O   UNL     1      -2.286  -0.869  -0.649  0.00  0.00    -0.150 OA
ATOM     10  O   UNL     1      -3.039   0.996  -2.119  0.00  0.00    -0.150 OA
BRANCH   8  11
ATOM     11  C   UNL     1      -0.536   0.700  -1.666  0.00  0.00    +0.111 A 
ATOM     12  C   UNL     1       0.450   0.096  -0.909  0.00  0.00    +0.030 A 
ATOM     13  C   UNL     1       1.698   0.680  -0.806  0.00  0.00    +0.024 A 
ATOM     14  C   UNL     1       1.960   1.870  -1.461  0.00  0.00    +0.071 A 
ATOM     15  C   UNL     1       0.973   2.474  -2.219  0.00  0.00    +0.146 A 
ATOM     16  C   UNL     1      -0.275   1.889  -2.321  0.00  0.00    +0.063 A 
ATOM     17 CL   UNL     1       3.528   2.605  -1.332  0.00  0.00    -0.081 Cl
BRANCH  15  18
ATOM     18  N   UNL     1       1.253   3.747  -2.921  0.00  0.00    +0.058 N 
ATOM     19  O   UNL     1       0.384   4.278  -3.589  0.00  0.00    -0.126 OA
ATOM     20  O   UNL     1       2.353   4.262  -2.831  0.00  0.00    -0.126 OA
ENDBRANCH  15  18
ENDBRANCH   8  11
ENDBRANCH   1   8
BRANCH   1  21
ATOM     21  C   UNL     1      -1.609  -2.437  -2.950  0.00  0.00    +0.227 C 
BRANCH  21  23
ATOM     22  N   UNL     1      -2.582  -4.676  -2.559  0.00  0.00    -0.284 N 
ATOM     23  C   UNL     1      -2.783  -3.355  -2.728  0.00  0.00    +0.236 C 
ATOM     24  O   UNL     1      -3.909  -2.904  -2.702  0.00  0.00    -0.274 OA
ATOM     25  H   UNL     1      -1.558  -5.073  -2.492  0.00  0.00    +0.155 HD
BRANCH  22  31
ATOM     26  C   UNL     1      -3.787  -6.617  -3.343  0.00  0.00    -0.026 A 
ATOM     27  C   UNL     1      -4.868  -7.472  -3.251  0.00  0.00    +0.005 A 
ATOM     28  C   UNL     1      -5.840  -7.260  -2.291  0.00  0.00    +0.001 A 
ATOM     29  C   UNL     1      -5.732  -6.192  -1.419  0.00  0.00    +0.005 A 
ATOM     30  C   UNL     1      -4.651  -5.337  -1.501  0.00  0.00    -0.029 A 
ATOM     31  C   UNL     1      -3.676  -5.544  -2.469  0.00  0.00    +0.040 A 
ATOM     32  C   UNL     1      -4.531  -4.178  -0.546  0.00  0.00    +0.045 C 
BRANCH  26  34
ATOM     33  C   UNL     1      -1.577  -7.652  -3.784  0.00  0.00    +0.009 C 
ATOM     34  C   UNL     1      -2.729  -6.849  -4.391  0.00  0.00    +0.033 C 
ENDBRANCH  26  34
ENDBRANCH  22  31
ENDBRANCH  21  23
ENDBRANCH   1  21
TORSDOF 8
