REMARK  Name = ZINC62227572
REMARK  10 active torsions:
REMARK  status: ('A' for Active; 'I' for Inactive)
REMARK    1  A    between atoms: C_1  and  C_2
REMARK    2  A    between atoms: C_2  and  C_3
REMARK    3  A    between atoms: C_2  and  C_4
REMARK    4  A    between atoms: C_4  and  C_5
REMARK    5  A    between atoms: C_5  and  C_6
REMARK    6  A    between atoms: C_5  and  N_20
REMARK    7  A    between atoms: N_8  and  C_9
REMARK    8  A    between atoms: C_9  and  C_10
REMARK    9  A    between atoms: C_10  and  C_11
REMARK   10  A    between atoms: C_11  and  C_12
REMARK                            x       y       z     vdW  Elec       q    Type
REMARK                         _______ _______ _______ _____ _____    ______ ____
ROOT
ATOM      1  C   UNL     1       0.510  -0.951   3.677  0.00  0.00    +0.233 C 
ATOM      2  O   UNL     1       1.163  -0.253   4.424  0.00  0.00    -0.274 OA
ATOM      3  N   UNL     1       0.383  -2.270   3.926  0.00  0.00    -0.314 N 
ATOM      4  H   UNL     1      -0.140  -2.828   3.329  0.00  0.00    +0.149 HD
ENDROOT
BRANCH   1   5
ATOM      5  C   UNL     1      -0.161  -0.344   2.472  0.00  0.00    +0.161 C 
BRANCH   5   6
ATOM      6  N   UNL     1      -0.290   1.103   2.662  0.00  0.00    -0.288 N 
ATOM      7  C   UNL     1       0.810   1.861   2.839  0.00  0.00    +0.298 C 
ATOM      8  O   UNL     1       1.911   1.343   2.841  0.00  0.00    -0.253 OA
ATOM      9  N   UNL     1       0.691   3.192   3.014  0.00  0.00    -0.313 N 
ATOM     10  H   UNL     1      -1.168   1.516   2.661  0.00  0.00    +0.151 HD
ATOM     11  H   UNL     1      -0.186   3.604   3.013  0.00  0.00    +0.146 HD
ATOM     12  H   UNL     1       1.484   3.737   3.142  0.00  0.00    +0.146 HD
ENDBRANCH   5   6
BRANCH   5  13
ATOM     13  C   UNL     1       0.683  -0.621   1.226  0.00  0.00    +0.034 C 
BRANCH  13  15
ATOM     14  C   UNL     1       0.864  -0.229  -1.235  0.00  0.00    +0.007 C 
ATOM     15  C   UNL     1      -0.039  -0.079  -0.009  0.00  0.00    -0.015 C 
ATOM     16  C   UNL     1      -1.333  -0.865  -0.230  0.00  0.00    +0.007 C 
ENDBRANCH  13  15
ENDBRANCH   5  13
ENDBRANCH   1   5
BRANCH   3  17
ATOM     17  C   UNL     1       1.035  -2.860   5.098  0.00  0.00    +0.104 C 
BRANCH  17  18
ATOM     18  C   UNL     1       0.735  -4.360   5.146  0.00  0.00    +0.023 C 
BRANCH  18  19
ATOM     19  C   UNL     1       1.415  -4.976   6.370  0.00  0.00    +0.037 C 
BRANCH  19  20
ATOM     20  C   UNL     1       1.120  -6.453   6.418  0.00  0.00    -0.046 A 
ATOM     21  C   UNL     1       0.002  -6.913   7.090  0.00  0.00    +0.005 A 
ATOM     22  C   UNL     1      -0.270  -8.267   7.135  0.00  0.00    +0.022 A 
ATOM     23  C   UNL     1       0.576  -9.164   6.508  0.00  0.00    +0.059 A 
ATOM     24  C   UNL     1       1.696  -8.704   5.835  0.00  0.00    +0.060 A 
ATOM     25  C   UNL     1       1.963  -7.347   5.786  0.00  0.00    +0.025 A 
ATOM     26 CL   UNL     1       2.759  -9.828   5.048  0.00  0.00    -0.082 Cl
ATOM     27 CL   UNL     1       0.236 -10.865   6.565  0.00  0.00    -0.082 Cl
ENDBRANCH  19  20
ENDBRANCH  18  19
ENDBRANCH  17  18
ENDBRANCH   3  17
TORSDOF 8
