REMARK  Name = ZINC27100554
REMARK  10 active torsions:
REMARK  status: ('A' for Active; 'I' for Inactive)
REMARK    1  A    between atoms: C_1  and  C_2
REMARK    2  A    between atoms: C_2  and  C_4
REMARK    3  A    between atoms: C_2  and  N_13
REMARK    4  A    between atoms: C_7  and  C_10
REMARK    5  A    between atoms: C_10  and  C_11
REMARK    6  A    between atoms: C_10  and  C_12
REMARK    7  A    between atoms: N_16  and  C_19
REMARK    8  A    between atoms: C_19  and  C_20
REMARK    9  A    between atoms: C_21  and  O_37
REMARK   10  A    between atoms: C_28  and  C_31
REMARK                            x       y       z     vdW  Elec       q    Type
REMARK                         _______ _______ _______ _____ _____    ______ ____
ROOT
ATOM      1  C   UNL     1       3.127  -0.007   4.691  0.00  0.00    -0.035 C 
ENDROOT
BRANCH   1   2
ATOM      2  C   UNL     1       2.426   0.317   5.985  0.00  0.00    +0.020 A 
ATOM      3  C   UNL     1       2.571   1.570   6.557  0.00  0.00    +0.122 A 
ATOM      4  C   UNL     1       1.930   1.883   7.754  0.00  0.00    +0.046 A 
ATOM      5  C   UNL     1       1.144   0.955   8.377  0.00  0.00    +0.019 A 
ATOM      6  C   UNL     1       0.987  -0.309   7.811  0.00  0.00    +0.065 A 
ATOM      7  C   UNL     1       1.630  -0.637   6.604  0.00  0.00    +0.143 A 
ATOM      8  O   UNL     1       1.484  -1.863   6.066  0.00  0.00    -0.462 OA
ATOM      9  C   UNL     1       0.515  -2.692   6.459  0.00  0.00    +0.208 A 
ATOM     10  C   UNL     1      -0.187  -2.510   7.609  0.00  0.00    +0.064 A 
ATOM     11  C   UNL     1       0.141  -1.338   8.446  0.00  0.00    +0.200 A 
ATOM     12  O   UNL     1      -0.273  -1.221   9.587  0.00  0.00    -0.286 OA
BRANCH  10  13
ATOM     13  C   UNL     1      -1.244  -3.467   8.015  0.00  0.00    -0.011 A 
ATOM     14  C   UNL     1      -2.575  -3.056   8.074  0.00  0.00    +0.009 A 
ATOM     15  C   UNL     1      -3.555  -3.951   8.453  0.00  0.00    +0.001 A 
ATOM     16  C   UNL     1      -3.219  -5.254   8.774  0.00  0.00    +0.000 A 
ATOM     17  C   UNL     1      -1.900  -5.667   8.718  0.00  0.00    +0.001 A 
ATOM     18  C   UNL     1      -0.912  -4.782   8.335  0.00  0.00    +0.009 A 
ENDBRANCH  10  13
BRANCH   3  19
ATOM     19  O   UNL     1       3.346   2.502   5.947  0.00  0.00    -0.506 OA
ATOM     20  H   UNL     1       2.869   3.060   5.318  0.00  0.00    +0.292 HD
ENDBRANCH   3  19
ENDBRANCH   1   2
BRANCH   1  24
ATOM     21  N   UNL     1       0.868  -0.304   1.150  0.00  0.00    -0.299 NA
ATOM     22  C   UNL     1       2.082   0.524   1.125  0.00  0.00    +0.066 C 
ATOM     23  C   UNL     1       2.982   0.140   2.301  0.00  0.00    -0.063 C 
ATOM     24  N   UNL     1       2.256   0.344   3.561  0.00  0.00    +0.384 N 
ATOM     25  C   UNL     1       1.060  -0.508   3.582  0.00  0.00    -0.063 C 
ATOM     26  C   UNL     1       0.143  -0.129   2.417  0.00  0.00    +0.066 C 
ATOM     27  H   UNL     1       1.981   1.312   3.638  0.00  0.00    -0.081 HD
BRANCH  21  29
ATOM     28  C   UNL     1       0.764  -0.276  -1.296  0.00  0.00    +0.029 C 
ATOM     29  C   UNL     1       0.002  -0.004   0.002  0.00  0.00    +0.084 C 
BRANCH  29  30
ATOM     30  C   UNL     1      -1.225  -0.877   0.057  0.00  0.00    -0.031 A 
ATOM     31  C   UNL     1      -2.476  -0.325  -0.146  0.00  0.00    +0.005 A 
ATOM     32  C   UNL     1      -3.602  -1.126  -0.096  0.00  0.00    +0.004 A 
ATOM     33  C   UNL     1      -3.476  -2.479   0.157  0.00  0.00    -0.045 A 
ATOM     34  C   UNL     1      -2.225  -3.032   0.358  0.00  0.00    +0.004 A 
ATOM     35  C   UNL     1      -1.099  -2.232   0.303  0.00  0.00    +0.005 A 
BRANCH  33  36
ATOM     36  C   UNL     1      -4.703  -3.352   0.212  0.00  0.00    +0.013 C 
ATOM     37  C   UNL     1      -4.604  -4.441  -0.858  0.00  0.00    +0.012 C 
ATOM     38  C   UNL     1      -4.804  -4.003   1.593  0.00  0.00    +0.012 C 
ENDBRANCH  33  36
ENDBRANCH  29  30
ENDBRANCH  21  29
ENDBRANCH   1  24
TORSDOF 7
