REMARK  Name = ZINC49750215
REMARK  7 active torsions:
REMARK  status: ('A' for Active; 'I' for Inactive)
REMARK    1  A    between atoms: C_1  and  C_2
REMARK    2  A    between atoms: C_9  and  N_14
REMARK    3  A    between atoms: C_10  and  C_11
REMARK    4  A    between atoms: C_15  and  C_17
REMARK    5  A    between atoms: N_22  and  C_24
REMARK    6  A    between atoms: C_24  and  C_25
REMARK    7  A    between atoms: C_25  and  C_26
REMARK                            x       y       z     vdW  Elec       q    Type
REMARK                         _______ _______ _______ _____ _____    ______ ____
ROOT
ATOM      1  C   UNL     1      -0.019   1.526   0.010  0.00  0.00    +0.008 C 
ATOM      2  C   UNL     1       0.002  -0.004   0.002  0.00  0.00    -0.009 C 
ATOM      3  C   UNL     1       0.724  -0.500  -1.254  0.00  0.00    +0.008 C 
ATOM      4  C   UNL     1       0.537  -2.012  -1.399  0.00  0.00    +0.037 C 
ATOM      5  C   UNL     1       0.935  -2.680  -0.091  0.00  0.00    -0.023 A 
ATOM      6  C   UNL     1       1.019  -1.977   1.059  0.00  0.00    -0.004 A 
ATOM      7  S   UNL     1       1.508  -3.164   2.276  0.00  0.00    -0.077 S 
ATOM      8  C   UNL     1       1.599  -4.539   1.315  0.00  0.00    +0.084 A 
ATOM      9  C   UNL     1       1.254  -4.090   0.050  0.00  0.00    +0.068 A 
ATOM     10  C   UNL     1       0.750  -0.515   1.242  0.00  0.00    +0.046 C 
ENDROOT
BRANCH   9  11
ATOM     11  C   UNL     1       1.212  -5.001  -1.099  0.00  0.00    +0.244 C 
ATOM     12  O   UNL     1       2.208  -5.170  -1.778  0.00  0.00    -0.270 OA
ATOM     13  N   UNL     1       0.071  -5.651  -1.402  0.00  0.00    -0.325 N 
ATOM     14  H   UNL     1      -0.722  -5.516  -0.860  0.00  0.00    +0.145 HD
ATOM     15  H   UNL     1       0.043  -6.254  -2.161  0.00  0.00    +0.145 HD
ENDBRANCH   9  11
BRANCH   8  16
ATOM     16  N   UNL     1       1.942  -5.826   1.699  0.00  0.00    -0.279 N 
ATOM     17  C   UNL     1       2.253  -6.086   2.984  0.00  0.00    +0.219 C 
ATOM     18  O   UNL     1       2.232  -5.193   3.805  0.00  0.00    -0.275 OA
ATOM     19  H   UNL     1       1.959  -6.540   1.042  0.00  0.00    +0.155 HD
BRANCH  17  20
ATOM     20  C   UNL     1       2.626  -7.485   3.402  0.00  0.00    +0.059 C 
ATOM     21  C   UNL     1       1.461  -8.434   3.106  0.00  0.00    +0.009 C 
ATOM     22  C   UNL     1       1.819  -9.837   3.605  0.00  0.00    -0.018 C 
ATOM     23  C   UNL     1       2.150  -9.772   5.098  0.00  0.00    -0.079 C 
ATOM     24  N   UNL     1       3.288  -8.870   5.312  0.00  0.00    +0.381 N 
ATOM     25  C   UNL     1       2.928  -7.507   4.902  0.00  0.00    -0.066 C 
ATOM     26  H   UNL     1       4.075  -9.187   4.766  0.00  0.00    -0.082 HD
BRANCH  24  27
ATOM     27  C   UNL     1       3.651  -8.871   6.735  0.00  0.00    -0.064 C 
BRANCH  27  28
ATOM     28  C   UNL     1       4.155 -10.261   7.131  0.00  0.00    +0.100 C 
BRANCH  28  29
ATOM     29  C   UNL     1       4.519 -10.262   8.557  0.00  0.00    +0.061 C 
ATOM     30  N   UNL     1       4.800 -10.263   9.658  0.00  0.00    -0.197 NA
ENDBRANCH  28  29
ENDBRANCH  27  28
ENDBRANCH  24  27
ENDBRANCH  17  20
ENDBRANCH   8  16
TORSDOF 6
