REMARK  Name = ZINC30499381
REMARK  13 active torsions:
REMARK  status: ('A' for Active; 'I' for Inactive)
REMARK    1  A    between atoms: C_1  and  C_2
REMARK    2  A    between atoms: C_2  and  C_3
REMARK    3  A    between atoms: C_3  and  C_4
REMARK    4  A    between atoms: C_4  and  N_5
REMARK    5  A    between atoms: C_9  and  C_11
REMARK    6  A    between atoms: C_11  and  C_13
REMARK    7  A    between atoms: C_11  and  N_14
REMARK    8  A    between atoms: N_14  and  C_15
REMARK    9  A    between atoms: C_15  and  C_17
REMARK   10  A    between atoms: C_15  and  C_18
REMARK   11  A    between atoms: C_21  and  N_24
REMARK   12  A    between atoms: C_25  and  C_27
REMARK   13  A    between atoms: C_27  and  C_28
REMARK                            x       y       z     vdW  Elec       q    Type
REMARK                         _______ _______ _______ _____ _____    ______ ____
ROOT
ATOM      1  N   UNL     1      -5.731  -2.312   1.349  0.00  0.00    +0.391 N 
ATOM      2  H   UNL     1      -5.156  -1.921   2.201  0.00  0.00    -0.084 HD
ATOM      3  H   UNL     1      -5.163  -3.118   0.862  0.00  0.00    -0.084 HD
ENDROOT
BRANCH   1   4
ATOM      4  C   UNL     1      -7.017  -2.837   1.826  0.00  0.00    +0.014 C 
ATOM      5  C   UNL     1      -6.814  -4.239   2.402  0.00  0.00    -0.004 C 
BRANCH   4  10
ATOM      6  N   UNL     1     -10.413  -1.685   5.029  0.00  0.00    -0.299 N 
ATOM      7  C   UNL     1      -9.233  -1.400   4.441  0.00  0.00    +0.306 C 
ATOM      8  O   UNL     1      -8.612  -0.411   4.775  0.00  0.00    -0.252 OA
ATOM      9  N   UNL     1      -8.744  -2.213   3.484  0.00  0.00    -0.242 N 
ATOM     10  C   UNL     1      -7.565  -1.928   2.896  0.00  0.00    +0.206 C 
ATOM     11  O   UNL     1      -6.945  -0.941   3.229  0.00  0.00    -0.277 OA
ATOM     12  H   UNL     1     -10.975  -2.581   4.727  0.00  0.00    +0.150 HD
ATOM     13  H   UNL     1      -9.307  -3.108   3.182  0.00  0.00    +0.159 HD
BRANCH   6  14
ATOM     14  C   UNL     1     -10.945  -0.802   6.069  0.00  0.00    +0.106 C 
BRANCH  14  15
ATOM     15  C   UNL     1     -12.285  -1.349   6.566  0.00  0.00    +0.018 C 
BRANCH  15  17
ATOM     16  C   UNL     1     -14.180  -0.973   8.150  0.00  0.00    +0.004 C 
ATOM     17  C   UNL     1     -12.840  -0.426   7.653  0.00  0.00    -0.002 C 
ENDBRANCH  15  17
ENDBRANCH  14  15
ENDBRANCH   6  14
ENDBRANCH   4  10
ENDBRANCH   1   4
BRANCH   1  18
ATOM     18  C   UNL     1      -5.932  -1.226   0.379  0.00  0.00    -0.043 C 
ATOM     19  C   UNL     1      -6.246  -1.822  -0.995  0.00  0.00    -0.009 C 
BRANCH  18  20
ATOM     20  C   UNL     1      -4.680  -0.393   0.291  0.00  0.00    -0.062 A 
ATOM     21  C   UNL     1      -4.772   0.983   0.190  0.00  0.00    +0.004 A 
ATOM     22  C   UNL     1      -3.626   1.750   0.109  0.00  0.00    +0.023 A 
ATOM     23  C   UNL     1      -2.380   1.137   0.129  0.00  0.00    +0.033 A 
ATOM     24  C   UNL     1      -2.291  -0.246   0.224  0.00  0.00    +0.023 A 
ATOM     25  C   UNL     1      -3.440  -1.006   0.311  0.00  0.00    +0.004 A 
BRANCH  23  26
ATOM     26  N   UNL     1      -1.217   1.911   0.047  0.00  0.00    -0.286 N 
ATOM     27  C   UNL     1      -1.173   3.125   0.629  0.00  0.00    +0.217 C 
ATOM     28  O   UNL     1      -2.166   3.581   1.157  0.00  0.00    -0.275 OA
ATOM     29  H   UNL     1      -0.338   1.528  -0.493  0.00  0.00    +0.155 HD
BRANCH  27  30
ATOM     30  C   UNL     1       0.111   3.914   0.631  0.00  0.00    +0.093 C 
ATOM     31  C   UNL     1      -0.109   5.243   1.357  0.00  0.00    +0.013 C 
ENDBRANCH  27  30
ENDBRANCH  23  26
ENDBRANCH  18  20
ENDBRANCH   1  18
TORSDOF 9
