REMARK  Name = ZINC59948833
REMARK  14 active torsions:
REMARK  status: ('A' for Active; 'I' for Inactive)
REMARK    1  A    between atoms: C_1  and  C_2
REMARK    2  A    between atoms: C_2  and  O_3
REMARK    3  A    between atoms: O_3  and  C_4
REMARK    4  A    between atoms: C_7  and  C_13
REMARK    5  A    between atoms: C_9  and  O_10
REMARK    6  A    between atoms: O_10  and  C_11
REMARK    7  A    between atoms: C_11  and  C_12
REMARK    8  A    between atoms: C_15  and  C_33
REMARK    9  A    between atoms: C_16  and  C_32
REMARK   10  A    between atoms: C_23  and  C_24
REMARK   11  A    between atoms: C_27  and  O_30
REMARK   12  A    between atoms: C_33  and  O_35
REMARK   13  A    between atoms: O_35  and  C_36
REMARK   14  A    between atoms: C_36  and  C_37
REMARK                            x       y       z     vdW  Elec       q    Type
REMARK                         _______ _______ _______ _____ _____    ______ ____
ROOT
ATOM      1  C   UNL     1       0.299  -5.228   0.501  0.00  0.00    +0.162 C 
ATOM      2  C   UNL     1       1.308  -5.621  -0.554  0.00  0.00    +0.085 C 
ATOM      3  C   UNL     1       0.988  -6.646  -1.399  0.00  0.00    +0.053 C 
ATOM      4  N   UNL     1      -0.176  -7.273  -1.290  0.00  0.00    -0.228 NA
ATOM      5  C   UNL     1      -1.097  -6.989  -0.403  0.00  0.00    +0.178 A 
ATOM      6  N   UNL     1      -0.978  -5.995   0.540  0.00  0.00    -0.275 N 
ATOM      7  C   UNL     1      -1.989  -5.797   1.395  0.00  0.00    +0.268 A 
ATOM      8  O   UNL     1      -1.929  -4.929   2.246  0.00  0.00    -0.266 OA
ATOM      9  C   UNL     1      -3.173  -6.659   1.275  0.00  0.00    +0.081 A 
ATOM     10  C   UNL     1      -4.316  -6.663   2.009  0.00  0.00    +0.028 C 
ATOM     11  S   UNL     1      -2.702  -7.700  -0.095  0.00  0.00    -0.046 S 
ATOM     12  C   UNL     1       1.966  -7.068  -2.465  0.00  0.00    +0.066 C 
ENDROOT
BRANCH   1  16
ATOM     13  C   UNL     1      -0.659  -1.099  -0.066  0.00  0.00    +0.162 A 
ATOM     14  C   UNL     1       0.218  -1.478   0.938  0.00  0.00    +0.050 A 
ATOM     15  C   UNL     1       0.525  -2.814   1.119  0.00  0.00    +0.010 A 
ATOM     16  C   UNL     1      -0.040  -3.774   0.300  0.00  0.00    -0.016 A 
ATOM     17  C   UNL     1      -0.915  -3.402  -0.704  0.00  0.00    +0.055 A 
ATOM     18  C   UNL     1      -1.232  -2.066  -0.887  0.00  0.00    +0.162 A 
BRANCH  13  19
ATOM     19  O   UNL     1      -0.963   0.214  -0.245  0.00  0.00    -0.489 OA
BRANCH  19  21
ATOM     20  C   UNL     1      -0.798   2.567   0.283  0.00  0.00    +0.048 C 
ATOM     21  C   UNL     1      -0.337   1.151   0.634  0.00  0.00    +0.226 C 
ENDBRANCH  19  21
ENDBRANCH  13  19
BRANCH  18  22
ATOM     22  O   UNL     1      -2.098  -1.699  -1.869  0.00  0.00    -0.489 OA
BRANCH  22  23
ATOM     23  C   UNL     1      -2.727  -2.750  -2.605  0.00  0.00    +0.226 C 
ATOM     24  C   UNL     1      -3.575  -2.150  -3.728  0.00  0.00    +0.048 C 
ENDBRANCH  22  23
ENDBRANCH  18  22
ENDBRANCH   1  16
BRANCH  10  25
ATOM     25  C   UNL     1      -4.415  -5.834   3.217  0.00  0.00    -0.024 A 
ATOM     26  C   UNL     1      -5.602  -5.147   3.502  0.00  0.00    +0.011 A 
ATOM     27  C   UNL     1      -5.689  -4.372   4.636  0.00  0.00    +0.046 A 
ATOM     28  C   UNL     1      -4.603  -4.270   5.497  0.00  0.00    +0.117 A 
ATOM     29  C   UNL     1      -3.423  -4.949   5.219  0.00  0.00    +0.046 A 
ATOM     30  C   UNL     1      -3.326  -5.733   4.091  0.00  0.00    +0.011 A 
BRANCH  28  31
ATOM     31  O   UNL     1      -4.695  -3.503   6.614  0.00  0.00    -0.507 OA
ATOM     32  H   UNL     1      -5.016  -3.978   7.392  0.00  0.00    +0.292 HD
ENDBRANCH  28  31
ENDBRANCH  10  25
BRANCH   2  33
ATOM     33  C   UNL     1       2.537  -4.951  -0.663  0.00  0.00    +0.339 C 
ATOM     34  O   UNL     1       3.390  -5.365  -1.427  0.00  0.00    -0.245 OA
BRANCH  33  35
ATOM     35  O   UNL     1       2.773  -3.847   0.079  0.00  0.00    -0.462 OA
BRANCH  35  36
ATOM     36  C   UNL     1       3.999  -3.154  -0.162  0.00  0.00    +0.229 C 
ATOM     37  C   UNL     1       4.147  -2.014   0.849  0.00  0.00    +0.048 C 
ENDBRANCH  35  36
ENDBRANCH  33  35
ENDBRANCH   2  33
TORSDOF 10
