REMARK  Name = ZINC01808151
REMARK  3 active torsions:
REMARK  status: ('A' for Active; 'I' for Inactive)
REMARK    1  A    between atoms: C_1  and  C_2
REMARK    2  A    between atoms: C_5  and  C_8
REMARK    3  A    between atoms: C_10  and  C_18
REMARK                            x       y       z     vdW  Elec       q    Type
REMARK                         _______ _______ _______ _____ _____    ______ ____
ROOT
ATOM      1  C   UNL     1       0.060  -4.245  -0.021  0.00  0.00    +0.055 C 
ATOM      2  C   UNL     1       0.071  -4.973   1.293  0.00  0.00    +0.088 C 
ATOM      3  C   UNL     1      -0.700  -6.295   1.201  0.00  0.00    +0.151 C 
ATOM      4  N   UNL     1      -0.352  -6.935  -0.067  0.00  0.00    -0.222 N 
ATOM      5  C   UNL     1      -0.002  -6.223  -1.181  0.00  0.00    +0.249 A 
ATOM      6  N   UNL     1       0.231  -7.083  -2.142  0.00  0.00    -0.198 NA
ATOM      7  C   UNL     1       0.053  -8.324  -1.685  0.00  0.00    +0.247 A 
ATOM      8  N   UNL     1      -0.301  -8.279  -0.422  0.00  0.00    -0.156 NA
ATOM      9  N   UNL     1       0.063  -4.865  -1.170  0.00  0.00    -0.215 NA
ENDROOT
BRANCH   3  10
ATOM     10  C   UNL     1      -0.311  -7.191   2.348  0.00  0.00    +0.031 A 
ATOM     11  C   UNL     1       1.008  -7.583   2.506  0.00  0.00    +0.130 A 
ATOM     12  C   UNL     1       1.364  -8.406   3.560  0.00  0.00    +0.039 A 
ATOM     13  C   UNL     1       0.403  -8.838   4.455  0.00  0.00    +0.004 A 
ATOM     14  C   UNL     1      -0.914  -8.447   4.298  0.00  0.00    +0.020 A 
ATOM     15  C   UNL     1      -1.270  -7.619   3.248  0.00  0.00    +0.049 A 
ATOM     16 CL   UNL     1      -2.923  -7.123   3.056  0.00  0.00    -0.083 Cl
ATOM     17  F   UNL     1       1.947  -7.161   1.631  0.00  0.00    -0.205 F 
ENDBRANCH   3  10
BRANCH   1  22
ATOM     18  C   UNL     1      -0.018   1.503   0.010  0.00  0.00    +0.044 C 
ATOM     19  C   UNL     1       0.002  -0.004   0.002  0.00  0.00    -0.050 A 
ATOM     20  C   UNL     1       0.006  -0.686  -1.202  0.00  0.00    +0.004 A 
ATOM     21  C   UNL     1       0.025  -2.064  -1.218  0.00  0.00    +0.010 A 
ATOM     22  C   UNL     1       0.041  -2.774  -0.013  0.00  0.00    -0.004 A 
ATOM     23  C   UNL     1       0.037  -2.078   1.200  0.00  0.00    +0.010 A 
ATOM     24  C   UNL     1       0.023  -0.699   1.199  0.00  0.00    +0.004 A 
ENDBRANCH   1  22
TORSDOF 2
