REMARK  Name = ZINC22459980
REMARK  4 active torsions:
REMARK  status: ('A' for Active; 'I' for Inactive)
REMARK    1  A    between atoms: C_6  and  C_7
REMARK    2  A    between atoms: C_9  and  C_12
REMARK    3  A    between atoms: C_15  and  O_19
REMARK    4  A    between atoms: C_16  and  O_18
REMARK                            x       y       z     vdW  Elec       q    Type
REMARK                         _______ _______ _______ _____ _____    ______ ____
ROOT
ATOM      1  C   UNL     1      -2.503   1.006   0.019  0.00  0.00    +0.109 A 
ATOM      2  N   UNL     1      -3.745   1.462   0.033  0.00  0.00    -0.239 NA
ATOM      3  C   UNL     1      -4.777   0.640   0.028  0.00  0.00    +0.079 A 
ATOM      4  C   UNL     1      -4.560  -0.713   0.020  0.00  0.00    +0.075 A 
ATOM      5  S   UNL     1      -2.772  -0.761   0.012  0.00  0.00    -0.075 S 
ENDROOT
BRANCH   1  11
ATOM      6  C   UNL     1      -0.013   1.076   0.008  0.00  0.00    +0.011 A 
ATOM      7  C   UNL     1       1.172   1.783   0.000  0.00  0.00    +0.016 A 
ATOM      8  C   UNL     1       1.155   3.167   0.008  0.00  0.00    +0.018 A 
ATOM      9  C   UNL     1      -0.050   3.850   0.022  0.00  0.00    +0.016 A 
ATOM     10  C   UNL     1      -1.241   3.154   0.030  0.00  0.00    +0.011 A 
ATOM     11  C   UNL     1      -1.230   1.758   0.017  0.00  0.00    +0.007 A 
ATOM     12 BR   UNL     1       2.782   4.130  -0.003  0.00  0.00    -0.050 Br
ENDBRANCH   1  11
BRANCH   3  13
ATOM     13  C   UNL     1      -6.161   1.176   0.037  0.00  0.00    +0.005 A 
ATOM     14  C   UNL     1      -7.245   0.307   0.143  0.00  0.00    +0.014 A 
ATOM     15  C   UNL     1      -8.532   0.806   0.152  0.00  0.00    +0.050 A 
ATOM     16  C   UNL     1      -8.749   2.172   0.056  0.00  0.00    +0.158 A 
ATOM     17  C   UNL     1      -7.670   3.045  -0.050  0.00  0.00    +0.159 A 
ATOM     18  C   UNL     1      -6.378   2.550  -0.054  0.00  0.00    +0.059 A 
BRANCH  17  19
ATOM     19  O   UNL     1      -7.885   4.385  -0.144  0.00  0.00    -0.503 OA
ATOM     20  H   UNL     1      -7.032   5.074  -0.228  0.00  0.00    +0.292 HD
ENDBRANCH  17  19
BRANCH  16  21
ATOM     21  O   UNL     1     -10.019   2.660   0.066  0.00  0.00    -0.503 OA
ATOM     22  H   UNL     1     -10.192   3.744  -0.010  0.00  0.00    +0.292 HD
ENDBRANCH  16  21
ENDBRANCH   3  13
TORSDOF 4
