REMARK  Name = ZINC39844677
REMARK  9 active torsions:
REMARK  status: ('A' for Active; 'I' for Inactive)
REMARK    1  A    between atoms: C_1  and  C_2
REMARK    2  A    between atoms: C_6  and  C_8
REMARK    3  A    between atoms: C_10  and  S_22
REMARK    4  A    between atoms: C_11  and  N_13
REMARK    5  A    between atoms: N_13  and  C_14
REMARK    6  A    between atoms: C_14  and  C_15
REMARK    7  A    between atoms: C_15  and  C_16
REMARK    8  A    between atoms: C_16  and  N_17
REMARK    9  A    between atoms: S_22  and  C_25
REMARK                            x       y       z     vdW  Elec       q    Type
REMARK                         _______ _______ _______ _____ _____    ______ ____
ROOT
ATOM      1  C   UNL     1       0.053  -2.845   2.456  0.00  0.00    +0.231 A 
ATOM      2  N   UNL     1       0.077  -4.152   2.573  0.00  0.00    -0.188 NA
ATOM      3  C   UNL     1       0.086  -4.468   3.876  0.00  0.00    +0.243 A 
ATOM      4  C   UNL     1       0.067  -3.311   4.582  0.00  0.00    +0.233 A 
ATOM      5  O   UNL     1       0.053  -2.301   3.689  0.00  0.00    -0.420 OA
ENDROOT
BRANCH   1  11
ATOM      6  C   UNL     1      -0.018   1.503   0.010  0.00  0.00    +0.044 C 
ATOM      7  C   UNL     1       0.002  -0.004   0.002  0.00  0.00    -0.050 A 
ATOM      8  C   UNL     1       0.006  -0.688  -1.201  0.00  0.00    +0.003 A 
ATOM      9  C   UNL     1       0.025  -2.071  -1.218  0.00  0.00    +0.001 A 
ATOM     10  C   UNL     1       0.040  -2.778  -0.034  0.00  0.00    +0.013 A 
ATOM     11  C   UNL     1       0.037  -2.095   1.184  0.00  0.00    +0.037 A 
ATOM     12  C   UNL     1       0.023  -0.698   1.194  0.00  0.00    +0.016 A 
ENDBRANCH   1  11
BRANCH   3  13
ATOM     13  S   UNL     1       0.116  -6.096   4.550  0.00  0.00    +0.047 S 
ATOM     14  O   UNL     1      -0.433  -6.004   5.857  0.00  0.00    -0.163 OA
ATOM     15  O   UNL     1      -0.422  -6.957   3.556  0.00  0.00    -0.163 OA
BRANCH  13  16
ATOM     16  C   UNL     1       1.808  -6.547   4.745  0.00  0.00    +0.095 A 
ATOM     17  C   UNL     1       2.479  -7.177   3.714  0.00  0.00    +0.028 A 
ATOM     18  C   UNL     1       3.806  -7.531   3.866  0.00  0.00    +0.017 A 
ATOM     19  C   UNL     1       4.463  -7.255   5.052  0.00  0.00    +0.018 A 
ATOM     20  C   UNL     1       3.792  -6.625   6.084  0.00  0.00    +0.017 A 
ATOM     21  C   UNL     1       2.466  -6.266   5.928  0.00  0.00    +0.028 A 
ATOM     22 BR   UNL     1       6.279  -7.740   5.262  0.00  0.00    -0.050 Br
ENDBRANCH  13  16
ENDBRANCH   3  13
BRANCH   4  23
ATOM     23  N   UNL     1       0.068  -3.188   5.967  0.00  0.00    -0.312 N 
ATOM     24  H   UNL     1       0.083  -3.982   6.524  0.00  0.00    +0.149 HD
BRANCH  23  25
ATOM     25  C   UNL     1       0.046  -1.860   6.585  0.00  0.00    +0.106 C 
BRANCH  25  26
ATOM     26  C   UNL     1       0.052  -2.006   8.108  0.00  0.00    +0.040 C 
BRANCH  26  27
ATOM     27  C   UNL     1       0.029  -0.619   8.753  0.00  0.00    +0.124 C 
BRANCH  27  28
ATOM     28  N   UNL     1       0.035  -0.758  10.211  0.00  0.00    -0.338 N 
ATOM     29  C   UNL     1      -1.064  -0.861  11.022  0.00  0.00    +0.104 A 
ATOM     30  C   UNL     1      -0.608  -0.973  12.284  0.00  0.00    +0.101 A 
ATOM     31  N   UNL     1       0.733  -0.939  12.245  0.00  0.00    -0.352 N 
ATOM     32  C   UNL     1       1.125  -0.816  11.007  0.00  0.00    +0.173 A 
ATOM     33  H   UNL     1       1.318  -1.000  13.016  0.00  0.00    +0.166 HD
ENDBRANCH  27  28
ENDBRANCH  26  27
ENDBRANCH  25  26
ENDBRANCH  23  25
ENDBRANCH   4  23
TORSDOF 8
