REMARK  Name = ZINC33331902
REMARK  10 active torsions:
REMARK  status: ('A' for Active; 'I' for Inactive)
REMARK    1  A    between atoms: C_1  and  C_2
REMARK    2  A    between atoms: C_11  and  C_26
REMARK    3  A    between atoms: C_11  and  C_27
REMARK    4  A    between atoms: N_12  and  C_15
REMARK    5  A    between atoms: C_15  and  C_16
REMARK    6  A    between atoms: C_16  and  C_17
REMARK    7  A    between atoms: C_17  and  N_18
REMARK    8  A    between atoms: N_18  and  C_19
REMARK    9  A    between atoms: N_18  and  C_20
REMARK   10  A    between atoms: N_29  and  C_30
REMARK                            x       y       z     vdW  Elec       q    Type
REMARK                         _______ _______ _______ _____ _____    ______ ____
ROOT
ATOM      1  C   UNL     1       0.066   5.400   1.755  0.00  0.00    +0.086 C 
ATOM      2  C   UNL     1       0.463   4.021   1.293  0.00  0.00    +0.105 A 
ATOM      3  C   UNL     1       1.721   3.551   1.243  0.00  0.00    +0.071 A 
ATOM      4  C   UNL     1       1.655   2.224   0.755  0.00  0.00    +0.088 A 
ATOM      5  C   UNL     1       0.304   1.960   0.534  0.00  0.00    +0.154 A 
ATOM      6  O   UNL     1      -0.387   3.070   0.872  0.00  0.00    -0.458 OA
ATOM      7  C   UNL     1       0.201   0.645   0.054  0.00  0.00    +0.079 A 
ATOM      8  C   UNL     1       1.462   0.131  -0.003  0.00  0.00    +0.109 A 
ATOM      9  N   UNL     1       2.361   1.109   0.415  0.00  0.00    -0.331 N 
ATOM     10  C   UNL     1       3.807   0.867   0.436  0.00  0.00    +0.157 C 
ATOM     11  C   UNL     1       4.061  -0.621   0.679  0.00  0.00    +0.128 C 
ATOM     12  N   UNL     1       3.238  -1.475  -0.170  0.00  0.00    -0.281 N 
ATOM     13  C   UNL     1       1.938  -1.192  -0.425  0.00  0.00    +0.264 C 
ATOM     14  O   UNL     1       1.204  -1.992  -0.976  0.00  0.00    -0.268 OA
ATOM     15  C   UNL     1       3.757  -0.940   2.144  0.00  0.00    +0.043 C 
ENDROOT
BRANCH  11  16
ATOM     16  C   UNL     1       5.513  -0.918   0.407  0.00  0.00    +0.238 C 
ATOM     17  O   UNL     1       6.169  -1.533   1.221  0.00  0.00    -0.273 OA
ATOM     18  N   UNL     1       6.083  -0.501  -0.741  0.00  0.00    -0.311 N 
ATOM     19  H   UNL     1       5.512   0.124  -1.443  0.00  0.00    +0.149 HD
BRANCH  18  20
ATOM     20  C   UNL     1       7.463  -0.881  -1.054  0.00  0.00    +0.073 C 
ATOM     21  C   UNL     1       8.425   0.126  -0.421  0.00  0.00    +0.022 C 
ATOM     22  C   UNL     1       9.866  -0.271  -0.748  0.00  0.00    +0.002 C 
ATOM     23  C   UNL     1      10.061  -0.278  -2.265  0.00  0.00    +0.000 C 
ATOM     24  C   UNL     1       9.099  -1.286  -2.898  0.00  0.00    +0.002 C 
ATOM     25  C   UNL     1       7.658  -0.889  -2.571  0.00  0.00    +0.022 C 
ENDBRANCH  18  20
ENDBRANCH  11  16
BRANCH  12  26
ATOM     26  C   UNL     1       3.834  -2.674  -0.765  0.00  0.00    +0.107 C 
BRANCH  26  27
ATOM     27  C   UNL     1       4.291  -2.362  -2.191  0.00  0.00    +0.000 C 
BRANCH  27  28
ATOM     28  C   UNL     1       4.800  -3.643  -2.855  0.00  0.00    -0.077 C 
BRANCH  28  29
ATOM     29  N   UNL     1       5.354  -3.323  -4.178  0.00  0.00    +0.380 N 
ATOM     30  C   UNL     1       4.319  -2.771  -5.062  0.00  0.00    -0.096 C 
ATOM     31  H   UNL     1       6.128  -2.554  -4.042  0.00  0.00    -0.082 HD
BRANCH  29  32
ATOM     32  C   UNL     1       5.989  -4.502  -4.782  0.00  0.00    -0.069 C 
ATOM     33  C   UNL     1       7.064  -5.043  -3.837  0.00  0.00    -0.015 C 
ATOM     34  C   UNL     1       7.725  -6.270  -4.466  0.00  0.00    -0.002 C 
ATOM     35  C   UNL     1       8.368  -5.877  -5.798  0.00  0.00    -0.000 C 
ATOM     36  C   UNL     1       7.293  -5.336  -6.743  0.00  0.00    -0.002 C 
ATOM     37  C   UNL     1       6.631  -4.109  -6.113  0.00  0.00    -0.015 C 
ENDBRANCH  29  32
ENDBRANCH  28  29
ENDBRANCH  27  28
ENDBRANCH  26  27
ENDBRANCH  12  26
TORSDOF 7
