REMARK  Name = ZINC66929760
REMARK  5 active torsions:
REMARK  status: ('A' for Active; 'I' for Inactive)
REMARK    1  A    between atoms: C_10  and  C_11
REMARK    2  A    between atoms: C_10  and  O_24
REMARK    3  A    between atoms: C_11  and  N_12
REMARK    4  A    between atoms: C_13  and  C_15
REMARK    5  A    between atoms: C_19  and  C_21
REMARK                            x       y       z     vdW  Elec       q    Type
REMARK                         _______ _______ _______ _____ _____    ______ ____
ROOT
ATOM      1  N   UNL     1       4.837   1.444   0.478  0.00  0.00    -0.308 N 
ATOM      2  C   UNL     1       5.710   2.251   1.112  0.00  0.00    +0.244 C 
ATOM      3  O   UNL     1       6.375   1.822   2.035  0.00  0.00    -0.270 OA
ATOM      4  H   UNL     1       4.306   1.786  -0.259  0.00  0.00    +0.149 HD
ENDROOT
BRANCH   2   5
ATOM      5  C   UNL     1       5.859   3.659   0.685  0.00  0.00    +0.037 A 
ATOM      6  C   UNL     1       5.092   4.155  -0.372  0.00  0.00    +0.013 A 
ATOM      7  C   UNL     1       5.230   5.469  -0.771  0.00  0.00    +0.001 A 
ATOM      8  C   UNL     1       6.127   6.302  -0.131  0.00  0.00    +0.013 A 
ATOM      9  C   UNL     1       6.900   5.819   0.927  0.00  0.00    +0.037 A 
ATOM     10  C   UNL     1       6.761   4.495   1.339  0.00  0.00    +0.026 A 
BRANCH   9  11
ATOM     11  C   UNL     1       7.860   6.711   1.611  0.00  0.00    +0.242 C 
ATOM     12  O   UNL     1       8.533   6.289   2.531  0.00  0.00    -0.270 OA
ATOM     13  N   UNL     1       7.989   7.992   1.214  0.00  0.00    -0.325 N 
ATOM     14  H   UNL     1       7.453   8.329   0.480  0.00  0.00    +0.145 HD
ATOM     15  H   UNL     1       8.619   8.578   1.663  0.00  0.00    +0.145 HD
ENDBRANCH   9  11
ENDBRANCH   2   5
BRANCH   1  16
ATOM     16  C   UNL     1       4.689   0.049   0.901  0.00  0.00    +0.144 C 
BRANCH  16  26
ATOM     17  C   UNL     1       3.501  -4.769   1.163  0.00  0.00    +0.000 A 
ATOM     18  C   UNL     1       3.495  -3.749   2.096  0.00  0.00    +0.000 A 
ATOM     19  C   UNL     1       3.578  -2.438   1.677  0.00  0.00    +0.007 A 
ATOM     20  C   UNL     1       3.670  -2.133   0.325  0.00  0.00    -0.011 A 
ATOM     21  C   UNL     1       3.682  -3.149  -0.604  0.00  0.00    -0.041 A 
ATOM     22  C   UNL     1       3.594  -4.469  -0.180  0.00  0.00    +0.004 A 
ATOM     23  C   UNL     1       3.796  -2.893  -2.084  0.00  0.00    +0.035 C 
ATOM     24  C   UNL     1       3.451  -1.440  -2.406  0.00  0.00    +0.008 C 
ATOM     25  C   UNL     1       4.277  -0.532  -1.488  0.00  0.00    +0.041 C 
ATOM     26  C   UNL     1       3.750  -0.679  -0.063  0.00  0.00    +0.107 C 
BRANCH  26  27
ATOM     27  O   UNL     1       2.447  -0.097   0.020  0.00  0.00    -0.382 OA
ATOM     28  H   UNL     1       2.054  -0.138   0.902  0.00  0.00    +0.211 HD
ENDBRANCH  26  27
ENDBRANCH  16  26
ENDBRANCH   1  16
TORSDOF 5
