REMARK  Name = ZINC63362266
REMARK  11 active torsions:
REMARK  status: ('A' for Active; 'I' for Inactive)
REMARK    1  A    between atoms: C_1  and  C_2
REMARK    2  A    between atoms: C_2  and  C_3
REMARK    3  A    between atoms: C_3  and  C_4
REMARK    4  A    between atoms: C_4  and  C_5
REMARK    5  A    between atoms: C_5  and  C_7
REMARK    6  A    between atoms: C_5  and  C_9
REMARK    7  A    between atoms: C_7  and  C_8
REMARK    8  A    between atoms: C_9  and  N_10
REMARK    9  A    between atoms: C_11  and  C_13
REMARK   10  A    between atoms: C_17  and  N_19
REMARK   11  A    between atoms: C_22  and  C_38
REMARK                            x       y       z     vdW  Elec       q    Type
REMARK                         _______ _______ _______ _____ _____    ______ ____
ROOT
ATOM      1  N   UNL     1       4.562  -9.261  -6.839  0.00  0.00    -0.192 N 
ATOM      2  C   UNL     1       3.970 -10.252  -6.142  0.00  0.00    +0.253 C 
ATOM      3  O   UNL     1       3.228 -10.134  -5.189  0.00  0.00    -0.272 OA
ATOM      4  C   UNL     1       4.420 -11.540  -6.795  0.00  0.00    +0.137 C 
ATOM      5  C   UNL     1       5.208 -12.391  -5.792  0.00  0.00    +0.139 C 
ATOM      6  C   UNL     1       6.065 -13.345  -6.615  0.00  0.00    -0.034 C 
ATOM      7  C   UNL     1       5.736 -14.573  -6.226  0.00  0.00    -0.001 A 
ATOM      8  C   UNL     1       6.260 -15.893  -6.611  0.00  0.00    +0.010 A 
ATOM      9  C   UNL     1       5.678 -16.967  -6.014  0.00  0.00    +0.001 A 
ATOM     10  C   UNL     1       4.639 -16.860  -5.083  0.00  0.00    +0.002 A 
ATOM     11  C   UNL     1       4.100 -15.686  -4.668  0.00  0.00    +0.026 A 
ATOM     12  C   UNL     1       4.632 -14.486  -5.223  0.00  0.00    +0.043 A 
ATOM     13  N   UNL     1       4.317 -13.233  -4.990  0.00  0.00    -0.375 N 
ATOM     14  C   UNL     1       7.020 -12.884  -7.689  0.00  0.00    +0.052 C 
ATOM     15  C   UNL     1       6.228 -11.959  -8.635  0.00  0.00    +0.115 C 
ATOM     16  N   UNL     1       5.385 -11.080  -7.819  0.00  0.00    -0.268 N 
ATOM     17  C   UNL     1       5.344  -9.742  -7.815  0.00  0.00    +0.316 C 
ATOM     18  O   UNL     1       5.948  -9.043  -8.605  0.00  0.00    -0.252 OA
ATOM     19  C   UNL     1       3.250 -12.307  -7.413  0.00  0.00    +0.044 C 
ATOM     20  H   UNL     1       3.618 -12.916  -4.397  0.00  0.00    +0.160 HD
ENDROOT
BRANCH   1  25
ATOM     21  C   UNL     1       3.471  -6.134  -5.214  0.00  0.00    +0.038 A 
ATOM     22  C   UNL     1       4.025  -5.187  -6.078  0.00  0.00    +0.013 A 
ATOM     23  C   UNL     1       4.748  -5.598  -7.179  0.00  0.00    +0.003 A 
ATOM     24  C   UNL     1       4.926  -6.946  -7.431  0.00  0.00    +0.024 A 
ATOM     25  C   UNL     1       4.379  -7.895  -6.578  0.00  0.00    +0.046 A 
ATOM     26  C   UNL     1       3.656  -7.493  -5.466  0.00  0.00    +0.037 A 
BRANCH  21  28
ATOM     27  N   UNL     1       2.519  -4.383  -3.792  0.00  0.00    -0.311 N 
ATOM     28  C   UNL     1       2.696  -5.697  -4.033  0.00  0.00    +0.244 C 
ATOM     29  O   UNL     1       2.219  -6.523  -3.280  0.00  0.00    -0.270 OA
ATOM     30  H   UNL     1       2.900  -3.724  -4.393  0.00  0.00    +0.149 HD
BRANCH  27  31
ATOM     31  C   UNL     1       1.751  -3.950  -2.622  0.00  0.00    +0.108 C 
BRANCH  31  32
ATOM     32  C   UNL     1       1.701  -2.422  -2.582  0.00  0.00    +0.006 C 
BRANCH  32  33
ATOM     33  C   UNL     1       0.920  -1.905  -3.792  0.00  0.00    +0.002 C 
ATOM     34  C   UNL     1       0.991  -0.377  -3.830  0.00  0.00    +0.004 C 
ENDBRANCH  32  33
BRANCH  32  35
ATOM     35  C   UNL     1       1.007  -1.968  -1.296  0.00  0.00    +0.005 C 
BRANCH  35  36
ATOM     36  C   UNL     1       1.860  -2.363  -0.089  0.00  0.00    +0.000 C 
BRANCH  36  38
ATOM     37  C   UNL     1       2.085  -2.194   2.393  0.00  0.00    +0.004 C 
ATOM     38  C   UNL     1       1.232  -1.799   1.187  0.00  0.00    -0.003 C 
ENDBRANCH  36  38
ENDBRANCH  35  36
ENDBRANCH  32  35
ENDBRANCH  31  32
ENDBRANCH  27  31
ENDBRANCH  21  28
ENDBRANCH   1  25
TORSDOF 8
