REMARK  Name = ZINC03375941
REMARK  13 active torsions:
REMARK  status: ('A' for Active; 'I' for Inactive)
REMARK    1  A    between atoms: C_1  and  C_2
REMARK    2  A    between atoms: C_2  and  C_4
REMARK    3  A    between atoms: C_2  and  N_58
REMARK    4  A    between atoms: C_7  and  S_16
REMARK    5  A    between atoms: N_8  and  C_9
REMARK    6  A    between atoms: S_16  and  C_17
REMARK    7  A    between atoms: C_17  and  C_19
REMARK    8  A    between atoms: C_17  and  C_20
REMARK    9  A    between atoms: N_22  and  C_23
REMARK   10  A    between atoms: C_26  and  C_29
REMARK   11  A    between atoms: C_29  and  C_31
REMARK   12  A    between atoms: C_32  and  N_58
REMARK   13  A    between atoms: C_33  and  N_58
REMARK                            x       y       z     vdW  Elec       q    Type
REMARK                         _______ _______ _______ _____ _____    ______ ____
ROOT
ATOM      1  C   UNL     1      -0.775  -0.810  -0.845  0.00  0.00    +0.125 A 
ATOM      2  N   UNL     1      -0.405  -2.018  -0.527  0.00  0.00    -0.135 NA
ATOM      3  N   UNL     1       0.161  -2.018   0.627  0.00  0.00    -0.122 NA
ATOM      4  C   UNL     1       0.190  -0.798   1.111  0.00  0.00    +0.197 A 
ATOM      5  N   UNL     1      -0.404   0.014   0.184  0.00  0.00    -0.275 N 
ENDROOT
BRANCH   5   6
ATOM      6  C   UNL     1      -0.598   1.401   0.272  0.00  0.00    +0.050 A 
ATOM      7  C   UNL     1      -1.884   1.921   0.329  0.00  0.00    +0.028 A 
ATOM      8  C   UNL     1      -2.072   3.286   0.421  0.00  0.00    +0.022 A 
ATOM      9  C   UNL     1      -0.980   4.136   0.445  0.00  0.00    +0.041 A 
ATOM     10  C   UNL     1       0.302   3.620   0.384  0.00  0.00    +0.022 A 
ATOM     11  C   UNL     1       0.496   2.255   0.297  0.00  0.00    +0.028 A 
ATOM     12 CL   UNL     1      -1.220   5.852   0.554  0.00  0.00    -0.084 Cl
ENDBRANCH   5   6
BRANCH   1  14
ATOM     13  C   UNL     1      -0.480  -0.398  -3.273  0.00  0.00    -0.005 C 
ATOM     14  C   UNL     1      -1.477  -0.395  -2.113  0.00  0.00    -0.003 C 
BRANCH  14  17
ATOM     15  C   UNL     1      -3.348  -0.901  -3.564  0.00  0.00    -0.096 C 
ATOM     16  C   UNL     1      -2.045  -2.699  -2.598  0.00  0.00    -0.096 C 
ATOM     17  N   UNL     1      -2.583  -1.340  -2.378  0.00  0.00    +0.382 N 
ATOM     18  H   UNL     1      -3.209  -1.357  -1.565  0.00  0.00    -0.082 HD
ENDBRANCH  14  17
ENDBRANCH   1  14
BRANCH   4  19
ATOM     19  S   UNL     1       0.865  -0.301   2.661  0.00  0.00    -0.073 S 
BRANCH  19  20
ATOM     20  C   UNL     1       1.442  -1.901   3.280  0.00  0.00    +0.137 C 
ATOM     21  C   UNL     1       2.562  -2.423   2.377  0.00  0.00    +0.029 C 
BRANCH  20  22
ATOM     22  C   UNL     1       1.964  -1.738   4.684  0.00  0.00    +0.230 C 
ATOM     23  O   UNL     1       2.288  -0.641   5.087  0.00  0.00    -0.274 OA
ATOM     24  N   UNL     1       2.069  -2.811   5.493  0.00  0.00    -0.285 N 
ATOM     25  H   UNL     1       1.741  -3.675   5.198  0.00  0.00    +0.155 HD
BRANCH  24  26
ATOM     26  C   UNL     1       2.650  -2.679   6.752  0.00  0.00    +0.033 A 
ATOM     27  C   UNL     1       2.190  -3.454   7.813  0.00  0.00    +0.024 A 
ATOM     28  C   UNL     1       2.762  -3.332   9.053  0.00  0.00    +0.013 A 
ATOM     29  C   UNL     1       3.804  -2.418   9.254  0.00  0.00    +0.017 A 
ATOM     30  C   UNL     1       4.260  -1.637   8.185  0.00  0.00    +0.013 A 
ATOM     31  C   UNL     1       3.686  -1.770   6.947  0.00  0.00    +0.024 A 
BRANCH  29  32
ATOM     32  C   UNL     1       4.416  -2.280  10.581  0.00  0.00    +0.160 C 
ATOM     33  O   UNL     1       5.248  -1.420  10.779  0.00  0.00    -0.292 OA
ATOM     34  C   UNL     1       4.010  -3.206  11.698  0.00  0.00    +0.091 C 
ENDBRANCH  29  32
ENDBRANCH  24  26
ENDBRANCH  20  22
ENDBRANCH  19  20
ENDBRANCH   4  19
TORSDOF 8
