REMARK  Name = ZINC20278359
REMARK  3 active torsions:
REMARK  status: ('A' for Active; 'I' for Inactive)
REMARK    1  A    between atoms: C_2  and  C_18
REMARK    2  A    between atoms: C_6  and  N_7
REMARK    3  A    between atoms: C_11  and  C_14
REMARK                            x       y       z     vdW  Elec       q    Type
REMARK                         _______ _______ _______ _____ _____    ______ ____
ROOT
ATOM      1  C   UNL     1      -1.804  -1.382   0.844  0.00  0.00    +0.040 A 
ATOM      2  C   UNL     1      -3.071  -1.916   0.646  0.00  0.00    +0.075 A 
ATOM      3  C   UNL     1      -3.801  -1.535  -0.461  0.00  0.00    +0.125 A 
ATOM      4  N   UNL     1      -3.313  -0.672  -1.333  0.00  0.00    -0.238 NA
ATOM      5  C   UNL     1      -2.115  -0.133  -1.182  0.00  0.00    +0.137 A 
ATOM      6  C   UNL     1      -1.316  -0.476  -0.088  0.00  0.00    +0.070 A 
ATOM      7  N   UNL     1      -1.643   0.778  -2.124  0.00  0.00    -0.342 N 
ATOM      8  H   UNL     1      -0.647   1.229  -2.002  0.00  0.00    +0.144 HD
ATOM      9  H   UNL     1      -2.267   1.048  -2.989  0.00  0.00    +0.144 HD
ENDROOT
BRANCH   6  10
ATOM     10  N   UNL     1      -0.045   0.089   0.069  0.00  0.00    -0.326 N 
ATOM     11  C   UNL     1      -0.139   1.531   0.331  0.00  0.00    +0.105 C 
ATOM     12  C   UNL     1       1.265   2.140   0.352  0.00  0.00    +0.020 C 
ATOM     13  C   UNL     1       2.096   1.457   1.442  0.00  0.00    +0.018 C 
ATOM     14  C   UNL     1       2.138  -0.050   1.173  0.00  0.00    +0.119 C 
ATOM     15  C   UNL     1       0.708  -0.595   1.128  0.00  0.00    +0.120 C 
BRANCH  14  16
ATOM     16  C   UNL     1       2.904  -0.736   2.274  0.00  0.00    +0.361 C 
ATOM     17  O   UNL     1       2.363  -1.576   2.954  0.00  0.00    -0.246 OA
ATOM     18  O   UNL     1       4.188  -0.415   2.499  0.00  0.00    -0.246 OA
ENDBRANCH  14  16
ENDBRANCH   6  10
BRANCH   2  19
ATOM     19  C   UNL     1      -3.642  -2.903   1.631  0.00  0.00    +0.419 C 
ATOM     20  F   UNL     1      -4.346  -2.215   2.625  0.00  0.00    -0.166 F 
ATOM     21  F   UNL     1      -4.509  -3.777   0.966  0.00  0.00    -0.166 F 
ATOM     22  F   UNL     1      -2.602  -3.634   2.216  0.00  0.00    -0.166 F 
ENDBRANCH   2  19
TORSDOF 3
