REMARK  Name = ZINC36936783
REMARK  3 active torsions:
REMARK  status: ('A' for Active; 'I' for Inactive)
REMARK    1  A    between atoms: C_6  and  C_7
REMARK    2  A    between atoms: C_8  and  C_13
REMARK    3  A    between atoms: C_11  and  N_12
REMARK                            x       y       z     vdW  Elec       q    Type
REMARK                         _______ _______ _______ _____ _____    ______ ____
ROOT
ATOM      1  C   UNL     1      -1.269  -0.765   0.011  0.00  0.00    +0.071 A 
ATOM      2  C   UNL     1      -1.757  -1.641   1.078  0.00  0.00    +0.124 A 
ATOM      3  N   UNL     1      -2.916  -2.117   0.689  0.00  0.00    -0.075 NA
ATOM      4  O   UNL     1      -3.218  -1.595  -0.589  0.00  0.00    -0.339 OA
ATOM      5  C   UNL     1      -2.227  -0.781  -0.984  0.00  0.00    +0.224 A 
ENDROOT
BRANCH   2   6
ATOM      6  C   UNL     1      -1.069  -1.936   2.359  0.00  0.00    +0.018 A 
ATOM      7  C   UNL     1       0.164  -1.351   2.641  0.00  0.00    +0.014 A 
ATOM      8  C   UNL     1       0.800  -1.627   3.833  0.00  0.00    +0.039 A 
ATOM      9  C   UNL     1       0.215  -2.486   4.750  0.00  0.00    +0.124 A 
ATOM     10  C   UNL     1      -1.010  -3.071   4.475  0.00  0.00    +0.054 A 
ATOM     11  C   UNL     1      -1.657  -2.795   3.287  0.00  0.00    +0.030 A 
ATOM     12 BR   UNL     1      -3.333  -3.588   2.914  0.00  0.00    -0.050 Br
ATOM     13  F   UNL     1       0.842  -2.755   5.917  0.00  0.00    -0.205 F 
ENDBRANCH   2   6
BRANCH   1  19
ATOM     14  C   UNL     1      -0.017   1.390   0.010  0.00  0.00    +0.010 A 
ATOM     15  C   UNL     1       1.170   2.094   0.002  0.00  0.00    +0.020 A 
ATOM     16  C   UNL     1       2.378   1.418  -0.013  0.00  0.00    +0.041 A 
ATOM     17  C   UNL     1       2.403   0.034  -0.022  0.00  0.00    +0.020 A 
ATOM     18  C   UNL     1       1.222  -0.680  -0.014  0.00  0.00    +0.010 A 
ATOM     19  C   UNL     1       0.002  -0.004   0.002  0.00  0.00    -0.011 A 
ATOM     20 CL   UNL     1       3.868   2.309  -0.024  0.00  0.00    -0.084 Cl
ENDBRANCH   1  19
BRANCH   5  21
ATOM     21  N   UNL     1      -2.173  -0.086  -2.174  0.00  0.00    -0.327 N 
ATOM     22  H   UNL     1      -1.409   0.478  -2.371  0.00  0.00    +0.145 HD
ATOM     23  H   UNL     1      -2.899  -0.161  -2.813  0.00  0.00    +0.145 HD
ENDBRANCH   5  21
TORSDOF 3
