REMARK  Name = ZINC20291770
REMARK  8 active torsions:
REMARK  status: ('A' for Active; 'I' for Inactive)
REMARK    1  A    between atoms: C_4  and  C_7
REMARK    2  A    between atoms: N_8  and  N_9
REMARK    3  A    between atoms: C_13  and  S_16
REMARK    4  A    between atoms: N_14  and  N_15
REMARK    5  A    between atoms: S_16  and  C_17
REMARK    6  A    between atoms: C_17  and  C_18
REMARK    7  A    between atoms: N_20  and  C_21
REMARK    8  A    between atoms: C_22  and  C_30
REMARK                            x       y       z     vdW  Elec       q    Type
REMARK                         _______ _______ _______ _____ _____    ______ ____
ROOT
ATOM      1  N   UNL     1       4.939  -2.661  -0.062  0.00  0.00    -0.204 N 
ATOM      2  C   UNL     1       4.961  -4.048  -0.070  0.00  0.00    +0.254 A 
ATOM      3  N   UNL     1       3.913  -4.836  -0.069  0.00  0.00    -0.109 NA
ATOM      4  N   UNL     1       4.368  -6.161  -0.079  0.00  0.00    -0.119 NA
ATOM      5  C   UNL     1       5.680  -6.139  -0.085  0.00  0.00    +0.210 A 
ATOM      6  N   UNL     1       6.080  -4.833  -0.085  0.00  0.00    -0.211 N 
ATOM      7  H   UNL     1       5.771  -2.162  -0.068  0.00  0.00    +0.177 HD
ENDROOT
BRANCH   6   8
ATOM      8  N   UNL     1       7.372  -4.390  -0.096  0.00  0.00    -0.294 N 
ATOM      9  H   UNL     1       7.724  -4.277   0.843  0.00  0.00    +0.163 HD
ATOM     10  H   UNL     1       7.963  -5.008  -0.632  0.00  0.00    +0.163 HD
ENDBRANCH   6   8
BRANCH   1  12
ATOM     11  C   UNL     1       3.693  -0.682  -0.038  0.00  0.00    +0.138 C 
ATOM     12  N   UNL     1       3.714  -1.980  -0.046  0.00  0.00    -0.188 NA
BRANCH  11  16
ATOM     13  C   UNL     1      -0.017   1.380   0.010  0.00  0.00    +0.000 A 
ATOM     14  C   UNL     1       1.168   2.094   0.002  0.00  0.00    +0.001 A 
ATOM     15  C   UNL     1       2.377   1.431  -0.013  0.00  0.00    +0.009 A 
ATOM     16  C   UNL     1       2.404   0.034  -0.021  0.00  0.00    -0.005 A 
ATOM     17  C   UNL     1       1.204  -0.681  -0.013  0.00  0.00    +0.009 A 
ATOM     18  C   UNL     1       0.002  -0.004   0.002  0.00  0.00    +0.001 A 
ENDBRANCH  11  16
ENDBRANCH   1  12
BRANCH   5  19
ATOM     19  S   UNL     1       6.739  -7.547  -0.099  0.00  0.00    -0.075 S 
BRANCH  19  20
ATOM     20  C   UNL     1       5.596  -8.956  -0.102  0.00  0.00    +0.173 C 
BRANCH  20  21
ATOM     21  C   UNL     1       6.383 -10.241  -0.113  0.00  0.00    +0.228 C 
ATOM     22  O   UNL     1       7.595 -10.210  -0.119  0.00  0.00    -0.275 OA
ATOM     23  N   UNL     1       5.739 -11.425  -0.117  0.00  0.00    -0.278 N 
ATOM     24  H   UNL     1       4.769 -11.450  -0.113  0.00  0.00    +0.155 HD
BRANCH  23  25
ATOM     25  C   UNL     1       6.464 -12.609  -0.128  0.00  0.00    +0.090 A 
ATOM     26  C   UNL     1       5.977 -13.906  -0.139  0.00  0.00    +0.084 A 
ATOM     27  C   UNL     1       6.951 -14.982  -0.149  0.00  0.00    -0.018 A 
ATOM     28  C   UNL     1       8.236 -14.563  -0.146  0.00  0.00    -0.004 A 
ATOM     29  S   UNL     1       8.133 -12.798  -0.138  0.00  0.00    -0.077 S 
ATOM     30  C   UNL     1       9.462 -15.423  -0.153  0.00  0.00    +0.043 C 
ATOM     31  C   UNL     1       9.048 -16.856   0.216  0.00  0.00    +0.005 C 
ATOM     32  C   UNL     1       7.830 -17.252  -0.623  0.00  0.00    +0.005 C 
ATOM     33  C   UNL     1       6.602 -16.463  -0.163  0.00  0.00    +0.037 C 
BRANCH  26  34
ATOM     34  C   UNL     1       4.570 -14.174  -0.140  0.00  0.00    +0.102 C 
ATOM     35  N   UNL     1       3.454 -14.386  -0.140  0.00  0.00    -0.191 NA
ENDBRANCH  26  34
ENDBRANCH  23  25
ENDBRANCH  20  21
ENDBRANCH  19  20
ENDBRANCH   5  19
TORSDOF 8
