REMARK  Name = ZINC04767424
REMARK  15 active torsions:
REMARK  status: ('A' for Active; 'I' for Inactive)
REMARK    1  A    between atoms: C_1  and  C_2
REMARK    2  A    between atoms: C_7  and  C_19
REMARK    3  A    between atoms: C_9  and  C_13
REMARK    4  A    between atoms: C_10  and  C_12
REMARK    5  A    between atoms: C_13  and  O_15
REMARK    6  A    between atoms: O_15  and  C_16
REMARK    7  A    between atoms: C_16  and  C_17
REMARK    8  A    between atoms: C_16  and  C_18
REMARK    9  A    between atoms: C_23  and  O_27
REMARK   10  A    between atoms: C_24  and  O_25
REMARK   11  A    between atoms: O_25  and  C_26
REMARK   12  A    between atoms: O_27  and  C_28
REMARK   13  A    between atoms: C_31  and  C_33
REMARK   14  A    between atoms: C_33  and  O_35
REMARK   15  A    between atoms: O_35  and  C_36
REMARK                            x       y       z     vdW  Elec       q    Type
REMARK                         _______ _______ _______ _____ _____    ______ ____
ROOT
ATOM      1  C   UNL     1       1.322  -2.449  -1.286  0.00  0.00    +0.009 C 
ATOM      2  C   UNL     1       1.292  -0.921  -1.211  0.00  0.00    +0.013 C 
ATOM      3  C   UNL     1       0.080  -0.470  -0.393  0.00  0.00    +0.055 C 
ATOM      4  C   UNL     1       0.080   1.034  -0.276  0.00  0.00    +0.016 C 
ATOM      5  C   UNL     1       1.235   1.732  -0.272  0.00  0.00    +0.025 C 
ATOM      6  C   UNL     1       1.226   3.236  -0.158  0.00  0.00    +0.096 C 
ATOM      7  C   UNL     1      -0.093   3.729   0.360  0.00  0.00    +0.065 C 
ATOM      8  C   UNL     1      -1.189   2.950   0.330  0.00  0.00    +0.016 C 
ATOM      9  N   UNL     1      -1.123   1.680  -0.169  0.00  0.00    -0.321 N 
ATOM     10  C   UNL     1      -2.499   3.482   0.852  0.00  0.00    +0.061 C 
ATOM     11  C   UNL     1       2.477   1.081  -0.376  0.00  0.00    +0.176 C 
ATOM     12  O   UNL     1       3.499   1.737  -0.349  0.00  0.00    -0.291 OA
ATOM     13  C   UNL     1       2.562  -0.414  -0.519  0.00  0.00    +0.171 C 
ATOM     14  H   UNL     1      -2.048   1.177  -0.486  0.00  0.00    +0.152 HD
ENDROOT
BRANCH   6  15
ATOM     15  C   UNL     1       1.480   3.836  -1.517  0.00  0.00    +0.010 A 
ATOM     16  C   UNL     1       2.691   4.444  -1.789  0.00  0.00    +0.008 A 
ATOM     17  C   UNL     1       2.929   4.990  -3.036  0.00  0.00    +0.004 A 
ATOM     18  C   UNL     1       1.952   4.942  -4.013  0.00  0.00    +0.049 A 
ATOM     19  C   UNL     1       0.734   4.339  -3.746  0.00  0.00    +0.162 A 
ATOM     20  C   UNL     1       0.497   3.784  -2.491  0.00  0.00    +0.166 A 
BRANCH  20  21
ATOM     21  O   UNL     1      -0.698   3.191  -2.224  0.00  0.00    -0.491 OA
ATOM     22  C   UNL     1      -1.821   4.053  -2.030  0.00  0.00    +0.277 C 
ENDBRANCH  20  21
BRANCH  19  23
ATOM     23  O   UNL     1      -0.227   4.290  -4.706  0.00  0.00    -0.491 OA
ATOM     24  C   UNL     1       0.086   4.880  -5.969  0.00  0.00    +0.277 C 
ENDBRANCH  19  23
ENDBRANCH   6  15
BRANCH   7  25
ATOM     25  C   UNL     1      -0.186   5.037   0.890  0.00  0.00    +0.338 C 
ATOM     26  O   UNL     1      -1.269   5.488   1.212  0.00  0.00    -0.245 OA
BRANCH  25  27
ATOM     27  O   UNL     1       0.928   5.785   1.038  0.00  0.00    -0.459 OA
BRANCH  27  28
ATOM     28  C   UNL     1       0.760   7.097   1.579  0.00  0.00    +0.171 C 
ATOM     29  C   UNL     1       2.020   7.495   2.351  0.00  0.00    +0.052 C 
ATOM     30  C   UNL     1       0.524   8.092   0.442  0.00  0.00    +0.052 C 
ENDBRANCH  27  28
ENDBRANCH  25  27
ENDBRANCH   7  25
BRANCH  13  31
ATOM     31  C   UNL     1       3.767  -0.775  -1.349  0.00  0.00    +0.318 C 
ATOM     32  O   UNL     1       3.627  -1.377  -2.388  0.00  0.00    -0.250 OA
BRANCH  31  33
ATOM     33  O   UNL     1       4.996  -0.429  -0.934  0.00  0.00    -0.467 OA
ATOM     34  C   UNL     1       6.110  -0.810  -1.784  0.00  0.00    +0.280 C 
ENDBRANCH  31  33
ENDBRANCH  13  31
TORSDOF 8
