REMARK  Name = ZINC40760340
REMARK  8 active torsions:
REMARK  status: ('A' for Active; 'I' for Inactive)
REMARK    1  A    between atoms: C_1  and  C_2
REMARK    2  A    between atoms: C_2  and  C_4
REMARK    3  A    between atoms: C_2  and  N_10
REMARK    4  A    between atoms: C_12  and  N_31
REMARK    5  A    between atoms: C_13  and  N_17
REMARK    6  A    between atoms: N_17  and  C_18
REMARK    7  A    between atoms: C_18  and  C_19
REMARK    8  A    between atoms: C_18  and  C_25
REMARK                            x       y       z     vdW  Elec       q    Type
REMARK                         _______ _______ _______ _____ _____    ______ ____
ROOT
ATOM      1  N   UNL     1       0.711  -0.489   1.189  0.00  0.00    -0.321 N 
ATOM      2  C   UNL     1       0.031  -0.638   2.392  0.00  0.00    +0.145 A 
ATOM      3  C   UNL     1       0.697  -1.094   3.531  0.00  0.00    +0.105 A 
ATOM      4  C   UNL     1      -0.034  -1.225   4.713  0.00  0.00    +0.145 A 
ATOM      5  N   UNL     1      -1.327  -0.912   4.710  0.00  0.00    -0.219 NA
ATOM      6  C   UNL     1      -1.918  -0.485   3.612  0.00  0.00    +0.225 A 
ATOM      7  N   UNL     1      -1.264  -0.342   2.477  0.00  0.00    -0.219 NA
ATOM      8  H   UNL     1       1.654  -0.707   1.135  0.00  0.00    +0.148 HD
ENDROOT
BRANCH   3   9
ATOM      9  N   UNL     1       2.064  -1.413   3.488  0.00  0.00    -0.353 N 
ATOM     10  H   UNL     1       2.558  -1.318   2.659  0.00  0.00    +0.143 HD
ATOM     11  H   UNL     1       2.513  -1.729   4.288  0.00  0.00    +0.143 HD
ENDBRANCH   3   9
BRANCH   1  13
ATOM     12  C   UNL     1      -0.019   1.526   0.010  0.00  0.00    +0.033 C 
ATOM     13  C   UNL     1       0.002  -0.004   0.002  0.00  0.00    +0.099 C 
BRANCH  13  14
ATOM     14  C   UNL     1       0.707  -0.490  -1.238  0.00  0.00    -0.028 A 
ATOM     15  C   UNL     1       2.089  -0.511  -1.284  0.00  0.00    +0.005 A 
ATOM     16  C   UNL     1       2.736  -0.957  -2.421  0.00  0.00    +0.000 A 
ATOM     17  C   UNL     1       2.002  -1.382  -3.512  0.00  0.00    +0.000 A 
ATOM     18  C   UNL     1       0.620  -1.362  -3.466  0.00  0.00    +0.000 A 
ATOM     19  C   UNL     1      -0.027  -0.920  -2.327  0.00  0.00    +0.005 A 
ENDBRANCH  13  14
ENDBRANCH   1  13
BRANCH   4  20
ATOM     20  N   UNL     1       0.581  -1.675   5.876  0.00  0.00    -0.317 N 
ATOM     21  H   UNL     1       1.524  -1.901   5.870  0.00  0.00    +0.148 HD
BRANCH  20  22
ATOM     22  C   UNL     1      -0.196  -1.808   7.111  0.00  0.00    +0.132 C 
BRANCH  22  23
ATOM     23  C   UNL     1      -0.886  -3.147   7.128  0.00  0.00    -0.023 A 
ATOM     24  C   UNL     1      -0.222  -4.273   6.677  0.00  0.00    +0.006 A 
ATOM     25  C   UNL     1      -0.855  -5.502   6.693  0.00  0.00    +0.000 A 
ATOM     26  C   UNL     1      -2.151  -5.606   7.161  0.00  0.00    +0.000 A 
ATOM     27  C   UNL     1      -2.815  -4.480   7.614  0.00  0.00    +0.000 A 
ATOM     28  C   UNL     1      -2.181  -3.252   7.601  0.00  0.00    +0.006 A 
ENDBRANCH  22  23
BRANCH  22  29
ATOM     29  C   UNL     1       0.725  -1.702   8.298  0.00  0.00    -0.023 A 
ATOM     30  C   UNL     1       1.971  -2.299   8.261  0.00  0.00    +0.006 A 
ATOM     31  C   UNL     1       2.817  -2.202   9.351  0.00  0.00    +0.000 A 
ATOM     32  C   UNL     1       2.417  -1.506  10.476  0.00  0.00    +0.000 A 
ATOM     33  C   UNL     1       1.171  -0.908  10.513  0.00  0.00    +0.000 A 
ATOM     34  C   UNL     1       0.327  -1.002   9.422  0.00  0.00    +0.006 A 
ENDBRANCH  22  29
ENDBRANCH  20  22
ENDBRANCH   4  20
TORSDOF 7
