REMARK  Name = ZINC35514170
REMARK  10 active torsions:
REMARK  status: ('A' for Active; 'I' for Inactive)
REMARK    1  A    between atoms: C_1  and  C_2
REMARK    2  A    between atoms: C_2  and  O_3
REMARK    3  A    between atoms: O_3  and  C_4
REMARK    4  A    between atoms: C_13  and  N_23
REMARK    5  A    between atoms: C_14  and  C_16
REMARK    6  A    between atoms: C_19  and  O_22
REMARK    7  A    between atoms: N_23  and  C_24
REMARK    8  A    between atoms: C_24  and  C_25
REMARK    9  A    between atoms: C_24  and  C_26
REMARK   10  A    between atoms: C_24  and  C_27
REMARK                            x       y       z     vdW  Elec       q    Type
REMARK                         _______ _______ _______ _____ _____    ______ ____
ROOT
ATOM      1  C   UNL     1       0.323  -1.395  -0.305  0.00  0.00    +0.122 A 
ATOM      2  C   UNL     1      -0.070  -2.501   0.437  0.00  0.00    +0.048 A 
ATOM      3  C   UNL     1       0.140  -3.778  -0.024  0.00  0.00    +0.031 A 
ATOM      4  C   UNL     1       0.761  -4.004  -1.263  0.00  0.00    +0.064 A 
ATOM      5  C   UNL     1       1.146  -2.872  -1.990  0.00  0.00    +0.043 A 
ATOM      6  C   UNL     1       0.934  -1.591  -1.536  0.00  0.00    +0.062 A 
ATOM      7  S   UNL     1       1.875  -3.554  -3.459  0.00  0.00    -0.049 S 
ATOM      8  C   UNL     1       1.650  -5.274  -3.068  0.00  0.00    +0.180 A 
ATOM      9  N   UNL     1       1.034  -5.251  -1.846  0.00  0.00    -0.274 N 
ATOM     10  C   UNL     1       0.841  -6.587  -1.506  0.00  0.00    +0.132 A 
ATOM     11  C   UNL     1       1.340  -7.343  -2.521  0.00  0.00    +0.112 A 
ATOM     12  N   UNL     1       1.831  -6.498  -3.467  0.00  0.00    -0.219 NA
ENDROOT
BRANCH  11  13
ATOM     13  C   UNL     1       1.349  -8.823  -2.584  0.00  0.00    +0.004 A 
ATOM     14  C   UNL     1       1.520  -9.572  -1.420  0.00  0.00    +0.014 A 
ATOM     15  C   UNL     1       1.526 -10.949  -1.483  0.00  0.00    +0.046 A 
ATOM     16  C   UNL     1       1.363 -11.591  -2.703  0.00  0.00    +0.117 A 
ATOM     17  C   UNL     1       1.192 -10.849  -3.864  0.00  0.00    +0.046 A 
ATOM     18  C   UNL     1       1.179  -9.471  -3.808  0.00  0.00    +0.014 A 
BRANCH  16  19
ATOM     19  O   UNL     1       1.371 -12.949  -2.761  0.00  0.00    -0.507 OA
ATOM     20  H   UNL     1       0.498 -13.352  -2.656  0.00  0.00    +0.292 HD
ENDBRANCH  16  19
ENDBRANCH  11  13
BRANCH  10  21
ATOM     21  N   UNL     1       0.244  -7.064  -0.337  0.00  0.00    -0.324 N 
ATOM     22  H   UNL     1       0.130  -8.018  -0.205  0.00  0.00    +0.148 HD
BRANCH  21  23
ATOM     23  C   UNL     1      -0.209  -6.123   0.691  0.00  0.00    +0.025 C 
ATOM     24  C   UNL     1      -1.329  -5.248   0.123  0.00  0.00    +0.031 C 
ATOM     25  C   UNL     1      -0.733  -6.901   1.899  0.00  0.00    +0.031 C 
ATOM     26  C   UNL     1       0.961  -5.237   1.122  0.00  0.00    +0.031 C 
ENDBRANCH  21  23
ENDBRANCH  10  21
BRANCH   1  27
ATOM     27  O   UNL     1       0.108  -0.137   0.165  0.00  0.00    -0.492 OA
BRANCH  27  29
ATOM     28  C   UNL     1      -0.682   1.458   1.799  0.00  0.00    +0.048 C 
ATOM     29  C   UNL     1      -0.526  -0.021   1.440  0.00  0.00    +0.225 C 
ENDBRANCH  27  29
ENDBRANCH   1  27
TORSDOF 6
