REMARK  Name = ZINC25108216
REMARK  4 active torsions:
REMARK  status: ('A' for Active; 'I' for Inactive)
REMARK    1  A    between atoms: C_1  and  C_2
REMARK    2  A    between atoms: C_2  and  C_4
REMARK    3  A    between atoms: C_2  and  N_21
REMARK    4  A    between atoms: C_22  and  C_24
REMARK                            x       y       z     vdW  Elec       q    Type
REMARK                         _______ _______ _______ _____ _____    ______ ____
ROOT
ATOM      1  C   UNL     1       0.821  -0.541   1.147  0.00  0.00    +0.236 C 
ATOM      2  O   UNL     1       1.845  -1.154   0.926  0.00  0.00    -0.274 OA
ATOM      3  N   UNL     1       0.420  -0.336   2.417  0.00  0.00    -0.300 N 
ATOM      4  C   UNL     1      -0.869   0.309   2.700  0.00  0.00    +0.110 C 
ATOM      5  C   UNL     1      -0.630   1.501   3.633  0.00  0.00    +0.047 C 
ATOM      6  C   UNL     1       0.124   1.028   4.876  0.00  0.00    +0.064 C 
ATOM      7  C   UNL     1       1.481   0.451   4.470  0.00  0.00    +0.047 C 
ATOM      8  C   UNL     1       1.262  -0.757   3.546  0.00  0.00    +0.110 C 
ATOM      9  C   UNL     1       0.324   2.183   5.820  0.00  0.00    +0.057 A 
ATOM     10  C   UNL     1      -0.405   2.367   6.944  0.00  0.00    +0.039 A 
ATOM     11  N   UNL     1       0.030   3.476   7.542  0.00  0.00    -0.349 N 
ATOM     12  C   UNL     1       1.001   3.992   6.833  0.00  0.00    +0.171 A 
ATOM     13  N   UNL     1       1.212   3.209   5.748  0.00  0.00    -0.348 N 
ATOM     14  H   UNL     1       1.871   3.354   5.051  0.00  0.00    +0.166 HD
ATOM     15  C   UNL     1      -1.507   1.429   7.373  0.00  0.00    +0.070 C 
ATOM     16  C   UNL     1      -1.881   0.557   6.166  0.00  0.00    +0.088 C 
ATOM     17  N   UNL     1      -0.664  -0.007   5.565  0.00  0.00    -0.305 NA
ATOM     18  H   UNL     1      -0.888  -0.767   4.941  0.00  0.00    +0.123 HD
ATOM     19  H   UNL     1      -0.317   3.843   8.370  0.00  0.00    +0.166 HD
ENDROOT
BRANCH   1  21
ATOM     20  C   UNL     1       0.371   1.449  -0.262  0.00  0.00    +0.038 C 
ATOM     21  C   UNL     1      -0.002  -0.011   0.002  0.00  0.00    +0.156 C 
BRANCH  21  22
ATOM     22  N   UNL     1       0.262  -0.807  -1.199  0.00  0.00    -0.300 N 
ATOM     23  C   UNL     1      -0.664  -0.881  -2.176  0.00  0.00    +0.245 C 
ATOM     24  O   UNL     1      -1.718  -0.288  -2.060  0.00  0.00    -0.270 OA
ATOM     25  H   UNL     1       1.104  -1.281  -1.292  0.00  0.00    +0.150 HD
BRANCH  23  26
ATOM     26  C   UNL     1      -0.397  -1.684  -3.387  0.00  0.00    +0.037 A 
ATOM     27  C   UNL     1       0.811  -2.371  -3.520  0.00  0.00    +0.016 A 
ATOM     28  C   UNL     1       1.055  -3.119  -4.653  0.00  0.00    +0.039 A 
ATOM     29  C   UNL     1       0.103  -3.188  -5.658  0.00  0.00    +0.123 A 
ATOM     30  C   UNL     1      -1.099  -2.508  -5.531  0.00  0.00    +0.039 A 
ATOM     31  C   UNL     1      -1.355  -1.762  -4.400  0.00  0.00    +0.016 A 
ATOM     32  F   UNL     1       0.347  -3.921  -6.767  0.00  0.00    -0.205 F 
ENDBRANCH  23  26
ENDBRANCH  21  22
ENDBRANCH   1  21
TORSDOF 3
