REMARK  Name = ZINC20903417
REMARK  7 active torsions:
REMARK  status: ('A' for Active; 'I' for Inactive)
REMARK    1  A    between atoms: C_1  and  C_2
REMARK    2  A    between atoms: N_8  and  C_9
REMARK    3  A    between atoms: C_9  and  C_10
REMARK    4  A    between atoms: C_10  and  N_11
REMARK    5  A    between atoms: C_24  and  C_25
REMARK    6  A    between atoms: C_24  and  C_26
REMARK    7  A    between atoms: N_28  and  C_29
REMARK                            x       y       z     vdW  Elec       q    Type
REMARK                         _______ _______ _______ _____ _____    ______ ____
ROOT
ATOM      1  N   UNL     1      -2.288   1.346  -0.800  0.00  0.00    -0.282 N 
ATOM      2  C   UNL     1      -2.941   0.256  -0.339  0.00  0.00    +0.264 C 
ATOM      3  O   UNL     1      -3.580  -0.469  -1.077  0.00  0.00    -0.268 OA
ATOM      4  C   UNL     1      -2.837  -0.008   1.108  0.00  0.00    +0.106 A 
ATOM      5  C   UNL     1      -3.211  -1.093   1.817  0.00  0.00    +0.041 A 
ATOM      6  C   UNL     1      -2.868  -0.856   3.161  0.00  0.00    +0.001 A 
ATOM      7  C   UNL     1      -3.022  -1.638   4.315  0.00  0.00    +0.010 A 
ATOM      8  C   UNL     1      -2.563  -1.107   5.492  0.00  0.00    +0.001 A 
ATOM      9  C   UNL     1      -1.973   0.146   5.555  0.00  0.00    +0.002 A 
ATOM     10  C   UNL     1      -1.810   0.943   4.437  0.00  0.00    +0.026 A 
ATOM     11  C   UNL     1      -2.268   0.432   3.221  0.00  0.00    +0.050 A 
ATOM     12  N   UNL     1      -2.269   0.939   1.965  0.00  0.00    -0.334 N 
ATOM     13  C   UNL     1      -1.799   2.235   1.466  0.00  0.00    +0.157 C 
ATOM     14  C   UNL     1      -1.331   2.079   0.020  0.00  0.00    +0.128 C 
ATOM     15  C   UNL     1      -1.125   3.469  -0.586  0.00  0.00    +0.043 C 
ENDROOT
BRANCH  14  16
ATOM     16  C   UNL     1      -0.016   1.344   0.009  0.00  0.00    +0.238 C 
ATOM     17  O   UNL     1       1.026   1.964   0.003  0.00  0.00    -0.273 OA
ATOM     18  N   UNL     1       0.002  -0.004   0.002  0.00  0.00    -0.311 N 
ATOM     19  H   UNL     1      -0.943  -0.567   0.008  0.00  0.00    +0.149 HD
BRANCH  18  20
ATOM     20  C   UNL     1       1.281  -0.719  -0.014  0.00  0.00    +0.073 C 
ATOM     21  C   UNL     1       1.773  -0.851  -1.457  0.00  0.00    +0.022 C 
ATOM     22  C   UNL     1       3.256  -1.226  -1.456  0.00  0.00    +0.002 C 
ATOM     23  C   UNL     1       3.999  -0.375  -0.424  0.00  0.00    +0.000 C 
ATOM     24  C   UNL     1       4.494  -1.271   0.713  0.00  0.00    +0.000 C 
ATOM     25  C   UNL     1       3.319  -1.637   1.622  0.00  0.00    +0.000 C 
ATOM     26  C   UNL     1       2.460  -2.704   0.941  0.00  0.00    +0.002 C 
ATOM     27  C   UNL     1       1.093  -2.112   0.590  0.00  0.00    +0.022 C 
ENDBRANCH  18  20
ENDBRANCH  14  16
BRANCH   1  28
ATOM     28  C   UNL     1      -2.550   1.801  -2.168  0.00  0.00    +0.091 C 
BRANCH  28  29
ATOM     29  C   UNL     1      -1.577   1.115  -3.129  0.00  0.00    -0.059 C 
BRANCH  29  36
ATOM     30  C   UNL     1      -0.621  -0.394  -5.303  0.00  0.00    -0.013 C 
ATOM     31  C   UNL     1      -0.783   1.123  -5.416  0.00  0.00    -0.072 C 
ATOM     32  C   UNL     1      -1.161   1.490  -6.853  0.00  0.00    -0.016 C 
ATOM     33  C   UNL     1      -1.341   3.007  -6.956  0.00  0.00    -0.003 C 
ATOM     34  C   UNL     1      -2.413   3.455  -5.958  0.00  0.00    -0.019 C 
ATOM     35  C   UNL     1      -1.998   3.031  -4.548  0.00  0.00    -0.078 C 
ATOM     36  N   UNL     1      -1.839   1.572  -4.500  0.00  0.00    +0.382 N 
ATOM     37  H   UNL     1      -2.786   1.121  -4.833  0.00  0.00    -0.081 HD
ENDBRANCH  29  36
ENDBRANCH  28  29
ENDBRANCH   1  28
TORSDOF 5
