REMARK  Name = ZINC62129359
REMARK  7 active torsions:
REMARK  status: ('A' for Active; 'I' for Inactive)
REMARK    1  A    between atoms: C_4  and  C_7
REMARK    2  A    between atoms: N_11  and  C_12
REMARK    3  A    between atoms: C_12  and  C_13
REMARK    4  A    between atoms: C_19  and  C_21
REMARK    5  A    between atoms: C_21  and  N_22
REMARK    6  A    between atoms: N_22  and  S_23
REMARK    7  A    between atoms: S_23  and  C_26
REMARK                            x       y       z     vdW  Elec       q    Type
REMARK                         _______ _______ _______ _____ _____    ______ ____
ROOT
ATOM      1  C   UNL     1       2.276  -3.686   0.217  0.00  0.00    +0.012 C 
ATOM      2  C   UNL     1       1.584  -2.889  -0.891  0.00  0.00    +0.024 C 
ATOM      3  C   UNL     1       0.959  -3.859  -1.898  0.00  0.00    +0.108 C 
ATOM      4  N   UNL     1       0.074  -4.784  -1.178  0.00  0.00    -0.300 N 
ATOM      5  C   UNL     1       0.616  -5.535  -0.036  0.00  0.00    +0.108 C 
ATOM      6  C   UNL     1       1.244  -4.546   0.950  0.00  0.00    +0.024 C 
ATOM      7  C   UNL     1      -1.210  -4.942  -1.556  0.00  0.00    +0.231 C 
ATOM      8  O   UNL     1      -1.645  -4.316  -2.499  0.00  0.00    -0.274 OA
ENDROOT
BRANCH   1   9
ATOM      9  C   UNL     1       2.931  -2.720   1.206  0.00  0.00    +0.127 C 
BRANCH   9  14
ATOM     10  C   UNL     1       5.244  -2.444   0.227  0.00  0.00    +0.119 A 
ATOM     11  N   UNL     1       5.907  -1.486  -0.380  0.00  0.00    -0.346 N 
ATOM     12  C   UNL     1       5.128  -0.402  -0.476  0.00  0.00    +0.102 A 
ATOM     13  C   UNL     1       3.936  -0.684   0.088  0.00  0.00    +0.105 A 
ATOM     14  N   UNL     1       3.998  -1.978   0.531  0.00  0.00    -0.332 N 
ATOM     15  H   UNL     1       6.818  -1.553  -0.707  0.00  0.00    +0.167 HD
BRANCH  10  19
ATOM     16  C   UNL     1       6.721  -6.335   1.081  0.00  0.00    +0.000 A 
ATOM     17  C   UNL     1       7.057  -5.717  -0.110  0.00  0.00    +0.001 A 
ATOM     18  C   UNL     1       6.580  -4.453  -0.394  0.00  0.00    +0.011 A 
ATOM     19  C   UNL     1       5.758  -3.799   0.524  0.00  0.00    +0.016 A 
ATOM     20  C   UNL     1       5.422  -4.428   1.724  0.00  0.00    +0.011 A 
ATOM     21  C   UNL     1       5.905  -5.692   1.995  0.00  0.00    +0.001 A 
ENDBRANCH  10  19
ENDBRANCH   9  14
ENDBRANCH   1   9
BRANCH   7  22
ATOM     22  C   UNL     1      -2.105  -5.895  -0.806  0.00  0.00    +0.201 C 
BRANCH  22  23
ATOM     23  N   UNL     1      -3.441  -5.885  -1.407  0.00  0.00    -0.181 NA
ATOM     24  H   UNL     1      -3.693  -5.175  -2.018  0.00  0.00    +0.149 HD
BRANCH  23  25
ATOM     25  S   UNL     1      -4.521  -7.087  -1.044  0.00  0.00    +0.059 S 
ATOM     26  O   UNL     1      -5.716  -6.787  -1.752  0.00  0.00    -0.153 OA
ATOM     27  O   UNL     1      -3.829  -8.318  -1.205  0.00  0.00    -0.153 OA
BRANCH  25  28
ATOM     28  C   UNL     1      -4.901  -6.944   0.670  0.00  0.00    +0.105 A 
ATOM     29  C   UNL     1      -4.140  -7.620   1.606  0.00  0.00    +0.028 A 
ATOM     30  C   UNL     1      -4.439  -7.508   2.951  0.00  0.00    +0.002 A 
ATOM     31  C   UNL     1      -5.498  -6.720   3.361  0.00  0.00    +0.000 A 
ATOM     32  C   UNL     1      -6.259  -6.044   2.425  0.00  0.00    +0.002 A 
ATOM     33  C   UNL     1      -5.958  -6.152   1.080  0.00  0.00    +0.028 A 
ENDBRANCH  25  28
ENDBRANCH  23  25
ENDBRANCH  22  23
ENDBRANCH   7  22
TORSDOF 7
