REMARK  Name = ZINC09994391
REMARK  14 active torsions:
REMARK  status: ('A' for Active; 'I' for Inactive)
REMARK    1  A    between atoms: C_1  and  C_2
REMARK    2  A    between atoms: C_2  and  C_3
REMARK    3  A    between atoms: C_3  and  O_4
REMARK    4  A    between atoms: O_4  and  C_5
REMARK    5  A    between atoms: C_8  and  C_12
REMARK    6  A    between atoms: C_9  and  C_11
REMARK    7  A    between atoms: C_12  and  C_14
REMARK    8  A    between atoms: C_15  and  O_38
REMARK    9  A    between atoms: C_19  and  C_21
REMARK   10  A    between atoms: C_24  and  C_27
REMARK   11  A    between atoms: C_30  and  C_37
REMARK   12  A    between atoms: C_31  and  C_33
REMARK   13  A    between atoms: C_33  and  O_35
REMARK   14  A    between atoms: O_35  and  C_36
REMARK                            x       y       z     vdW  Elec       q    Type
REMARK                         _______ _______ _______ _____ _____    ______ ____
ROOT
ATOM      1  C   UNL     1       5.854   2.092  -0.019  0.00  0.00    +0.071 C 
ATOM      2  C   UNL     1       5.332   3.339  -0.102  0.00  0.00    +0.189 C 
ATOM      3  C   UNL     1       3.877   3.242  -0.335  0.00  0.00    +0.288 C 
ATOM      4  O   UNL     1       3.126   4.189  -0.459  0.00  0.00    -0.266 OA
ATOM      5  N   UNL     1       3.505   1.950  -0.386  0.00  0.00    -0.232 N 
ATOM      6  C   UNL     1       4.705   1.127  -0.198  0.00  0.00    +0.151 C 
ATOM      7  C   UNL     1       2.220   1.481  -0.587  0.00  0.00    +0.169 A 
ATOM      8  N   UNL     1       1.104   2.172  -0.761  0.00  0.00    -0.229 NA
ATOM      9  C   UNL     1      -0.047   1.580  -0.941  0.00  0.00    +0.062 A 
ATOM     10  C   UNL     1      -0.067   0.191  -0.944  0.00  0.00    +0.120 A 
ATOM     11  S   UNL     1       1.665  -0.162  -0.673  0.00  0.00    -0.045 S 
ATOM     12  C   UNL     1      -1.310   2.377  -1.145  0.00  0.00    +0.067 C 
ENDROOT
BRANCH   6  13
ATOM     13  C   UNL     1       4.556   0.267   1.031  0.00  0.00    -0.022 A 
ATOM     14  C   UNL     1       4.089   0.819   2.209  0.00  0.00    +0.006 A 
ATOM     15  C   UNL     1       3.947   0.029   3.334  0.00  0.00    +0.004 A 
ATOM     16  C   UNL     1       4.282  -1.312   3.284  0.00  0.00    -0.050 A 
ATOM     17  C   UNL     1       4.754  -1.863   2.108  0.00  0.00    +0.004 A 
ATOM     18  C   UNL     1       4.891  -1.074   0.981  0.00  0.00    +0.006 A 
ATOM     19  C   UNL     1       4.133  -2.172   4.513  0.00  0.00    +0.044 C 
ENDBRANCH   6  13
BRANCH   1  20
ATOM     20  C   UNL     1       7.261   1.746   0.202  0.00  0.00    +0.195 C 
ATOM     21  O   UNL     1       8.073   2.620   0.440  0.00  0.00    -0.287 OA
BRANCH  20  25
ATOM     22  C   UNL     1       8.506  -2.311   0.009  0.00  0.00    +0.121 A 
ATOM     23  C   UNL     1       8.373  -1.684   1.244  0.00  0.00    +0.046 A 
ATOM     24  C   UNL     1       7.975  -0.368   1.310  0.00  0.00    +0.015 A 
ATOM     25  C   UNL     1       7.693   0.336   0.135  0.00  0.00    +0.025 A 
ATOM     26  C   UNL     1       7.827  -0.298  -1.104  0.00  0.00    -0.036 A 
ATOM     27  C   UNL     1       8.231  -1.613  -1.162  0.00  0.00    +0.049 A 
ATOM     28  C   UNL     1       7.531   0.457  -2.374  0.00  0.00    +0.044 C 
BRANCH  22  29
ATOM     29  O   UNL     1       8.904  -3.606  -0.052  0.00  0.00    -0.492 OA
BRANCH  29  30
ATOM     30  C   UNL     1       9.169  -4.263   1.189  0.00  0.00    +0.229 C 
BRANCH  30  32
ATOM     31  C   UNL     1       9.886  -6.409   2.249  0.00  0.00    +0.007 C 
ATOM     32  C   UNL     1       9.602  -5.706   0.920  0.00  0.00    +0.038 C 
ENDBRANCH  30  32
ENDBRANCH  29  30
ENDBRANCH  22  29
ENDBRANCH  20  25
ENDBRANCH   1  20
BRANCH  10  33
ATOM     33  C   UNL     1      -1.190  -0.727  -1.119  0.00  0.00    +0.347 C 
ATOM     34  O   UNL     1      -2.312  -0.289  -1.294  0.00  0.00    -0.244 OA
BRANCH  33  35
ATOM     35  O   UNL     1      -0.984  -2.060  -1.086  0.00  0.00    -0.464 OA
ATOM     36  C   UNL     1      -2.128  -2.898  -1.264  0.00  0.00    +0.280 C 
ENDBRANCH  33  35
ENDBRANCH  10  33
BRANCH   2  37
ATOM     37  O   UNL     1       6.034   4.491   0.006  0.00  0.00    -0.502 OA
ATOM     38  H   UNL     1       5.414   5.269  -0.092  0.00  0.00    +0.292 HD
ENDBRANCH   2  37
TORSDOF 9
