REMARK  Name = ZINC38488753
REMARK  3 active torsions:
REMARK  status: ('A' for Active; 'I' for Inactive)
REMARK    1  A    between atoms: C_5  and  N_7
REMARK    2  A    between atoms: C_8  and  C_10
REMARK    3  A    between atoms: C_10  and  C_15
REMARK                            x       y       z     vdW  Elec       q    Type
REMARK                         _______ _______ _______ _____ _____    ______ ____
ROOT
ATOM      1  N   UNL     1       1.157  -2.094  -0.021  0.00  0.00    -0.283 N 
ATOM      2  C   UNL     1      -0.012  -2.755   0.089  0.00  0.00    +0.228 C 
ATOM      3  O   UNL     1      -1.057  -2.141   0.103  0.00  0.00    -0.274 OA
ATOM      4  H   UNL     1       1.987  -2.587  -0.112  0.00  0.00    +0.155 HD
ENDROOT
BRANCH   1   9
ATOM      5  C   UNL     1       0.157   1.380   0.645  0.00  0.00    +0.004 A 
ATOM      6  C   UNL     1       1.141   2.113   0.073  0.00  0.00    +0.031 A 
ATOM      7  C   UNL     1       2.223   1.469  -0.587  0.00  0.00    +0.102 A 
ATOM      8  C   UNL     1       2.243   0.012  -0.627  0.00  0.00    +0.121 A 
ATOM      9  C   UNL     1       1.174  -0.698  -0.003  0.00  0.00    +0.062 A 
ATOM     10  C   UNL     1       0.170  -0.013   0.610  0.00  0.00    +0.025 A 
ATOM     11  N   UNL     1       3.301  -0.481  -1.269  0.00  0.00    -0.189 NA
ATOM     12  S   UNL     1       4.151   0.797  -1.751  0.00  0.00    +0.117 S 
ATOM     13  N   UNL     1       3.269   2.024  -1.200  0.00  0.00    -0.191 NA
ENDBRANCH   1   9
BRANCH   2  14
ATOM     14  C   UNL     1      -0.020  -4.259   0.194  0.00  0.00    +0.078 C 
ATOM     15  C   UNL     1       0.708  -4.702   1.480  0.00  0.00    +0.021 C 
ATOM     16  C   UNL     1      -0.429  -4.894   2.513  0.00  0.00    +0.001 C 
ATOM     17  C   UNL     1      -1.566  -5.509   1.660  0.00  0.00    +0.001 C 
ATOM     18  C   UNL     1      -1.466  -4.771   0.309  0.00  0.00    +0.021 C 
BRANCH  14  19
ATOM     19  C   UNL     1       0.648  -4.864  -1.014  0.00  0.00    +0.005 A 
ATOM     20  C   UNL     1       1.916  -4.693  -1.463  0.00  0.00    +0.012 A 
ATOM     21  C   UNL     1       2.316  -5.357  -2.607  0.00  0.00    +0.008 A 
ATOM     22  C   UNL     1       1.430  -6.160  -3.246  0.00  0.00    +0.045 A 
ATOM     23  S   UNL     1      -0.021  -5.998  -2.219  0.00  0.00    -0.101 S 
ENDBRANCH  14  19
ENDBRANCH   2  14
TORSDOF 3
