REMARK  Name = ZINC05313737
REMARK  7 active torsions:
REMARK  status: ('A' for Active; 'I' for Inactive)
REMARK    1  A    between atoms: C_1  and  C_2
REMARK    2  A    between atoms: N_10  and  C_14
REMARK    3  A    between atoms: C_14  and  C_15
REMARK    4  A    between atoms: N_17  and  C_18
REMARK    5  A    between atoms: C_18  and  C_19
REMARK    6  A    between atoms: C_19  and  S_20
REMARK    7  A    between atoms: S_20  and  C_21
REMARK                            x       y       z     vdW  Elec       q    Type
REMARK                         _______ _______ _______ _____ _____    ______ ____
ROOT
ATOM      1  C   UNL     1       6.274   7.883  -0.016  0.00  0.00    +0.213 C 
ENDROOT
BRANCH   1  11
ATOM      2  C   UNL     1       6.953  15.830   0.597  0.00  0.00    +0.007 C 
ATOM      3  C   UNL     1       6.836  14.392   1.104  0.00  0.00    -0.014 C 
ATOM      4  C   UNL     1       5.526  13.780   0.605  0.00  0.00    +0.006 C 
ATOM      5  C   UNL     1       5.404  12.345   1.123  0.00  0.00    +0.035 C 
ATOM      6  C   UNL     1       6.588  11.521   0.630  0.00  0.00    +0.113 C 
ATOM      7  C   UNL     1       7.904  12.133   1.099  0.00  0.00    +0.035 C 
ATOM      8  C   UNL     1       8.016  13.569   0.581  0.00  0.00    +0.006 C 
ATOM      9  C   UNL     1       6.472  10.092   1.109  0.00  0.00    +0.247 C 
ATOM     10  O   UNL     1       6.449   9.702   2.256  0.00  0.00    -0.273 OA
ATOM     11  N   UNL     1       6.398   9.342  -0.010  0.00  0.00    -0.215 N 
ATOM     12  C   UNL     1       6.456  10.097  -1.114  0.00  0.00    +0.310 C 
ATOM     13  O   UNL     1       6.413   9.648  -2.243  0.00  0.00    -0.252 OA
ATOM     14  N   UNL     1       6.565  11.410  -0.834  0.00  0.00    -0.285 N 
ATOM     15  H   UNL     1       6.621  12.138  -1.473  0.00  0.00    +0.151 HD
ENDBRANCH   1  11
BRANCH   1  16
ATOM     16  C   UNL     1       4.816   7.501  -0.005  0.00  0.00    +0.231 C 
ATOM     17  O   UNL     1       3.964   8.364   0.008  0.00  0.00    -0.274 OA
ATOM     18  N   UNL     1       4.459   6.202  -0.008  0.00  0.00    -0.313 N 
ATOM     19  H   UNL     1       5.141   5.512  -0.018  0.00  0.00    +0.149 HD
BRANCH  18  20
ATOM     20  C   UNL     1       3.042   5.831   0.004  0.00  0.00    +0.115 C 
BRANCH  20  21
ATOM     21  C   UNL     1       2.913   4.307  -0.003  0.00  0.00    +0.093 C 
BRANCH  21  22
ATOM     22  S   UNL     1       1.158   3.848   0.011  0.00  0.00    -0.124 S 
BRANCH  22  23
ATOM     23  C   UNL     1       1.178   2.086   0.002  0.00  0.00    +0.008 A 
ATOM     24  C   UNL     1      -0.017   1.377   0.010  0.00  0.00    +0.016 A 
ATOM     25  C   UNL     1       0.002  -0.004   0.002  0.00  0.00    +0.021 A 
ATOM     26  C   UNL     1       1.209  -0.681  -0.013  0.00  0.00    +0.041 A 
ATOM     27  C   UNL     1       2.401   0.023  -0.020  0.00  0.00    +0.021 A 
ATOM     28  C   UNL     1       2.388   1.404  -0.013  0.00  0.00    +0.016 A 
ATOM     29 CL   UNL     1       1.228  -2.417  -0.021  0.00  0.00    -0.084 Cl
ENDBRANCH  22  23
ENDBRANCH  21  22
ENDBRANCH  20  21
ENDBRANCH  18  20
ENDBRANCH   1  16
TORSDOF 6
