REMARK  Name = ZINC22301832
REMARK  9 active torsions:
REMARK  status: ('A' for Active; 'I' for Inactive)
REMARK    1  A    between atoms: C_1  and  C_2
REMARK    2  A    between atoms: C_2  and  C_4
REMARK    3  A    between atoms: C_2  and  O_16
REMARK    4  A    between atoms: N_9  and  C_10
REMARK    5  A    between atoms: O_16  and  C_17
REMARK    6  A    between atoms: C_17  and  C_19
REMARK    7  A    between atoms: C_19  and  C_20
REMARK    8  A    between atoms: C_20  and  N_21
REMARK    9  A    between atoms: N_24  and  C_25
REMARK                            x       y       z     vdW  Elec       q    Type
REMARK                         _______ _______ _______ _____ _____    ______ ____
ROOT
ATOM      1  C   UNL     1      -7.037   1.297  -0.693  0.00  0.00    +0.309 C 
ATOM      2  O   UNL     1      -7.074   0.169  -1.124  0.00  0.00    -0.251 OA
ENDROOT
BRANCH   1   3
ATOM      3  O   UNL     1      -5.930   1.746  -0.080  0.00  0.00    -0.452 OA
BRANCH   3   5
ATOM      4  C   UNL     1      -4.936   0.029   1.333  0.00  0.00    +0.062 C 
ATOM      5  C   UNL     1      -4.816   0.821   0.029  0.00  0.00    +0.259 C 
BRANCH   5   6
ATOM      6  C   UNL     1      -3.522   1.592   0.027  0.00  0.00    +0.261 C 
ATOM      7  O   UNL     1      -3.538   2.804   0.034  0.00  0.00    -0.271 OA
ATOM      8  N   UNL     1      -2.345   0.934   0.018  0.00  0.00    -0.237 N 
ATOM      9  C   UNL     1      -1.187   1.624   0.017  0.00  0.00    +0.306 C 
ATOM     10  O   UNL     1      -1.204   2.839   0.023  0.00  0.00    -0.252 OA
ATOM     11  N   UNL     1      -0.011   0.966   0.007  0.00  0.00    -0.296 N 
ATOM     12  H   UNL     1      -2.330  -0.166   0.012  0.00  0.00    +0.159 HD
ATOM     13  H   UNL     1       0.004  -0.134   0.006  0.00  0.00    +0.151 HD
BRANCH  11  14
ATOM     14  C   UNL     1       1.248   1.716  -0.001  0.00  0.00    +0.074 C 
ATOM     15  C   UNL     1       1.608   2.092  -1.439  0.00  0.00    +0.022 C 
ATOM     16  C   UNL     1       2.922   2.875  -1.448  0.00  0.00    +0.002 C 
ATOM     17  C   UNL     1       4.035   2.010  -0.853  0.00  0.00    +0.000 C 
ATOM     18  C   UNL     1       3.675   1.633   0.585  0.00  0.00    +0.002 C 
ATOM     19  C   UNL     1       2.361   0.850   0.594  0.00  0.00    +0.022 C 
ENDBRANCH  11  14
ENDBRANCH   5   6
ENDBRANCH   3   5
ENDBRANCH   1   3
BRANCH   1  20
ATOM     20  C   UNL     1      -8.234   2.200  -0.843  0.00  0.00    +0.139 C 
BRANCH  20  21
ATOM     21  C   UNL     1      -9.351   1.449  -1.571  0.00  0.00    +0.117 C 
BRANCH  21  22
ATOM     22  N   UNL     1     -10.514   2.327  -1.718  0.00  0.00    -0.299 N 
ATOM     23  C   UNL     1     -11.626   1.877  -2.333  0.00  0.00    +0.300 C 
ATOM     24  O   UNL     1     -11.662   0.741  -2.767  0.00  0.00    -0.253 OA
ATOM     25  N   UNL     1     -12.696   2.684  -2.467  0.00  0.00    -0.294 N 
ATOM     26  H   UNL     1     -10.481   3.354  -1.325  0.00  0.00    +0.150 HD
ATOM     27  H   UNL     1     -12.663   3.712  -2.075  0.00  0.00    +0.151 HD
BRANCH  25  28
ATOM     28  C   UNL     1     -13.904   2.195  -3.136  0.00  0.00    +0.037 C 
ATOM     29  C   UNL     1     -13.563   1.790  -4.572  0.00  0.00    +0.029 C 
ATOM     30  C   UNL     1     -14.825   1.278  -5.271  0.00  0.00    -0.008 C 
ATOM     31  C   UNL     1     -15.882   2.385  -5.290  0.00  0.00    +0.007 C 
ATOM     32  C   UNL     1     -16.222   2.789  -3.854  0.00  0.00    -0.008 C 
ATOM     33  C   UNL     1     -14.961   3.301  -3.155  0.00  0.00    +0.029 C 
ATOM     34  C   UNL     1     -16.767   1.576  -3.098  0.00  0.00    +0.007 C 
ATOM     35  C   UNL     1     -15.710   0.469  -3.079  0.00  0.00    -0.008 C 
ATOM     36  C   UNL     1     -15.370   0.065  -4.515  0.00  0.00    +0.007 C 
ATOM     37  C   UNL     1     -14.449   0.981  -2.380  0.00  0.00    +0.029 C 
ENDBRANCH  25  28
ENDBRANCH  21  22
ENDBRANCH  20  21
ENDBRANCH   1  20
TORSDOF 8
