REMARK  Name = ZINC15012465
REMARK  7 active torsions:
REMARK  status: ('A' for Active; 'I' for Inactive)
REMARK    1  A    between atoms: C_1  and  C_2
REMARK    2  A    between atoms: C_4  and  C_28
REMARK    3  A    between atoms: C_6  and  N_8
REMARK    4  A    between atoms: C_12  and  C_13
REMARK    5  A    between atoms: C_15  and  O_21
REMARK    6  A    between atoms: C_16  and  O_20
REMARK    7  A    between atoms: O_21  and  C_22
REMARK                            x       y       z     vdW  Elec       q    Type
REMARK                         _______ _______ _______ _____ _____    ______ ____
ROOT
ATOM      1  N   UNL     1       4.789   4.311   0.192  0.00  0.00    -0.190 N 
ATOM      2  C   UNL     1       3.687   3.587   0.475  0.00  0.00    +0.263 C 
ATOM      3  O   UNL     1       3.767   2.398   0.722  0.00  0.00    -0.269 OA
ATOM      4  C   UNL     1       2.382   4.276   0.479  0.00  0.00    +0.100 C 
ATOM      5  C   UNL     1       1.210   3.601   0.759  0.00  0.00    +0.026 C 
ATOM      6  C   UNL     1       2.384   5.719   0.163  0.00  0.00    +0.257 C 
ATOM      7  O   UNL     1       1.348   6.355   0.141  0.00  0.00    -0.270 OA
ATOM      8  N   UNL     1       3.568   6.312  -0.096  0.00  0.00    -0.235 N 
ATOM      9  C   UNL     1       4.716   5.622  -0.081  0.00  0.00    +0.320 C 
ATOM     10  O   UNL     1       5.747   6.216  -0.328  0.00  0.00    -0.251 OA
ATOM     11  H   UNL     1       3.587   7.260  -0.302  0.00  0.00    +0.159 HD
ENDROOT
BRANCH   1  17
ATOM     12  C   UNL     1       8.168   1.643  -2.185  0.00  0.00    +0.044 C 
ATOM     13  C   UNL     1       7.702   2.379  -0.956  0.00  0.00    -0.048 A 
ATOM     14  C   UNL     1       8.509   2.431   0.166  0.00  0.00    +0.006 A 
ATOM     15  C   UNL     1       8.085   3.106   1.296  0.00  0.00    -0.048 A 
ATOM     16  C   UNL     1       6.853   3.730   1.308  0.00  0.00    +0.027 A 
ATOM     17  C   UNL     1       6.040   3.679   0.183  0.00  0.00    +0.046 A 
ATOM     18  C   UNL     1       6.467   2.997  -0.948  0.00  0.00    +0.027 A 
ATOM     19  C   UNL     1       8.968   3.160   2.516  0.00  0.00    +0.044 C 
ENDBRANCH   1  17
BRANCH   5  20
ATOM     20  C   UNL     1       1.260   2.247   1.311  0.00  0.00    -0.019 A 
ATOM     21  C   UNL     1       0.395   1.255   0.822  0.00  0.00    +0.057 A 
ATOM     22  C   UNL     1       0.448  -0.019   1.346  0.00  0.00    +0.163 A 
ATOM     23  C   UNL     1       1.360  -0.321   2.360  0.00  0.00    +0.172 A 
ATOM     24  C   UNL     1       2.217   0.660   2.845  0.00  0.00    +0.059 A 
ATOM     25  C   UNL     1       2.172   1.935   2.330  0.00  0.00    +0.026 A 
ATOM     26  I   UNL     1       3.581   0.195   4.367  0.00  0.00    -0.040 I 
BRANCH  23  27
ATOM     27  O   UNL     1       1.409  -1.577   2.873  0.00  0.00    -0.503 OA
ATOM     28  H   UNL     1       2.024  -2.165   2.415  0.00  0.00    +0.292 HD
ENDBRANCH  23  27
BRANCH  22  29
ATOM     29  O   UNL     1      -0.388  -0.983   0.876  0.00  0.00    -0.491 OA
ATOM     30  C   UNL     1      -1.295  -0.604  -0.162  0.00  0.00    +0.277 C 
ENDBRANCH  22  29
ENDBRANCH   5  20
TORSDOF 4
