REMARK  Name = ZINC08941847
REMARK  10 active torsions:
REMARK  status: ('A' for Active; 'I' for Inactive)
REMARK    1  A    between atoms: C_1  and  C_2
REMARK    2  A    between atoms: C_2  and  C_3
REMARK    3  A    between atoms: C_2  and  N_4
REMARK    4  A    between atoms: N_9  and  C_16
REMARK    5  A    between atoms: C_12  and  S_14
REMARK    6  A    between atoms: S_14  and  C_15
REMARK    7  A    between atoms: C_16  and  C_17
REMARK    8  A    between atoms: C_17  and  N_18
REMARK    9  A    between atoms: C_19  and  C_21
REMARK   10  A    between atoms: C_21  and  C_26
REMARK                            x       y       z     vdW  Elec       q    Type
REMARK                         _______ _______ _______ _____ _____    ______ ____
ROOT
ATOM      1  C   UNL     1      -3.845   1.006  -4.989  0.00  0.00    +0.164 C 
ENDROOT
BRANCH   1   7
ATOM      2  N   UNL     1      -7.681  -2.788  -7.778  0.00  0.00    -0.326 N 
ATOM      3  C   UNL     1      -7.336  -1.961  -6.727  0.00  0.00    +0.134 A 
ATOM      4  C   UNL     1      -6.101  -1.281  -6.720  0.00  0.00    +0.078 A 
ATOM      5  C   UNL     1      -5.002  -1.215  -7.602  0.00  0.00    +0.148 A 
ATOM      6  N   UNL     1      -4.112  -0.412  -7.094  0.00  0.00    -0.177 NA
ATOM      7  N   UNL     1      -4.567   0.079  -5.864  0.00  0.00    -0.245 N 
ATOM      8  C   UNL     1      -5.800  -0.450  -5.623  0.00  0.00    +0.164 A 
ATOM      9  N   UNL     1      -6.689  -0.337  -4.638  0.00  0.00    -0.202 NA
ATOM     10  C   UNL     1      -7.835  -0.995  -4.686  0.00  0.00    +0.192 A 
ATOM     11  N   UNL     1      -8.159  -1.789  -5.701  0.00  0.00    -0.206 NA
ATOM     12  H   UNL     1      -7.070  -2.906  -8.522  0.00  0.00    +0.148 HD
BRANCH   2  14
ATOM     13  C   UNL     1     -10.053  -2.566  -8.329  0.00  0.00    +0.027 C 
ATOM     14  C   UNL     1      -8.968  -3.487  -7.768  0.00  0.00    +0.066 C 
ATOM     15  C   UNL     1      -8.871  -4.746  -8.632  0.00  0.00    +0.027 C 
ENDBRANCH   2  14
BRANCH  10  16
ATOM     16  S   UNL     1      -8.976  -0.811  -3.355  0.00  0.00    -0.089 S 
ATOM     17  C   UNL     1     -10.309  -1.891  -3.931  0.00  0.00    +0.093 C 
ENDBRANCH  10  16
ENDBRANCH   1   7
BRANCH   1  18
ATOM     18  C   UNL     1      -2.983   0.213  -4.005  0.00  0.00    +0.127 C 
BRANCH  18  19
ATOM     19  N   UNL     1      -2.261   1.140  -3.131  0.00  0.00    -0.313 N 
ATOM     20  C   UNL     1      -1.434   0.663  -2.179  0.00  0.00    +0.224 C 
ATOM     21  O   UNL     1      -1.215  -0.527  -2.107  0.00  0.00    -0.275 OA
ATOM     22  H   UNL     1      -2.378   2.097  -3.236  0.00  0.00    +0.149 HD
BRANCH  20  23
ATOM     23  C   UNL     1      -0.782   1.610  -1.204  0.00  0.00    +0.072 C 
ATOM     24  C   UNL     1      -0.015   0.817  -0.132  0.00  0.00    +0.021 C 
ATOM     25  C   UNL     1      -0.651   1.180   1.226  0.00  0.00    +0.001 C 
ATOM     26  C   UNL     1      -2.082   1.651   0.860  0.00  0.00    +0.001 C 
ATOM     27  C   UNL     1      -1.859   2.428  -0.461  0.00  0.00    +0.021 C 
BRANCH  23  28
ATOM     28  C   UNL     1       0.158   2.534  -1.934  0.00  0.00    -0.032 A 
ATOM     29  C   UNL     1       0.422   2.334  -3.276  0.00  0.00    +0.006 A 
ATOM     30  C   UNL     1       1.280   3.184  -3.947  0.00  0.00    +0.020 A 
ATOM     31  C   UNL     1       1.883   4.231  -3.272  0.00  0.00    +0.041 A 
ATOM     32  C   UNL     1       1.624   4.428  -1.927  0.00  0.00    +0.020 A 
ATOM     33  C   UNL     1       0.761   3.580  -1.259  0.00  0.00    +0.006 A 
ATOM     34 CL   UNL     1       2.966   5.296  -4.112  0.00  0.00    -0.084 Cl
ENDBRANCH  23  28
ENDBRANCH  20  23
ENDBRANCH  18  19
ENDBRANCH   1  18
TORSDOF 7
