REMARK  Name = ZINC36528992
REMARK  16 active torsions:
REMARK  status: ('A' for Active; 'I' for Inactive)
REMARK    1  A    between atoms: C_1  and  C_2
REMARK    2  A    between atoms: C_2  and  C_3
REMARK    3  A    between atoms: C_2  and  C_4
REMARK    4  A    between atoms: C_2  and  C_5
REMARK    5  A    between atoms: C_5  and  C_6
REMARK    6  A    between atoms: C_6  and  C_7
REMARK    7  A    between atoms: C_6  and  C_8
REMARK    8  A    between atoms: C_6  and  N_9
REMARK    9  A    between atoms: C_10  and  C_12
REMARK   10  A    between atoms: C_12  and  C_14
REMARK   11  A    between atoms: C_12  and  N_24
REMARK   12  A    between atoms: C_16  and  N_21
REMARK   13  A    between atoms: N_24  and  C_25
REMARK   14  A    between atoms: C_26  and  C_28
REMARK   15  A    between atoms: C_31  and  O_34
REMARK   16  A    between atoms: O_34  and  C_35
REMARK                            x       y       z     vdW  Elec       q    Type
REMARK                         _______ _______ _______ _____ _____    ______ ____
ROOT
ATOM      1  C   UNL     1       5.234  -0.348  -4.602  0.00  0.00    +0.194 C 
ENDROOT
BRANCH   1   2
ATOM      2  C   UNL     1       4.734   0.636  -5.629  0.00  0.00    +0.002 A 
ATOM      3  C   UNL     1       4.039   1.762  -5.227  0.00  0.00    +0.040 A 
ATOM      4  C   UNL     1       3.581   2.663  -6.169  0.00  0.00    +0.127 A 
ATOM      5  C   UNL     1       3.817   2.441  -7.513  0.00  0.00    +0.034 A 
ATOM      6  C   UNL     1       4.512   1.317  -7.915  0.00  0.00    +0.022 A 
ATOM      7  C   UNL     1       4.976   0.416  -6.973  0.00  0.00    +0.047 A 
ATOM      8 CL   UNL     1       5.856  -0.993  -7.478  0.00  0.00    -0.083 Cl
BRANCH   4   9
ATOM      9  N   UNL     1       2.836   3.868  -5.738  0.00  0.00    +0.056 N 
ATOM     10  O   UNL     1       2.629   4.063  -4.563  0.00  0.00    -0.126 OA
ATOM     11  O   UNL     1       2.435   4.657  -6.562  0.00  0.00    -0.126 OA
ENDBRANCH   4   9
ENDBRANCH   1   2
BRANCH   1  13
ATOM     12  N   UNL     1       3.123  -0.717  -3.367  0.00  0.00    -0.308 N 
ATOM     13  C   UNL     1       4.387  -0.250  -3.360  0.00  0.00    +0.239 C 
ATOM     14  O   UNL     1       4.843   0.249  -2.353  0.00  0.00    -0.273 OA
ATOM     15  H   UNL     1       2.780  -1.176  -4.150  0.00  0.00    +0.149 HD
BRANCH  12  16
ATOM     16  C   UNL     1       2.266  -0.531  -2.193  0.00  0.00    +0.030 C 
ATOM     17  C   UNL     1       2.314   0.933  -1.753  0.00  0.00    +0.031 C 
ATOM     18  C   UNL     1       2.762  -1.423  -1.054  0.00  0.00    +0.031 C 
BRANCH  16  19
ATOM     19  C   UNL     1       0.826  -0.910  -2.547  0.00  0.00    +0.031 C 
BRANCH  19  21
ATOM     20  C   UNL     1       1.016  -1.244  -5.016  0.00  0.00    +0.010 C 
ATOM     21  C   UNL     1       0.469  -0.331  -3.917  0.00  0.00    -0.036 C 
ATOM     22  C   UNL     1       1.085   1.062  -4.059  0.00  0.00    +0.010 C 
ATOM     23  C   UNL     1      -1.052  -0.231  -4.048  0.00  0.00    +0.010 C 
ENDBRANCH  19  21
ENDBRANCH  16  19
ENDBRANCH  12  16
ENDBRANCH   1  13
BRANCH   1  24
ATOM     24  N   UNL     1       6.627  -0.041  -4.269  0.00  0.00    -0.285 N 
ATOM     25  C   UNL     1       6.966   1.241  -3.646  0.00  0.00    +0.133 C 
ATOM     26  C   UNL     1       7.597  -0.938  -4.535  0.00  0.00    +0.247 C 
ATOM     27  O   UNL     1       7.321  -1.986  -5.086  0.00  0.00    -0.270 OA
BRANCH  26  28
ATOM     28  C   UNL     1       8.994  -0.648  -4.159  0.00  0.00    +0.037 A 
ATOM     29  C   UNL     1       9.268   0.176  -3.064  0.00  0.00    +0.016 A 
ATOM     30  C   UNL     1      10.573   0.444  -2.715  0.00  0.00    +0.046 A 
ATOM     31  C   UNL     1      11.617  -0.104  -3.451  0.00  0.00    +0.120 A 
ATOM     32  C   UNL     1      11.349  -0.924  -4.541  0.00  0.00    +0.046 A 
ATOM     33  C   UNL     1      10.047  -1.201  -4.892  0.00  0.00    +0.016 A 
BRANCH  31  34
ATOM     34  O   UNL     1      12.902   0.163  -3.105  0.00  0.00    -0.495 OA
ATOM     35  C   UNL     1      13.926  -0.432  -3.904  0.00  0.00    +0.277 C 
ENDBRANCH  31  34
ENDBRANCH  26  28
ENDBRANCH   1  24
TORSDOF 9
