REMARK  Name = ZINC36643474
REMARK  10 active torsions:
REMARK  status: ('A' for Active; 'I' for Inactive)
REMARK    1  A    between atoms: C_1  and  C_2
REMARK    2  A    between atoms: N_8  and  S_9
REMARK    3  A    between atoms: S_9  and  C_12
REMARK    4  A    between atoms: C_15  and  C_18
REMARK    5  A    between atoms: N_20  and  C_21
REMARK    6  A    between atoms: C_21  and  C_22
REMARK    7  A    between atoms: C_22  and  C_23
REMARK    8  A    between atoms: C_23  and  N_24
REMARK    9  A    between atoms: N_24  and  C_25
REMARK   10  A    between atoms: N_24  and  C_26
REMARK                            x       y       z     vdW  Elec       q    Type
REMARK                         _______ _______ _______ _____ _____    ______ ____
ROOT
ATOM      1  C   UNL     1      -2.539   0.950   6.816  0.00  0.00    +0.252 C 
ATOM      2  O   UNL     1      -3.446   1.758   6.779  0.00  0.00    -0.270 OA
ATOM      3  N   UNL     1      -2.211   0.357   7.981  0.00  0.00    -0.246 N 
ATOM      4  C   UNL     1      -2.877   0.702   9.145  0.00  0.00    +0.168 A 
ATOM      5  N   UNL     1      -2.642   0.310  10.375  0.00  0.00    -0.221 NA
ATOM      6  C   UNL     1      -3.380   0.732  11.425  0.00  0.00    +0.115 A 
ATOM      7  C   UNL     1      -3.233   0.389  12.791  0.00  0.00    +0.150 A 
ATOM      8  C   UNL     1      -4.077   0.911  13.739  0.00  0.00    +0.040 A 
ATOM      9  C   UNL     1      -5.097   1.787  13.397  0.00  0.00    +0.004 A 
ATOM     10  C   UNL     1      -5.269   2.143  12.072  0.00  0.00    +0.017 A 
ATOM     11  C   UNL     1      -4.429   1.626  11.116  0.00  0.00    +0.044 A 
ATOM     12  S   UNL     1      -4.272   1.800   9.355  0.00  0.00    -0.052 S 
ATOM     13  F   UNL     1      -2.252  -0.462  13.165  0.00  0.00    -0.203 F 
ENDROOT
BRANCH   1  17
ATOM     14  C   UNL     1      -0.405  -0.006   3.271  0.00  0.00    +0.106 A 
ATOM     15  C   UNL     1      -1.781   0.133   3.230  0.00  0.00    +0.029 A 
ATOM     16  C   UNL     1      -2.480   0.443   4.377  0.00  0.00    +0.015 A 
ATOM     17  C   UNL     1      -1.797   0.617   5.582  0.00  0.00    +0.037 A 
ATOM     18  C   UNL     1      -0.408   0.474   5.617  0.00  0.00    +0.015 A 
ATOM     19  C   UNL     1       0.278   0.159   4.463  0.00  0.00    +0.029 A 
BRANCH  14  20
ATOM     20  S   UNL     1       0.481  -0.403   1.800  0.00  0.00    +0.061 S 
ATOM     21  O   UNL     1       1.813   0.053   1.993  0.00  0.00    -0.153 OA
ATOM     22  O   UNL     1      -0.323   0.031   0.712  0.00  0.00    -0.153 OA
BRANCH  20  29
ATOM     23  C   UNL     1      -1.605  -1.862   0.562  0.00  0.00    +0.026 C 
ATOM     24  C   UNL     1      -0.563  -2.823   1.139  0.00  0.00    +0.077 C 
ATOM     25  C   UNL     1      -0.029  -3.730   0.026  0.00  0.00    +0.020 C 
ATOM     26  C   UNL     1       1.109  -4.591   0.578  0.00  0.00    +0.003 C 
ATOM     27  C   UNL     1       2.250  -3.688   1.053  0.00  0.00    +0.017 C 
ATOM     28  C   UNL     1       1.742  -2.780   2.178  0.00  0.00    +0.110 C 
ATOM     29  N   UNL     1       0.555  -2.055   1.704  0.00  0.00    -0.174 NA
ENDBRANCH  20  29
ENDBRANCH  14  20
ENDBRANCH   1  17
BRANCH   3  30
ATOM     30  C   UNL     1      -1.149  -0.651   8.016  0.00  0.00    +0.114 C 
BRANCH  30  31
ATOM     31  C   UNL     1       0.105  -0.050   8.653  0.00  0.00    +0.001 C 
BRANCH  31  32
ATOM     32  C   UNL     1       1.249  -1.063   8.582  0.00  0.00    -0.078 C 
BRANCH  32  33
ATOM     33  N   UNL     1       2.454  -0.485   9.193  0.00  0.00    +0.376 N 
ATOM     34  C   UNL     1       3.517  -1.498   9.233  0.00  0.00    -0.097 C 
ATOM     35  C   UNL     1       2.903   0.666   8.398  0.00  0.00    -0.097 C 
ATOM     36  H   UNL     1       2.242  -0.182  10.132  0.00  0.00    -0.083 HD
ENDBRANCH  32  33
ENDBRANCH  31  32
ENDBRANCH  30  31
ENDBRANCH   3  30
TORSDOF 7
