REMARK  Name = ZINC39266173
REMARK  11 active torsions:
REMARK  status: ('A' for Active; 'I' for Inactive)
REMARK    1  A    between atoms: C_1  and  C_2
REMARK    2  A    between atoms: C_2  and  C_3
REMARK    3  A    between atoms: C_2  and  C_4
REMARK    4  A    between atoms: C_2  and  C_5
REMARK    5  A    between atoms: C_8  and  N_11
REMARK    6  A    between atoms: C_12  and  C_14
REMARK    7  A    between atoms: C_14  and  N_15
REMARK    8  A    between atoms: C_16  and  C_35
REMARK    9  A    between atoms: C_25  and  O_27
REMARK   10  A    between atoms: O_27  and  C_28
REMARK   11  A    between atoms: C_28  and  C_29
REMARK                            x       y       z     vdW  Elec       q    Type
REMARK                         _______ _______ _______ _____ _____    ______ ____
ROOT
ATOM      1  N   UNL     1       5.220   0.842  -7.047  0.00  0.00    -0.281 N 
ATOM      2  C   UNL     1       5.716   1.882  -7.941  0.00  0.00    +0.139 C 
ATOM      3  C   UNL     1       7.104   1.610  -7.391  0.00  0.00    +0.139 C 
ATOM      4  C   UNL     1       6.432   0.583  -6.538  0.00  0.00    +0.243 C 
ATOM      5  O   UNL     1       6.833  -0.195  -5.699  0.00  0.00    -0.273 OA
ATOM      6  C   UNL     1       7.749   2.777  -6.624  0.00  0.00    +0.039 C 
ATOM      7  C   UNL     1       9.268   2.512  -6.809  0.00  0.00    +0.022 C 
ATOM      8  C   UNL     1       9.310   1.926  -8.243  0.00  0.00    +0.112 C 
ATOM      9  N   UNL     1       8.088   1.107  -8.353  0.00  0.00    -0.251 N 
ATOM     10  C   UNL     1       7.907   0.071  -9.196  0.00  0.00    +0.404 C 
ATOM     11  O   UNL     1       6.827  -0.484  -9.254  0.00  0.00    -0.226 OA
ENDROOT
BRANCH   2  12
ATOM     12  C   UNL     1       5.568   1.540  -9.402  0.00  0.00    -0.024 A 
ATOM     13  C   UNL     1       4.615   0.623  -9.804  0.00  0.00    +0.005 A 
ATOM     14  C   UNL     1       4.481   0.308 -11.143  0.00  0.00    +0.000 A 
ATOM     15  C   UNL     1       5.298   0.912 -12.080  0.00  0.00    +0.000 A 
ATOM     16  C   UNL     1       6.250   1.829 -11.678  0.00  0.00    +0.000 A 
ATOM     17  C   UNL     1       6.383   2.147 -10.339  0.00  0.00    +0.005 A 
ENDBRANCH   2  12
BRANCH   1  18
ATOM     18  C   UNL     1       3.887   0.290  -6.794  0.00  0.00    +0.204 C 
BRANCH  18  20
ATOM     19  N   UNL     1       2.042   0.633  -5.182  0.00  0.00    -0.311 N 
ATOM     20  C   UNL     1       3.275   0.980  -5.602  0.00  0.00    +0.231 C 
ATOM     21  O   UNL     1       3.891   1.848  -5.022  0.00  0.00    -0.274 OA
ATOM     22  H   UNL     1       1.549  -0.061  -5.646  0.00  0.00    +0.149 HD
BRANCH  19  26
ATOM     23  C   UNL     1      -0.228   1.239  -1.621  0.00  0.00    -0.005 C 
ATOM     24  C   UNL     1      -0.699   1.924  -2.905  0.00  0.00    +0.006 C 
ATOM     25  C   UNL     1      -0.078   1.223  -4.115  0.00  0.00    +0.022 C 
ATOM     26  C   UNL     1       1.447   1.304  -4.024  0.00  0.00    +0.073 C 
ATOM     27  C   UNL     1       1.919   0.619  -2.740  0.00  0.00    +0.022 C 
ATOM     28  C   UNL     1       1.297   1.320  -1.530  0.00  0.00    +0.006 C 
BRANCH  23  30
ATOM     29  C   UNL     1      -0.417   3.407  -0.394  0.00  0.00    +0.011 C 
ATOM     30  C   UNL     1      -0.849   1.940  -0.411  0.00  0.00    -0.035 C 
ATOM     31  C   UNL     1      -0.378   1.254   0.873  0.00  0.00    +0.011 C 
ATOM     32  C   UNL     1      -2.374   1.858  -0.502  0.00  0.00    +0.011 C 
ENDBRANCH  23  30
ENDBRANCH  19  26
ENDBRANCH  18  20
ENDBRANCH   1  18
BRANCH  10  33
ATOM     33  O   UNL     1       8.922  -0.348  -9.975  0.00  0.00    -0.445 OA
BRANCH  33  34
ATOM     34  C   UNL     1       8.659  -1.451 -10.845  0.00  0.00    +0.269 C 
BRANCH  34  35
ATOM     35  C   UNL     1       9.902  -1.777 -11.633  0.00  0.00    -0.010 A 
ATOM     36  C   UNL     1      10.130  -1.163 -12.850  0.00  0.00    +0.007 A 
ATOM     37  C   UNL     1      11.270  -1.462 -13.572  0.00  0.00    +0.000 A 
ATOM     38  C   UNL     1      12.182  -2.374 -13.077  0.00  0.00    +0.000 A 
ATOM     39  C   UNL     1      11.955  -2.988 -11.859  0.00  0.00    +0.000 A 
ATOM     40  C   UNL     1      10.817  -2.686 -11.135  0.00  0.00    +0.007 A 
ENDBRANCH  34  35
ENDBRANCH  33  34
ENDBRANCH  10  33
TORSDOF 8
