REMARK  Name = ZINC67186853
REMARK  6 active torsions:
REMARK  status: ('A' for Active; 'I' for Inactive)
REMARK    1  A    between atoms: C_8  and  C_10
REMARK    2  A    between atoms: C_11  and  C_16
REMARK    3  A    between atoms: C_16  and  N_17
REMARK    4  A    between atoms: N_17  and  C_18
REMARK    5  A    between atoms: C_18  and  C_19
REMARK    6  A    between atoms: C_22  and  N_25
REMARK                            x       y       z     vdW  Elec       q    Type
REMARK                         _______ _______ _______ _____ _____    ______ ____
ROOT
ATOM      1  N   UNL     1       6.277  -1.367  -0.667  0.00  0.00    +0.384 N 
ATOM      2  H   UNL     1       5.603  -0.824  -0.148  0.00  0.00    -0.085 HD
ATOM      3  H   UNL     1       6.849  -1.895  -0.025  0.00  0.00    -0.085 HD
ENDROOT
BRANCH   1   4
ATOM      4  C   UNL     1       5.573  -2.291  -1.567  0.00  0.00    -0.042 C 
BRANCH   4   6
ATOM      5  C   UNL     1       3.429  -2.904  -0.228  0.00  0.00    +0.129 A 
ATOM      6  C   UNL     1       4.700  -3.214  -0.756  0.00  0.00    -0.016 A 
ATOM      7  C   UNL     1       4.994  -4.485  -0.408  0.00  0.00    +0.107 A 
ATOM      8  N   UNL     1       3.961  -4.971   0.313  0.00  0.00    -0.284 N 
ATOM      9  H   UNL     1       3.901  -5.861   0.694  0.00  0.00    +0.188 HD
ATOM     10  N   UNL     1       2.991  -3.965   0.420  0.00  0.00    -0.171 NA
BRANCH   5  18
ATOM     11  C   UNL     1       0.087   2.102  -0.825  0.00  0.00    +0.001 A 
ATOM     12  C   UNL     1       1.332   2.711  -0.762  0.00  0.00    +0.004 A 
ATOM     13  C   UNL     1       2.478   1.958  -0.620  0.00  0.00    +0.047 A 
ATOM     14  C   UNL     1       2.390   0.574  -0.538  0.00  0.00    +0.136 A 
ATOM     15  C   UNL     1       1.126  -0.038  -0.602  0.00  0.00    +0.021 A 
ATOM     16  C   UNL     1      -0.023   0.742  -0.747  0.00  0.00    +0.011 A 
ATOM     17  C   UNL     1       1.376  -1.477  -0.488  0.00  0.00    +0.060 A 
ATOM     18  C   UNL     1       2.718  -1.616  -0.370  0.00  0.00    +0.156 A 
ATOM     19  O   UNL     1       3.308  -0.405  -0.400  0.00  0.00    -0.453 OA
ENDBRANCH   5  18
ENDBRANCH   4   6
ENDBRANCH   1   4
BRANCH   1  20
ATOM     20  C   UNL     1       7.128  -0.468  -1.456  0.00  0.00    -0.046 C 
BRANCH  20  21
ATOM     21  C   UNL     1       7.850   0.479  -0.533  0.00  0.00    -0.064 A 
ATOM     22  C   UNL     1       7.272   1.689  -0.196  0.00  0.00    +0.003 A 
ATOM     23  C   UNL     1       7.931   2.560   0.650  0.00  0.00    +0.023 A 
ATOM     24  C   UNL     1       9.176   2.218   1.162  0.00  0.00    +0.035 A 
ATOM     25  C   UNL     1       9.754   1.003   0.821  0.00  0.00    +0.023 A 
ATOM     26  C   UNL     1       9.087   0.134  -0.021  0.00  0.00    +0.003 A 
BRANCH  24  27
ATOM     27  N   UNL     1       9.847   3.098   2.019  0.00  0.00    -0.270 N 
ATOM     28  C   UNL     1       9.147   3.878   2.866  0.00  0.00    +0.301 C 
ATOM     29  O   UNL     1       7.941   3.750   2.956  0.00  0.00    -0.253 OA
ATOM     30  N   UNL     1       9.784   4.801   3.615  0.00  0.00    -0.313 N 
ATOM     31  H   UNL     1      10.816   3.146   2.003  0.00  0.00    +0.156 HD
ATOM     32  H   UNL     1      10.746   4.904   3.543  0.00  0.00    +0.146 HD
ATOM     33  H   UNL     1       9.280   5.363   4.224  0.00  0.00    +0.146 HD
ENDBRANCH  24  27
ENDBRANCH  20  21
ENDBRANCH   1  20
TORSDOF 6
