REMARK  Name = ZINC39928991
REMARK  14 active torsions:
REMARK  status: ('A' for Active; 'I' for Inactive)
REMARK    1  A    between atoms: C_1  and  C_2
REMARK    2  A    between atoms: C_6  and  N_9
REMARK    3  A    between atoms: C_7  and  C_8
REMARK    4  A    between atoms: N_9  and  C_10
REMARK    5  A    between atoms: C_10  and  C_11
REMARK    6  A    between atoms: C_17  and  O_23
REMARK    7  A    between atoms: O_23  and  C_24
REMARK    8  A    between atoms: C_25  and  C_27
REMARK    9  A    between atoms: C_29  and  O_37
REMARK   10  A    between atoms: C_30  and  O_35
REMARK   11  A    between atoms: C_31  and  O_33
REMARK   12  A    between atoms: O_33  and  C_34
REMARK   13  A    between atoms: O_35  and  C_36
REMARK   14  A    between atoms: O_37  and  C_38
REMARK                            x       y       z     vdW  Elec       q    Type
REMARK                         _______ _______ _______ _____ _____    ______ ____
ROOT
ATOM      1  N   UNL     1      -0.146  -2.817   2.747  0.00  0.00    -0.266 N 
ATOM      2  C   UNL     1      -1.246  -3.395   3.272  0.00  0.00    +0.251 C 
ATOM      3  O   UNL     1      -1.133  -4.326   4.045  0.00  0.00    -0.270 OA
ENDROOT
BRANCH   1   9
ATOM      4  C   UNL     1       0.665  -1.123  -1.796  0.00  0.00    +0.044 C 
ATOM      5  C   UNL     1       0.107  -0.946  -0.407  0.00  0.00    -0.046 A 
ATOM      6  C   UNL     1      -0.536   0.231  -0.065  0.00  0.00    +0.004 A 
ATOM      7  C   UNL     1      -1.049   0.397   1.208  0.00  0.00    +0.002 A 
ATOM      8  C   UNL     1      -0.921  -0.612   2.143  0.00  0.00    +0.024 A 
ATOM      9  C   UNL     1      -0.277  -1.794   1.803  0.00  0.00    +0.040 A 
ATOM     10  C   UNL     1       0.232  -1.960   0.521  0.00  0.00    -0.026 A 
ATOM     11  C   UNL     1       0.927  -3.244   0.146  0.00  0.00    +0.046 C 
ENDBRANCH   1   9
BRANCH   2  12
ATOM     12  C   UNL     1      -2.586  -2.896   2.909  0.00  0.00    +0.044 A 
ATOM     13  C   UNL     1      -2.874  -2.567   1.581  0.00  0.00    +0.062 A 
ATOM     14  C   UNL     1      -4.131  -2.100   1.244  0.00  0.00    +0.166 A 
ATOM     15  C   UNL     1      -5.109  -1.957   2.225  0.00  0.00    +0.204 A 
ATOM     16  C   UNL     1      -4.824  -2.283   3.548  0.00  0.00    +0.166 A 
ATOM     17  C   UNL     1      -3.571  -2.756   3.890  0.00  0.00    +0.062 A 
BRANCH  16  18
ATOM     18  O   UNL     1      -5.780  -2.140   4.504  0.00  0.00    -0.491 OA
ATOM     19  C   UNL     1      -5.419  -2.493   5.841  0.00  0.00    +0.277 C 
ENDBRANCH  16  18
BRANCH  15  20
ATOM     20  O   UNL     1      -6.343  -1.497   1.890  0.00  0.00    -0.488 OA
ATOM     21  C   UNL     1      -7.319  -2.472   1.519  0.00  0.00    +0.277 C 
ENDBRANCH  15  20
BRANCH  14  22
ATOM     22  O   UNL     1      -4.412  -1.781  -0.048  0.00  0.00    -0.491 OA
ATOM     23  C   UNL     1      -3.405  -2.064  -1.021  0.00  0.00    +0.277 C 
ENDBRANCH  14  22
ENDBRANCH   2  12
BRANCH   1  24
ATOM     24  C   UNL     1       1.185  -3.262   3.166  0.00  0.00    +0.131 C 
BRANCH  24  25
ATOM     25  C   UNL     1       1.566  -2.569   4.475  0.00  0.00    +0.116 C 
ATOM     26  C   UNL     1       2.724  -3.333   5.086  0.00  0.00    -0.003 C 
ATOM     27  C   UNL     1       3.873  -2.644   5.323  0.00  0.00    -0.007 A 
ATOM     28  C   UNL     1       5.037  -3.312   5.912  0.00  0.00    +0.013 A 
ATOM     29  C   UNL     1       6.164  -2.594   6.133  0.00  0.00    +0.046 A 
ATOM     30  C   UNL     1       6.235  -1.230   5.810  0.00  0.00    +0.122 A 
ATOM     31  C   UNL     1       5.174  -0.550   5.255  0.00  0.00    +0.069 A 
ATOM     32  C   UNL     1       3.967  -1.211   4.991  0.00  0.00    +0.044 A 
ATOM     33  N   UNL     1       2.945  -0.541   4.453  0.00  0.00    -0.284 N 
ATOM     34  C   UNL     1       1.782  -1.102   4.177  0.00  0.00    +0.226 C 
ATOM     35  O   UNL     1       0.887  -0.441   3.685  0.00  0.00    -0.275 OA
ATOM     36  H   UNL     1       3.063   0.401   4.255  0.00  0.00    +0.155 HD
BRANCH  30  37
ATOM     37  O   UNL     1       7.387  -0.560   6.053  0.00  0.00    -0.495 OA
ATOM     38  C   UNL     1       8.462  -1.305   6.629  0.00  0.00    +0.277 C 
ENDBRANCH  30  37
ENDBRANCH  24  25
ENDBRANCH   1  24
TORSDOF 8
