REMARK  Name = ZINC57530898
REMARK  10 active torsions:
REMARK  status: ('A' for Active; 'I' for Inactive)
REMARK    1  A    between atoms: C_1  and  C_2
REMARK    2  A    between atoms: C_5  and  C_41
REMARK    3  A    between atoms: C_9  and  C_14
REMARK    4  A    between atoms: C_14  and  C_16
REMARK    5  A    between atoms: C_14  and  N_27
REMARK    6  A    between atoms: N_20  and  C_21
REMARK    7  A    between atoms: N_27  and  C_28
REMARK    8  A    between atoms: N_27  and  C_35
REMARK    9  A    between atoms: C_28  and  C_29
REMARK   10  A    between atoms: C_35  and  C_36
REMARK                            x       y       z     vdW  Elec       q    Type
REMARK                         _______ _______ _______ _____ _____    ______ ____
ROOT
ATOM      1  C   UNL     1      -0.111   0.149   4.475  0.00  0.00    +0.163 C 
ENDROOT
BRANCH   1  10
ATOM      2  C   UNL     1      -0.675   2.678  -0.042  0.00  0.00    +0.044 C 
ATOM      3  C   UNL     1      -1.032   1.235  -0.289  0.00  0.00    -0.041 A 
ATOM      4  C   UNL     1      -1.411   0.826  -1.536  0.00  0.00    +0.004 A 
ATOM      5  C   UNL     1      -1.741  -0.501  -1.774  0.00  0.00    +0.005 A 
ATOM      6  C   UNL     1      -1.694  -1.431  -0.758  0.00  0.00    -0.026 A 
ATOM      7  C   UNL     1      -1.311  -1.038   0.520  0.00  0.00    +0.052 A 
ATOM      8  C   UNL     1      -0.971   0.307   0.756  0.00  0.00    +0.002 A 
ATOM      9  C   UNL     1      -0.565   0.711   2.104  0.00  0.00    +0.021 A 
ATOM     10  C   UNL     1      -0.525  -0.232   3.077  0.00  0.00    +0.042 A 
ATOM     11  C   UNL     1      -0.870  -1.570   2.786  0.00  0.00    +0.254 A 
ATOM     12  O   UNL     1      -0.827  -2.401   3.676  0.00  0.00    -0.268 OA
ATOM     13  N   UNL     1      -1.254  -1.947   1.555  0.00  0.00    -0.322 N 
ATOM     14  H   UNL     1      -1.485  -2.875   1.389  0.00  0.00    +0.169 HD
ATOM     15  C   UNL     1      -2.055  -2.869  -1.031  0.00  0.00    +0.046 C 
ENDBRANCH   1  10
BRANCH   1  16
ATOM     16  C   UNL     1       1.181  -0.545   4.823  0.00  0.00    +0.173 A 
ATOM     17  N   UNL     1       1.313  -1.759   5.301  0.00  0.00    -0.111 NA
ATOM     18  N   UNL     1       2.570  -1.987   5.466  0.00  0.00    -0.023 NA
ATOM     19  N   UNL     1       3.244  -0.950   5.107  0.00  0.00    -0.044 NA
ATOM     20  N   UNL     1       2.423  -0.042   4.699  0.00  0.00    -0.224 N 
BRANCH  20  21
ATOM     21  C   UNL     1       2.776   1.289   4.199  0.00  0.00    +0.111 C 
ATOM     22  C   UNL     1       3.513   1.153   2.865  0.00  0.00    +0.027 C 
ATOM     23  C   UNL     1       3.882   2.543   2.343  0.00  0.00    +0.002 C 
ATOM     24  C   UNL     1       4.788   3.245   3.356  0.00  0.00    +0.000 C 
ATOM     25  C   UNL     1       4.052   3.381   4.691  0.00  0.00    +0.002 C 
ATOM     26  C   UNL     1       3.683   1.991   5.213  0.00  0.00    +0.027 C 
ENDBRANCH  20  21
ENDBRANCH   1  16
BRANCH   1  27
ATOM     27  N   UNL     1      -1.156  -0.257   5.424  0.00  0.00    -0.277 NA
BRANCH  27  28
ATOM     28  C   UNL     1      -0.965   0.393   6.727  0.00  0.00    +0.122 C 
BRANCH  28  29
ATOM     29  C   UNL     1       0.142  -0.302   7.477  0.00  0.00    -0.015 A 
ATOM     30  C   UNL     1      -0.113  -1.465   8.188  0.00  0.00    +0.008 A 
ATOM     31  C   UNL     1       0.936  -2.069   8.864  0.00  0.00    +0.020 A 
ATOM     32  C   UNL     1       2.193  -1.497   8.806  0.00  0.00    +0.111 A 
ATOM     33  N   UNL     1       2.399  -0.390   8.120  0.00  0.00    -0.263 NA
ATOM     34  C   UNL     1       1.426   0.209   7.461  0.00  0.00    +0.115 A 
ENDBRANCH  28  29
ENDBRANCH  27  28
BRANCH  27  35
ATOM     35  C   UNL     1      -2.494   0.025   4.886  0.00  0.00    +0.160 C 
BRANCH  35  36
ATOM     36  C   UNL     1      -3.537  -0.577   5.791  0.00  0.00    +0.119 A 
ATOM     37  C   UNL     1      -4.196   0.068   6.770  0.00  0.00    +0.046 A 
ATOM     38  C   UNL     1      -5.073  -0.871   7.361  0.00  0.00    +0.041 A 
ATOM     39  C   UNL     1      -4.898  -2.033   6.707  0.00  0.00    +0.195 A 
ATOM     40  O   UNL     1      -3.970  -1.848   5.753  0.00  0.00    -0.467 OA
ENDBRANCH  35  36
ENDBRANCH  27  35
ENDBRANCH   1  27
TORSDOF 8
