REMARK  Name = ZINC39939485
REMARK  12 active torsions:
REMARK  status: ('A' for Active; 'I' for Inactive)
REMARK    1  A    between atoms: C_1  and  C_2
REMARK    2  A    between atoms: C_2  and  C_3
REMARK    3  A    between atoms: C_2  and  C_4
REMARK    4  A    between atoms: C_4  and  N_5
REMARK    5  A    between atoms: C_6  and  C_31
REMARK    6  A    between atoms: C_10  and  S_11
REMARK    7  A    between atoms: S_11  and  C_12
REMARK    8  A    between atoms: C_12  and  C_13
REMARK    9  A    between atoms: C_13  and  C_15
REMARK   10  A    between atoms: C_23  and  C_25
REMARK   11  A    between atoms: C_31  and  C_32
REMARK   12  A    between atoms: C_32  and  C_33
REMARK                            x       y       z     vdW  Elec       q    Type
REMARK                         _______ _______ _______ _____ _____    ______ ____
ROOT
ATOM      1  C   UNL     1       4.482  -2.955   0.317  0.00  0.00    +0.156 C 
ENDROOT
BRANCH   1   2
ATOM      2  C   UNL     1       4.496  -4.400   0.744  0.00  0.00    +0.172 C 
ATOM      3  O   UNL     1       3.478  -5.060   0.688  0.00  0.00    -0.291 OA
BRANCH   2   4
ATOM      4  C   UNL     1       5.692  -4.988   1.209  0.00  0.00    +0.031 C 
ATOM      5  C   UNL     1       6.927  -4.379   1.339  0.00  0.00    +0.007 A 
ATOM      6  C   UNL     1       7.386  -3.067   1.075  0.00  0.00    +0.010 A 
ATOM      7  C   UNL     1       8.678  -2.739   1.300  0.00  0.00    +0.001 A 
ATOM      8  C   UNL     1       9.614  -3.660   1.797  0.00  0.00    +0.002 A 
ATOM      9  C   UNL     1       9.278  -4.937   2.082  0.00  0.00    +0.026 A 
ATOM     10  C   UNL     1       7.890  -5.377   1.865  0.00  0.00    +0.044 A 
ATOM     11  N   UNL     1       7.303  -6.525   2.051  0.00  0.00    -0.373 N 
ATOM     12  C   UNL     1       5.890  -6.413   1.675  0.00  0.00    +0.144 C 
ATOM     13  H   UNL     1       7.732  -7.327   2.388  0.00  0.00    +0.161 HD
BRANCH  12  14
ATOM     14  C   UNL     1       5.576  -7.373   0.556  0.00  0.00    -0.021 A 
ATOM     15  C   UNL     1       6.514  -7.616  -0.429  0.00  0.00    +0.006 A 
ATOM     16  C   UNL     1       6.227  -8.496  -1.456  0.00  0.00    +0.000 A 
ATOM     17  C   UNL     1       5.001  -9.134  -1.496  0.00  0.00    +0.000 A 
ATOM     18  C   UNL     1       4.063  -8.892  -0.509  0.00  0.00    +0.000 A 
ATOM     19  C   UNL     1       4.353  -8.015   0.519  0.00  0.00    +0.006 A 
ENDBRANCH  12  14
ENDBRANCH   2   4
ENDBRANCH   1   2
BRANCH   1  20
ATOM     20  S   UNL     1       2.812  -2.500  -0.225  0.00  0.00    -0.081 S 
BRANCH  20  25
ATOM     21  N   UNL     1       1.911  -0.037  -1.167  0.00  0.00    -0.289 N 
ATOM     22  C   UNL     1       2.456   1.307  -1.419  0.00  0.00    +0.177 C 
ATOM     23  N   UNL     1       3.875   1.190  -1.040  0.00  0.00    -0.246 N 
ATOM     24  N   UNL     1       4.058  -0.132  -0.617  0.00  0.00    -0.163 NA
ATOM     25  C   UNL     1       2.960  -0.806  -0.685  0.00  0.00    +0.175 C 
ATOM     26  H   UNL     1       4.547   1.889  -1.077  0.00  0.00    +0.170 HD
BRANCH  21  27
ATOM     27  C   UNL     1       0.529  -0.476  -1.378  0.00  0.00    +0.112 C 
BRANCH  27  29
ATOM     28  C   UNL     1       1.225  -2.109  -3.135  0.00  0.00    +0.009 C 
ATOM     29  C   UNL     1       0.344  -0.894  -2.838  0.00  0.00    +0.000 C 
ATOM     30  C   UNL     1      -1.123  -1.256  -3.082  0.00  0.00    +0.009 C 
ENDBRANCH  27  29
ENDBRANCH  21  27
BRANCH  22  31
ATOM     31  C   UNL     1       1.748   2.346  -0.547  0.00  0.00    +0.053 C 
BRANCH  31  32
ATOM     32  C   UNL     1       2.251   3.745  -0.910  0.00  0.00    +0.099 C 
BRANCH  32  33
ATOM     33  C   UNL     1       1.554   4.768  -0.051  0.00  0.00    +0.211 C 
ATOM     34  O   UNL     1       0.735   4.414   0.770  0.00  0.00    -0.276 OA
ATOM     35  N   UNL     1       1.840   6.077  -0.196  0.00  0.00    -0.329 N 
ATOM     36  H   UNL     1       2.495   6.361  -0.853  0.00  0.00    +0.145 HD
ATOM     37  H   UNL     1       1.391   6.736   0.357  0.00  0.00    +0.145 HD
ENDBRANCH  32  33
ENDBRANCH  31  32
ENDBRANCH  22  31
ENDBRANCH  20  25
ENDBRANCH   1  20
TORSDOF 10
