REMARK  Name = ZINC14881548
REMARK  8 active torsions:
REMARK  status: ('A' for Active; 'I' for Inactive)
REMARK    1  A    between atoms: C_1  and  O_2
REMARK    2  A    between atoms: O_2  and  C_3
REMARK    3  A    between atoms: C_5  and  C_12
REMARK    4  A    between atoms: C_12  and  N_66
REMARK    5  A    between atoms: N_15  and  C_18
REMARK    6  A    between atoms: N_26  and  C_29
REMARK    7  A    between atoms: C_29  and  C_30
REMARK    8  A    between atoms: C_30  and  C_31
REMARK                            x       y       z     vdW  Elec       q    Type
REMARK                         _______ _______ _______ _____ _____    ______ ____
ROOT
ATOM      1  C   UNL     1      -7.951   1.631  -4.096  0.00  0.00    +0.043 A 
ATOM      2  C   UNL     1      -8.084   3.006  -3.885  0.00  0.00    +0.024 A 
ATOM      3  C   UNL     1      -8.681   3.802  -4.838  0.00  0.00    +0.003 A 
ATOM      4  C   UNL     1      -9.158   3.252  -6.021  0.00  0.00    +0.014 A 
ATOM      5  C   UNL     1      -9.036   1.893  -6.249  0.00  0.00    +0.051 A 
ATOM      6  C   UNL     1      -8.421   1.070  -5.281  0.00  0.00    +0.070 A 
ATOM      7  C   UNL     1      -8.458  -0.296  -5.830  0.00  0.00    +0.256 C 
ATOM      8  O   UNL     1      -8.025  -1.291  -5.283  0.00  0.00    -0.269 OA
ATOM      9  N   UNL     1      -9.049  -0.259  -7.038  0.00  0.00    -0.234 N 
ATOM     10  C   UNL     1      -9.418   0.994  -7.358  0.00  0.00    +0.254 C 
ATOM     11  O   UNL     1      -9.972   1.330  -8.386  0.00  0.00    -0.270 OA
ENDROOT
BRANCH   1  14
ATOM     12  C   UNL     1      -6.563   0.638  -0.824  0.00  0.00    -0.059 C 
ATOM     13  C   UNL     1      -7.153   1.574  -1.881  0.00  0.00    +0.086 C 
ATOM     14  N   UNL     1      -7.350   0.832  -3.134  0.00  0.00    -0.333 N 
ATOM     15  C   UNL     1      -6.078   0.285  -3.624  0.00  0.00    +0.086 C 
ATOM     16  C   UNL     1      -5.487  -0.652  -2.568  0.00  0.00    -0.059 C 
ATOM     17  N   UNL     1      -5.273   0.112  -1.321  0.00  0.00    +0.384 N 
ATOM     18  H   UNL     1      -4.644   0.899  -1.515  0.00  0.00    -0.081 HD
BRANCH  17  19
ATOM     19  C   UNL     1      -4.654  -0.756  -0.296  0.00  0.00    -0.043 C 
BRANCH  19  22
ATOM     20  C   UNL     1      -2.612   1.455   1.989  0.00  0.00    +0.166 A 
ATOM     21  C   UNL     1      -2.993   0.676   0.906  0.00  0.00    +0.051 A 
ATOM     22  C   UNL     1      -4.245   0.093   0.879  0.00  0.00    -0.057 A 
ATOM     23  C   UNL     1      -5.127   0.291   1.926  0.00  0.00    +0.051 A 
ATOM     24  C   UNL     1      -4.756   1.073   3.010  0.00  0.00    +0.170 A 
ATOM     25  C   UNL     1      -3.494   1.657   3.042  0.00  0.00    +0.208 A 
ATOM     26  O   UNL     1      -3.373   2.370   4.202  0.00  0.00    -0.449 OA
ATOM     27  C   UNL     1      -4.717   2.549   4.685  0.00  0.00    +0.467 C 
ATOM     28  O   UNL     1      -5.427   1.417   4.148  0.00  0.00    -0.452 OA
BRANCH  20  30
ATOM     29  C   UNL     1      -0.522   1.775   0.899  0.00  0.00    +0.277 C 
ATOM     30  O   UNL     1      -1.377   2.025   2.016  0.00  0.00    -0.491 OA
ENDBRANCH  20  30
ENDBRANCH  19  22
ENDBRANCH  17  19
ENDBRANCH   1  14
BRANCH   9  31
ATOM     31  C   UNL     1      -9.261  -1.430  -7.893  0.00  0.00    +0.121 C 
BRANCH  31  32
ATOM     32  C   UNL     1      -8.051  -1.617  -8.810  0.00  0.00    +0.054 C 
BRANCH  32  33
ATOM     33  C   UNL     1      -8.269  -2.822  -9.690  0.00  0.00    -0.043 A 
ATOM     34  C   UNL     1      -8.887  -2.678 -10.918  0.00  0.00    +0.004 A 
ATOM     35  C   UNL     1      -9.088  -3.781 -11.725  0.00  0.00    +0.003 A 
ATOM     36  C   UNL     1      -8.671  -5.030 -11.306  0.00  0.00    +0.038 A 
ATOM     37  C   UNL     1      -8.052  -5.176 -10.076  0.00  0.00    +0.124 A 
ATOM     38  C   UNL     1      -7.846  -4.069  -9.270  0.00  0.00    +0.042 A 
ATOM     39  F   UNL     1      -7.644  -6.396  -9.665  0.00  0.00    -0.205 F 
ENDBRANCH  32  33
ENDBRANCH  31  32
ENDBRANCH   9  31
TORSDOF 7
