REMARK  Name = ZINC59720030
REMARK  8 active torsions:
REMARK  status: ('A' for Active; 'I' for Inactive)
REMARK    1  A    between atoms: C_1  and  C_2
REMARK    2  A    between atoms: C_2  and  C_4
REMARK    3  A    between atoms: N_6  and  C_32
REMARK    4  A    between atoms: C_7  and  C_12
REMARK    5  A    between atoms: N_10  and  C_11
REMARK    6  A    between atoms: C_21  and  O_22
REMARK    7  A    between atoms: O_22  and  C_23
REMARK    8  A    between atoms: C_23  and  C_24
REMARK                            x       y       z     vdW  Elec       q    Type
REMARK                         _______ _______ _______ _____ _____    ______ ____
ROOT
ATOM      1  C   UNL     1      -1.938  -2.749  -3.657  0.00  0.00    +0.040 A 
ATOM      2  C   UNL     1      -2.429  -3.911  -3.038  0.00  0.00    -0.008 A 
ATOM      3  C   UNL     1      -1.570  -4.792  -2.359  0.00  0.00    +0.009 A 
ATOM      4  C   UNL     1      -2.080  -5.909  -1.770  0.00  0.00    +0.001 A 
ATOM      5  C   UNL     1      -3.443  -6.193  -1.831  0.00  0.00    +0.001 A 
ATOM      6  C   UNL     1      -4.304  -5.362  -2.481  0.00  0.00    +0.008 A 
ATOM      7  C   UNL     1      -3.815  -4.200  -3.100  0.00  0.00    -0.017 A 
ATOM      8  C   UNL     1      -4.675  -3.319  -3.779  0.00  0.00    +0.012 A 
ATOM      9  C   UNL     1      -4.169  -2.202  -4.368  0.00  0.00    +0.046 A 
ATOM     10  C   UNL     1      -2.802  -1.912  -4.304  0.00  0.00    +0.128 A 
ENDROOT
BRANCH   1  14
ATOM     11  C   UNL     1       0.341  -4.497  -5.241  0.00  0.00    +0.195 C 
ATOM     12  N   UNL     1       0.513  -4.663  -3.953  0.00  0.00    -0.158 NA
ATOM     13  N   UNL     1       0.280  -3.582  -3.084  0.00  0.00    -0.199 N 
ATOM     14  C   UNL     1      -0.467  -2.425  -3.602  0.00  0.00    +0.216 C 
ATOM     15  N   UNL     1       0.033  -2.137  -4.960  0.00  0.00    -0.213 NA
ATOM     16  N   UNL     1      -0.075  -3.255  -5.742  0.00  0.00    -0.248 N 
ATOM     17  C   UNL     1      -0.627  -3.153  -7.095  0.00  0.00    +0.151 C 
ATOM     18  H   UNL     1      -0.460  -1.358  -5.370  0.00  0.00    +0.147 HD
BRANCH  13  19
ATOM     19  C   UNL     1       0.742  -3.606  -1.768  0.00  0.00    +0.054 A 
ATOM     20  C   UNL     1       0.374  -2.601  -0.881  0.00  0.00    +0.025 A 
ATOM     21  C   UNL     1       0.834  -2.629   0.420  0.00  0.00    +0.002 A 
ATOM     22  C   UNL     1       1.659  -3.655   0.842  0.00  0.00    +0.000 A 
ATOM     23  C   UNL     1       2.028  -4.657  -0.037  0.00  0.00    +0.002 A 
ATOM     24  C   UNL     1       1.568  -4.639  -1.339  0.00  0.00    +0.025 A 
ENDBRANCH  13  19
BRANCH  11  26
ATOM     25  C   UNL     1       0.879  -6.946  -5.588  0.00  0.00    +0.095 C 
ATOM     26  C   UNL     1       0.579  -5.572  -6.130  0.00  0.00    +0.195 C 
ATOM     27  O   UNL     1       0.542  -5.388  -7.330  0.00  0.00    -0.289 OA
ENDBRANCH  11  26
ENDBRANCH   1  14
BRANCH  10  28
ATOM     28  O   UNL     1      -2.327  -0.786  -4.897  0.00  0.00    -0.487 OA
BRANCH  28  29
ATOM     29  C   UNL     1      -3.290   0.103  -5.467  0.00  0.00    +0.266 C 
BRANCH  29  30
ATOM     30  C   UNL     1      -2.580   1.237  -6.159  0.00  0.00    +0.008 A 
ATOM     31  C   UNL     1      -1.200   1.236  -6.250  0.00  0.00    +0.010 A 
ATOM     32  C   UNL     1      -0.548   2.276  -6.884  0.00  0.00    +0.020 A 
ATOM     33  C   UNL     1      -1.275   3.320  -7.428  0.00  0.00    +0.042 A 
ATOM     34  C   UNL     1      -2.655   3.322  -7.338  0.00  0.00    +0.040 A 
ATOM     35  C   UNL     1      -3.308   2.278  -6.707  0.00  0.00    +0.049 A 
ATOM     36 CL   UNL     1      -5.040   2.277  -6.598  0.00  0.00    -0.083 Cl
ATOM     37 CL   UNL     1      -0.455   4.627  -8.224  0.00  0.00    -0.083 Cl
ENDBRANCH  29  30
ENDBRANCH  28  29
ENDBRANCH  10  28
TORSDOF 6
