REMARK  Name = ZINC33660971
REMARK  12 active torsions:
REMARK  status: ('A' for Active; 'I' for Inactive)
REMARK    1  A    between atoms: C_1  and  C_2
REMARK    2  A    between atoms: C_5  and  N_8
REMARK    3  A    between atoms: C_9  and  C_22
REMARK    4  A    between atoms: C_12  and  S_13
REMARK    5  A    between atoms: S_13  and  C_14
REMARK    6  A    between atoms: C_14  and  C_15
REMARK    7  A    between atoms: C_20  and  C_21
REMARK    8  A    between atoms: C_22  and  C_24
REMARK    9  A    between atoms: C_22  and  N_25
REMARK   10  A    between atoms: N_28  and  C_29
REMARK   11  A    between atoms: C_33  and  C_36
REMARK   12  A    between atoms: C_34  and  C_35
REMARK                            x       y       z     vdW  Elec       q    Type
REMARK                         _______ _______ _______ _____ _____    ______ ____
ROOT
ATOM      1  N   UNL     1      -2.358   1.682   5.389  0.00  0.00    -0.273 N 
ATOM      2  C   UNL     1      -1.658   2.270   6.409  0.00  0.00    +0.159 A 
ATOM      3  N   UNL     1      -0.391   2.144   6.132  0.00  0.00    -0.131 NA
ATOM      4  N   UNL     1      -0.241   1.517   5.020  0.00  0.00    -0.122 NA
ATOM      5  C   UNL     1      -1.415   1.214   4.516  0.00  0.00    +0.196 A 
ENDROOT
BRANCH   1  10
ATOM      6  C   UNL     1      -7.998   1.268   4.894  0.00  0.00    +0.044 C 
ATOM      7  C   UNL     1      -6.501   1.378   5.025  0.00  0.00    -0.050 A 
ATOM      8  C   UNL     1      -5.736   0.236   5.177  0.00  0.00    +0.005 A 
ATOM      9  C   UNL     1      -4.363   0.334   5.298  0.00  0.00    +0.026 A 
ATOM     10  C   UNL     1      -3.752   1.579   5.266  0.00  0.00    +0.050 A 
ATOM     11  C   UNL     1      -4.523   2.724   5.119  0.00  0.00    +0.026 A 
ATOM     12  C   UNL     1      -5.894   2.620   4.994  0.00  0.00    +0.005 A 
ENDBRANCH   1  10
BRANCH   2  13
ATOM     13  C   UNL     1      -2.244   2.938   7.626  0.00  0.00    +0.140 C 
ATOM     14  C   UNL     1      -2.070   2.027   8.842  0.00  0.00    +0.036 C 
BRANCH  13  15
ATOM     15  N   UNL     1      -1.555   4.209   7.865  0.00  0.00    -0.290 N 
ATOM     16  C   UNL     1      -2.179   5.198   8.534  0.00  0.00    +0.304 C 
ATOM     17  O   UNL     1      -3.314   5.037   8.939  0.00  0.00    -0.252 OA
ATOM     18  N   UNL     1      -1.545   6.367   8.754  0.00  0.00    -0.269 N 
ATOM     19  H   UNL     1      -0.529   4.355   7.498  0.00  0.00    +0.151 HD
ATOM     20  H   UNL     1      -0.489   6.482   8.470  0.00  0.00    +0.156 HD
BRANCH  18  21
ATOM     21  C   UNL     1      -2.231   7.435   9.344  0.00  0.00    +0.038 A 
ATOM     22  C   UNL     1      -3.614   7.516   9.240  0.00  0.00    +0.023 A 
ATOM     23  C   UNL     1      -4.287   8.571   9.823  0.00  0.00    +0.002 A 
ATOM     24  C   UNL     1      -3.587   9.547  10.509  0.00  0.00    +0.004 A 
ATOM     25  C   UNL     1      -2.210   9.469  10.614  0.00  0.00    -0.046 A 
ATOM     26  C   UNL     1      -1.531   8.413  10.038  0.00  0.00    -0.026 A 
ATOM     27  C   UNL     1      -0.031   8.325  10.158  0.00  0.00    +0.046 C 
ATOM     28  C   UNL     1      -1.451  10.534  11.363  0.00  0.00    +0.044 C 
ENDBRANCH  18  21
ENDBRANCH  13  15
ENDBRANCH   2  13
BRANCH   5  29
ATOM     29  S   UNL     1      -1.718   0.359   3.005  0.00  0.00    -0.081 S 
BRANCH  29  30
ATOM     30  C   UNL     1      -0.016   0.088   2.451  0.00  0.00    +0.112 C 
BRANCH  30  31
ATOM     31  C   UNL     1      -0.027  -0.650   1.137  0.00  0.00    -0.034 A 
ATOM     32  C   UNL     1      -0.008  -2.032   1.120  0.00  0.00    +0.005 A 
ATOM     33  C   UNL     1      -0.019  -2.709  -0.085  0.00  0.00    +0.000 A 
ATOM     34  C   UNL     1      -0.048  -2.003  -1.274  0.00  0.00    +0.000 A 
ATOM     35  C   UNL     1      -0.072  -0.622  -1.256  0.00  0.00    +0.003 A 
ATOM     36  C   UNL     1      -0.056   0.055  -0.051  0.00  0.00    -0.046 A 
ATOM     37  C   UNL     1      -0.077   1.562  -0.033  0.00  0.00    +0.044 C 
ENDBRANCH  30  31
ENDBRANCH  29  30
ENDBRANCH   5  29
TORSDOF 7
