REMARK  Name = ZINC43666562
REMARK  6 active torsions:
REMARK  status: ('A' for Active; 'I' for Inactive)
REMARK    1  A    between atoms: C_1  and  C_2
REMARK    2  A    between atoms: C_4  and  C_17
REMARK    3  A    between atoms: C_5  and  C_9
REMARK    4  A    between atoms: C_6  and  C_8
REMARK    5  A    between atoms: C_9  and  N_10
REMARK    6  A    between atoms: C_11  and  N_16
REMARK                            x       y       z     vdW  Elec       q    Type
REMARK                         _______ _______ _______ _____ _____    ______ ____
ROOT
ATOM      1  C   UNL     1       0.527  -3.786   0.104  0.00  0.00    +0.181 C 
ENDROOT
BRANCH   1   6
ATOM      2  C   UNL     1       1.018   0.813   3.568  0.00  0.00    +0.044 C 
ATOM      3  C   UNL     1       0.890  -0.386   2.665  0.00  0.00    -0.050 A 
ATOM      4  C   UNL     1       0.977  -0.231   1.294  0.00  0.00    +0.007 A 
ATOM      5  C   UNL     1       0.860  -1.332   0.466  0.00  0.00    -0.045 A 
ATOM      6  C   UNL     1       0.656  -2.587   1.008  0.00  0.00    -0.020 A 
ATOM      7  C   UNL     1       0.570  -2.742   2.379  0.00  0.00    -0.045 A 
ATOM      8  C   UNL     1       0.692  -1.642   3.208  0.00  0.00    +0.007 A 
ATOM      9  C   UNL     1       0.348  -4.110   2.970  0.00  0.00    +0.044 C 
ATOM     10  C   UNL     1       0.954  -1.163  -1.029  0.00  0.00    +0.044 C 
ENDBRANCH   1   6
BRANCH   1  11
ATOM     11  N   UNL     1       1.861  -4.293  -0.228  0.00  0.00    -0.246 N 
ATOM     12  C   UNL     1       2.508  -5.311   0.396  0.00  0.00    +0.128 A 
ATOM     13  C   UNL     1       3.716  -5.464  -0.216  0.00  0.00    +0.072 A 
ATOM     14  C   UNL     1       3.802  -4.513  -1.237  0.00  0.00    +0.150 A 
ATOM     15  N   UNL     1       2.694  -3.817  -1.249  0.00  0.00    -0.177 NA
ATOM     16  I   UNL     1       5.183  -6.873   0.284  0.00  0.00    -0.039 I 
BRANCH  12  17
ATOM     17  N   UNL     1       2.026  -6.061   1.465  0.00  0.00    -0.343 N 
ATOM     18  H   UNL     1       1.110  -5.949   1.762  0.00  0.00    +0.144 HD
ATOM     19  H   UNL     1       2.607  -6.697   1.913  0.00  0.00    +0.144 HD
ENDBRANCH  12  17
ENDBRANCH   1  11
TORSDOF 3
