REMARK  Name = ZINC14117965
REMARK  9 active torsions:
REMARK  status: ('A' for Active; 'I' for Inactive)
REMARK    1  A    between atoms: C_1  and  C_2
REMARK    2  A    between atoms: C_2  and  C_3
REMARK    3  A    between atoms: C_3  and  C_4
REMARK    4  A    between atoms: C_7  and  C_10
REMARK    5  A    between atoms: C_11  and  C_34
REMARK    6  A    between atoms: C_16  and  C_18
REMARK    7  A    between atoms: C_18  and  N_19
REMARK    8  A    between atoms: C_22  and  C_26
REMARK    9  A    between atoms: C_22  and  C_27
REMARK                            x       y       z     vdW  Elec       q    Type
REMARK                         _______ _______ _______ _____ _____    ______ ____
ROOT
ATOM      1  C   UNL     1      -4.658   0.777   0.028  0.00  0.00    +0.083 A 
ATOM      2  C   UNL     1      -4.435  -0.572   0.018  0.00  0.00    +0.016 A 
ATOM      3  S   UNL     1      -2.648  -0.612   0.003  0.00  0.00    -0.057 S 
ATOM      4  C   UNL     1      -2.384   1.155   0.020  0.00  0.00    +0.165 A 
ATOM      5  N   UNL     1      -3.625   1.606   0.028  0.00  0.00    -0.224 NA
ATOM      6  N   UNL     1      -1.191   1.867   0.018  0.00  0.00    -0.263 N 
ATOM      7  C   UNL     1      -0.014   1.209   0.009  0.00  0.00    +0.237 C 
ATOM      8  O   UNL     1       0.002  -0.004   0.002  0.00  0.00    -0.274 OA
ATOM      9  C   UNL     1      -5.423  -1.710   0.016  0.00  0.00    +0.054 C 
ATOM     10  H   UNL     1      -1.204   2.837   0.023  0.00  0.00    +0.157 HD
ENDROOT
BRANCH   1  14
ATOM     11  C   UNL     1      -8.629   2.297   0.053  0.00  0.00    -0.047 A 
ATOM     12  C   UNL     1      -7.631   2.964   0.741  0.00  0.00    +0.004 A 
ATOM     13  C   UNL     1      -6.341   2.475   0.737  0.00  0.00    +0.010 A 
ATOM     14  C   UNL     1      -6.043   1.307   0.037  0.00  0.00    +0.001 A 
ATOM     15  C   UNL     1      -7.051   0.642  -0.659  0.00  0.00    +0.010 A 
ATOM     16  C   UNL     1      -8.339   1.137  -0.643  0.00  0.00    +0.004 A 
BRANCH  11  17
ATOM     17  C   UNL     1     -10.036   2.836   0.061  0.00  0.00    +0.035 C 
BRANCH  17  19
ATOM     18  C   UNL     1     -11.649   4.346  -1.105  0.00  0.00    +0.004 C 
ATOM     19  C   UNL     1     -10.221   3.798  -1.114  0.00  0.00    +0.001 C 
ENDBRANCH  17  19
ENDBRANCH  11  17
ENDBRANCH   1  14
BRANCH   7  20
ATOM     20  C   UNL     1       1.280   1.980   0.001  0.00  0.00    +0.214 C 
BRANCH  20  21
ATOM     21  N   UNL     1       2.407   1.043  -0.015  0.00  0.00    -0.215 N 
ATOM     22  C   UNL     1       2.978   0.565  -1.138  0.00  0.00    +0.251 C 
ATOM     23  O   UNL     1       2.668   0.818  -2.283  0.00  0.00    -0.272 OA
ATOM     24  C   UNL     1       4.088  -0.356  -0.673  0.00  0.00    +0.135 C 
ATOM     25  N   UNL     1       4.006  -0.283   0.796  0.00  0.00    -0.281 N 
ATOM     26  C   UNL     1       2.999   0.561   1.083  0.00  0.00    +0.310 C 
ATOM     27  O   UNL     1       2.662   0.851   2.215  0.00  0.00    -0.252 OA
ATOM     28  C   UNL     1       3.839  -1.786  -1.156  0.00  0.00    +0.047 C 
ATOM     29  H   UNL     1       4.571  -0.750   1.432  0.00  0.00    +0.152 HD
BRANCH  24  30
ATOM     30  C   UNL     1       5.427   0.142  -1.154  0.00  0.00    -0.015 A 
ATOM     31  C   UNL     1       5.516   0.843  -2.342  0.00  0.00    +0.009 A 
ATOM     32  C   UNL     1       6.742   1.305  -2.782  0.00  0.00    +0.039 A 
ATOM     33  C   UNL     1       7.883   1.055  -2.038  0.00  0.00    +0.123 A 
ATOM     34  C   UNL     1       7.793   0.348  -0.851  0.00  0.00    +0.039 A 
ATOM     35  C   UNL     1       6.565  -0.108  -0.410  0.00  0.00    +0.009 A 
ATOM     36  F   UNL     1       9.083   1.501  -2.470  0.00  0.00    -0.205 F 
ENDBRANCH  24  30
ENDBRANCH  20  21
ENDBRANCH   7  20
TORSDOF 6
