REMARK  Name = ZINC64242876
REMARK  6 active torsions:
REMARK  status: ('A' for Active; 'I' for Inactive)
REMARK    1  A    between atoms: C_5  and  C_7
REMARK    2  A    between atoms: C_7  and  C_8
REMARK    3  A    between atoms: C_8  and  N_9
REMARK    4  A    between atoms: N_12  and  N_13
REMARK    5  A    between atoms: C_14  and  C_16
REMARK    6  A    between atoms: C_21  and  O_22
REMARK                            x       y       z     vdW  Elec       q    Type
REMARK                         _______ _______ _______ _____ _____    ______ ____
ROOT
ATOM      1  N   UNL     1       1.395  -4.167   1.402  0.00  0.00    -0.298 N 
ATOM      2  C   UNL     1       1.517  -4.846   2.560  0.00  0.00    +0.316 C 
ATOM      3  O   UNL     1       1.611  -4.243   3.611  0.00  0.00    -0.251 OA
ATOM      4  N   UNL     1       1.535  -6.194   2.552  0.00  0.00    -0.218 N 
ATOM      5  H   UNL     1       1.320  -4.648   0.563  0.00  0.00    +0.150 HD
ATOM      6  H   UNL     1       1.623  -6.683   3.385  0.00  0.00    +0.174 HD
ENDROOT
BRANCH   4   7
ATOM      7  N   UNL     1       1.427  -6.889   1.340  0.00  0.00    -0.229 N 
ATOM      8  C   UNL     1       1.445  -8.236   1.333  0.00  0.00    +0.264 C 
ATOM      9  O   UNL     1       1.556  -8.849   2.377  0.00  0.00    -0.269 OA
ATOM     10  H   UNL     1       1.339  -6.400   0.507  0.00  0.00    +0.173 HD
BRANCH   8  11
ATOM     11  C   UNL     1       1.331  -8.968   0.057  0.00  0.00    +0.079 A 
ATOM     12  C   UNL     1       1.211  -8.268  -1.147  0.00  0.00    +0.017 A 
ATOM     13  C   UNL     1       1.105  -8.958  -2.335  0.00  0.00    +0.001 A 
ATOM     14  C   UNL     1       1.118 -10.343  -2.343  0.00  0.00    +0.004 A 
ATOM     15  C   UNL     1       1.237 -11.047  -1.161  0.00  0.00    +0.046 A 
ATOM     16  C   UNL     1       1.350 -10.370   0.044  0.00  0.00    +0.129 A 
BRANCH  16  17
ATOM     17  O   UNL     1       1.473 -11.060   1.205  0.00  0.00    -0.506 OA
ATOM     18  H   UNL     1       0.629 -11.273   1.627  0.00  0.00    +0.292 HD
ENDBRANCH  16  17
ENDBRANCH   8  11
ENDBRANCH   4   7
BRANCH   1  19
ATOM     19  C   UNL     1       1.375  -2.702   1.411  0.00  0.00    +0.110 C 
BRANCH  19  20
ATOM     20  C   UNL     1       1.229  -2.186  -0.022  0.00  0.00    +0.055 C 
BRANCH  20  25
ATOM     21  C   UNL     1      -0.017   1.378   0.010  0.00  0.00    +0.000 A 
ATOM     22  C   UNL     1       1.171   2.086   0.002  0.00  0.00    +0.001 A 
ATOM     23  C   UNL     1       2.377   1.412  -0.013  0.00  0.00    +0.015 A 
ATOM     24  C   UNL     1       2.397   0.029  -0.021  0.00  0.00    +0.021 A 
ATOM     25  C   UNL     1       1.208  -0.679  -0.013  0.00  0.00    -0.032 A 
ATOM     26  C   UNL     1       0.002  -0.004   0.002  0.00  0.00    +0.005 A 
ATOM     27 BR   UNL     1       4.047  -0.894  -0.042  0.00  0.00    -0.050 Br
ENDBRANCH  20  25
ENDBRANCH  19  20
ENDBRANCH   1  19
TORSDOF 6
