REMARK  Name = ZINC48787691
REMARK  8 active torsions:
REMARK  status: ('A' for Active; 'I' for Inactive)
REMARK    1  A    between atoms: C_1  and  C_2
REMARK    2  A    between atoms: C_2  and  N_3
REMARK    3  A    between atoms: C_7  and  C_9
REMARK    4  A    between atoms: C_9  and  C_11
REMARK    5  A    between atoms: C_9  and  O_12
REMARK    6  A    between atoms: O_12  and  C_13
REMARK    7  A    between atoms: C_14  and  C_20
REMARK    8  A    between atoms: C_20  and  N_21
REMARK                            x       y       z     vdW  Elec       q    Type
REMARK                         _______ _______ _______ _____ _____    ______ ____
ROOT
ATOM      1  O   UNL     1       2.374  -5.304  -3.991  0.00  0.00    -0.479 OA
ENDROOT
BRANCH   1   2
ATOM      2  C   UNL     1       3.430  -5.920  -4.584  0.00  0.00    +0.137 A 
ATOM      3  C   UNL     1       4.503  -6.350  -3.818  0.00  0.00    -0.022 A 
ATOM      4  C   UNL     1       5.576  -6.976  -4.422  0.00  0.00    +0.005 A 
ATOM      5  C   UNL     1       5.581  -7.175  -5.791  0.00  0.00    +0.002 A 
ATOM      6  C   UNL     1       4.513  -6.748  -6.558  0.00  0.00    +0.019 A 
ATOM      7  C   UNL     1       3.434  -6.126  -5.957  0.00  0.00    +0.060 A 
ATOM      8 BR   UNL     1       1.970  -5.549  -7.005  0.00  0.00    -0.047 Br
BRANCH   3   9
ATOM      9  C   UNL     1       4.500  -6.134  -2.326  0.00  0.00    -0.047 C 
BRANCH   9  10
ATOM     10  N   UNL     1       3.633  -7.134  -1.688  0.00  0.00    +0.381 N 
ATOM     11  H   UNL     1       2.712  -7.091  -2.098  0.00  0.00    -0.090 HD
ATOM     12  H   UNL     1       4.021  -8.055  -1.830  0.00  0.00    -0.090 HD
ATOM     13  H   UNL     1       3.571  -6.944  -0.700  0.00  0.00    -0.090 HD
ENDBRANCH   9  10
ENDBRANCH   3   9
ENDBRANCH   1   2
BRANCH   1  14
ATOM     14  C   UNL     1       2.499  -3.903  -3.738  0.00  0.00    +0.256 C 
ATOM     15  C   UNL     1       1.892  -3.118  -4.902  0.00  0.00    +0.062 C 
BRANCH  14  20
ATOM     16  N   UNL     1       1.251  -0.742  -0.338  0.00  0.00    -0.299 N 
ATOM     17  C   UNL     1       1.185  -1.994  -0.832  0.00  0.00    +0.306 C 
ATOM     18  O   UNL     1       0.539  -2.843  -0.251  0.00  0.00    -0.252 OA
ATOM     19  N   UNL     1       1.837  -2.304  -1.970  0.00  0.00    -0.237 N 
ATOM     20  C   UNL     1       1.771  -3.556  -2.465  0.00  0.00    +0.261 C 
ATOM     21  O   UNL     1       1.126  -4.404  -1.885  0.00  0.00    -0.271 OA
ATOM     22  H   UNL     1       1.767  -0.064  -0.801  0.00  0.00    +0.150 HD
ATOM     23  H   UNL     1       2.353  -1.626  -2.434  0.00  0.00    +0.159 HD
BRANCH  16  25
ATOM     24  C   UNL     1       0.781   1.069   1.238  0.00  0.00    +0.024 C 
ATOM     25  C   UNL     1       0.544  -0.404   0.900  0.00  0.00    +0.102 C 
ENDBRANCH  16  25
ENDBRANCH  14  20
ENDBRANCH   1  14
TORSDOF 6
