REMARK  Name = ZINC03765654
REMARK  10 active torsions:
REMARK  status: ('A' for Active; 'I' for Inactive)
REMARK    1  A    between atoms: C_1  and  C_2
REMARK    2  A    between atoms: C_3  and  C_12
REMARK    3  A    between atoms: C_14  and  C_19
REMARK    4  A    between atoms: C_16  and  C_17
REMARK    5  A    between atoms: C_16  and  C_18
REMARK    6  A    between atoms: C_19  and  C_20
REMARK    7  A    between atoms: C_20  and  N_21
REMARK    8  A    between atoms: N_21  and  C_22
REMARK    9  A    between atoms: C_22  and  N_24
REMARK   10  A    between atoms: N_24  and  C_25
REMARK                            x       y       z     vdW  Elec       q    Type
REMARK                         _______ _______ _______ _____ _____    ______ ____
ROOT
ATOM      1  C   UNL     1      -3.793   4.892   0.890  0.00  0.00    +0.031 C 
ATOM      2  C   UNL     1      -5.140   4.753   0.177  0.00  0.00    +0.005 C 
ATOM      3  C   UNL     1      -5.095   5.057   1.677  0.00  0.00    -0.024 C 
ATOM      4  C   UNL     1      -5.487   3.933   2.638  0.00  0.00    +0.012 C 
ATOM      5  C   UNL     1      -5.476   6.470   2.122  0.00  0.00    +0.012 C 
ENDROOT
BRANCH   1   8
ATOM      6  C   UNL     1      -2.717   2.980  -1.306  0.00  0.00    +0.063 C 
ATOM      7  C   UNL     1      -2.521   2.805   0.178  0.00  0.00    +0.017 A 
ATOM      8  C   UNL     1      -2.995   3.635   1.121  0.00  0.00    -0.016 A 
ATOM      9  C   UNL     1      -2.575   3.095   2.416  0.00  0.00    +0.003 A 
ATOM     10  C   UNL     1      -2.744   3.506   3.740  0.00  0.00    +0.010 A 
ATOM     11  C   UNL     1      -2.214   2.761   4.755  0.00  0.00    +0.001 A 
ATOM     12  C   UNL     1      -1.508   1.597   4.481  0.00  0.00    +0.002 A 
ATOM     13  C   UNL     1      -1.329   1.173   3.182  0.00  0.00    +0.026 A 
ATOM     14  C   UNL     1      -1.855   1.920   2.133  0.00  0.00    +0.047 A 
ATOM     15  N   UNL     1      -1.843   1.771   0.764  0.00  0.00    -0.358 N 
ATOM     16  H   UNL     1      -1.419   1.041   0.287  0.00  0.00    +0.166 HD
ENDBRANCH   1   8
BRANCH   2  17
ATOM     17  C   UNL     1      -5.573   3.348  -0.247  0.00  0.00    +0.023 C 
BRANCH  17  18
ATOM     18  C   UNL     1      -6.169   3.401  -1.655  0.00  0.00    +0.103 C 
BRANCH  18  19
ATOM     19  N   UNL     1      -6.672   2.075  -2.023  0.00  0.00    -0.327 N 
ATOM     20  H   UNL     1      -6.593   1.337  -1.399  0.00  0.00    +0.148 HD
BRANCH  19  21
ATOM     21  C   UNL     1      -7.243   1.882  -3.228  0.00  0.00    +0.130 C 
ATOM     22  S   UNL     1      -7.382   3.186  -4.329  0.00  0.00    -0.019 S 
BRANCH  21  23
ATOM     23  N   UNL     1      -7.706   0.662  -3.567  0.00  0.00    -0.330 N 
ATOM     24  C   UNL     1      -8.327   0.452  -4.877  0.00  0.00    +0.127 C 
ATOM     25  H   UNL     1      -7.627  -0.077  -2.943  0.00  0.00    +0.147 HD
ENDBRANCH  21  23
ENDBRANCH  19  21
ENDBRANCH  18  19
ENDBRANCH  17  18
ENDBRANCH   2  17
TORSDOF 6
