REMARK  Name = ZINC36642482
REMARK  9 active torsions:
REMARK  status: ('A' for Active; 'I' for Inactive)
REMARK    1  A    between atoms: C_1  and  C_2
REMARK    2  A    between atoms: C_2  and  N_3
REMARK    3  A    between atoms: N_3  and  C_4
REMARK    4  A    between atoms: N_3  and  C_6
REMARK    5  A    between atoms: C_4  and  C_5
REMARK    6  A    between atoms: C_6  and  C_7
REMARK    7  A    between atoms: C_7  and  N_8
REMARK    8  A    between atoms: C_19  and  C_21
REMARK    9  A    between atoms: C_21  and  N_22
REMARK                            x       y       z     vdW  Elec       q    Type
REMARK                         _______ _______ _______ _____ _____    ______ ____
ROOT
ATOM      1  N   UNL     1       1.365  -4.014  -2.695  0.00  0.00    -0.251 N 
ATOM      2  C   UNL     1       0.362  -4.557  -3.482  0.00  0.00    +0.168 A 
ATOM      3  N   UNL     1      -0.549  -3.939  -4.198  0.00  0.00    -0.224 NA
ATOM      4  C   UNL     1      -1.474  -4.603  -4.925  0.00  0.00    +0.080 A 
ATOM      5  C   UNL     1      -2.502  -4.062  -5.732  0.00  0.00    +0.030 A 
ATOM      6  C   UNL     1      -3.364  -4.883  -6.410  0.00  0.00    +0.017 A 
ATOM      7  C   UNL     1      -3.263  -6.265  -6.332  0.00  0.00    +0.019 A 
ATOM      8  C   UNL     1      -2.269  -6.828  -5.551  0.00  0.00    +0.032 A 
ATOM      9  C   UNL     1      -1.400  -6.013  -4.869  0.00  0.00    +0.042 A 
ATOM     10  S   UNL     1      -0.014  -6.277  -3.789  0.00  0.00    -0.052 S 
ATOM     11 BR   UNL     1      -4.471  -7.367  -7.281  0.00  0.00    -0.050 Br
ATOM     12  C   UNL     1       2.216  -4.823  -2.035  0.00  0.00    +0.241 C 
ATOM     13  O   UNL     1       2.105  -6.027  -2.130  0.00  0.00    -0.273 OA
ENDROOT
BRANCH   1  14
ATOM     14  C   UNL     1       1.499  -2.559  -2.580  0.00  0.00    +0.097 C 
BRANCH  14  15
ATOM     15  C   UNL     1       0.657  -2.061  -1.404  0.00  0.00    -0.059 C 
BRANCH  15  16
ATOM     16  N   UNL     1       0.887  -0.623  -1.212  0.00  0.00    +0.380 N 
ATOM     17  H   UNL     1       1.876  -0.452  -1.102  0.00  0.00    -0.082 HD
BRANCH  16  19
ATOM     18  C   UNL     1       0.741   1.596  -2.238  0.00  0.00    -0.017 C 
ATOM     19  C   UNL     1       0.390   0.113  -2.382  0.00  0.00    -0.082 C 
ENDBRANCH  16  19
BRANCH  16  20
ATOM     20  C   UNL     1       0.175  -0.169  -0.009  0.00  0.00    -0.082 C 
ATOM     21  C   UNL     1       0.799  -0.819   1.228  0.00  0.00    -0.017 C 
ENDBRANCH  16  20
ENDBRANCH  15  16
ENDBRANCH  14  15
ENDBRANCH   1  14
BRANCH  12  22
ATOM     22  C   UNL     1       3.307  -4.232  -1.179  0.00  0.00    +0.224 C 
BRANCH  22  23
ATOM     23  N   UNL     1       4.091  -5.311  -0.573  0.00  0.00    -0.265 N 
ATOM     24  C   UNL     1       3.836  -5.929   0.651  0.00  0.00    +0.091 A 
ATOM     25  C   UNL     1       2.859  -5.756   1.619  0.00  0.00    +0.030 A 
ATOM     26  C   UNL     1       2.873  -6.541   2.756  0.00  0.00    +0.002 A 
ATOM     27  C   UNL     1       3.858  -7.497   2.930  0.00  0.00    +0.004 A 
ATOM     28  C   UNL     1       4.835  -7.674   1.970  0.00  0.00    +0.048 A 
ATOM     29  C   UNL     1       4.830  -6.892   0.826  0.00  0.00    +0.157 A 
ATOM     30  O   UNL     1       5.638  -6.839  -0.261  0.00  0.00    -0.407 OA
ATOM     31  C   UNL     1       5.186  -5.893  -1.100  0.00  0.00    +0.422 A 
ATOM     32  O   UNL     1       5.690  -5.603  -2.168  0.00  0.00    -0.223 OA
ENDBRANCH  22  23
ENDBRANCH  12  22
TORSDOF 7
