REMARK  Name = ZINC34747460
REMARK  8 active torsions:
REMARK  status: ('A' for Active; 'I' for Inactive)
REMARK    1  A    between atoms: C_1  and  C_2
REMARK    2  A    between atoms: C_2  and  N_3
REMARK    3  A    between atoms: N_3  and  C_4
REMARK    4  A    between atoms: C_4  and  C_5
REMARK    5  A    between atoms: C_6  and  C_8
REMARK    6  A    between atoms: C_8  and  N_9
REMARK    7  A    between atoms: N_28  and  C_29
REMARK    8  A    between atoms: C_29  and  C_30
REMARK                            x       y       z     vdW  Elec       q    Type
REMARK                         _______ _______ _______ _____ _____    ______ ____
ROOT
ATOM      1  N   UNL     1      -3.162  -0.746   4.091  0.00  0.00    +0.387 N 
ATOM      2  C   UNL     1      -3.329  -0.307   5.483  0.00  0.00    -0.059 C 
ATOM      3  C   UNL     1      -4.447  -1.120   6.144  0.00  0.00    +0.089 C 
ATOM      4  N   UNL     1      -5.660  -1.000   5.320  0.00  0.00    -0.304 N 
ATOM      5  C   UNL     1      -5.547  -1.265   3.877  0.00  0.00    +0.089 C 
ATOM      6  C   UNL     1      -4.377  -0.445   3.323  0.00  0.00    -0.059 C 
ATOM      7  C   UNL     1      -6.863  -0.652   5.882  0.00  0.00    +0.202 A 
ATOM      8  N   UNL     1      -6.929   0.394   6.678  0.00  0.00    -0.208 NA
ATOM      9  C   UNL     1      -8.080   0.753   7.235  0.00  0.00    +0.117 A 
ATOM     10  C   UNL     1      -9.272   0.046   7.008  0.00  0.00    +0.076 A 
ATOM     11  C   UNL     1     -10.461   0.561   7.692  0.00  0.00    -0.023 A 
ATOM     12  C   UNL     1     -10.297   1.653   8.465  0.00  0.00    -0.004 A 
ATOM     13  S   UNL     1      -8.576   2.058   8.332  0.00  0.00    -0.073 S 
ATOM     14  C   UNL     1     -11.347   2.367   9.261  0.00  0.00    +0.043 C 
ATOM     15  C   UNL     1     -12.726   1.893   8.781  0.00  0.00    +0.005 C 
ATOM     16  C   UNL     1     -12.721   0.364   8.705  0.00  0.00    +0.005 C 
ATOM     17  C   UNL     1     -11.831  -0.096   7.549  0.00  0.00    +0.037 C 
ATOM     18  C   UNL     1      -9.170  -1.086   6.139  0.00  0.00    +0.264 A 
ATOM     19  O   UNL     1     -10.153  -1.760   5.883  0.00  0.00    -0.267 OA
ATOM     20  N   UNL     1      -7.974  -1.392   5.603  0.00  0.00    -0.276 N 
ATOM     21  H   UNL     1      -2.992  -1.741   4.073  0.00  0.00    -0.081 HD
ENDROOT
BRANCH   1  22
ATOM     22  C   UNL     1      -2.019  -0.045   3.492  0.00  0.00    +0.019 C 
BRANCH  22  24
ATOM     23  N   UNL     1       0.430   0.072   3.820  0.00  0.00    -0.304 N 
ATOM     24  C   UNL     1      -0.753  -0.449   4.202  0.00  0.00    +0.199 C 
ATOM     25  O   UNL     1      -0.798  -1.242   5.118  0.00  0.00    -0.278 OA
BRANCH  23  27
ATOM     26  C   UNL     1       1.912   0.629   5.684  0.00  0.00    +0.024 C 
ATOM     27  C   UNL     1       1.661  -0.320   4.511  0.00  0.00    +0.104 C 
ENDBRANCH  23  27
BRANCH  23  28
ATOM     28  C   UNL     1       0.484   1.032   2.714  0.00  0.00    +0.104 C 
ATOM     29  C   UNL     1       0.680   0.279   1.396  0.00  0.00    +0.024 C 
ENDBRANCH  23  28
ENDBRANCH  22  24
ENDBRANCH   1  22
BRANCH  20  30
ATOM     30  C   UNL     1      -7.862  -2.547   4.708  0.00  0.00    +0.163 C 
BRANCH  30  31
ATOM     31  C   UNL     1      -7.571  -3.784   5.518  0.00  0.00    -0.027 A 
ATOM     32  C   UNL     1      -6.266  -4.205   5.690  0.00  0.00    +0.007 A 
ATOM     33  C   UNL     1      -5.998  -5.340   6.433  0.00  0.00    +0.020 A 
ATOM     34  C   UNL     1      -7.036  -6.054   7.003  0.00  0.00    +0.041 A 
ATOM     35  C   UNL     1      -8.342  -5.632   6.831  0.00  0.00    +0.020 A 
ATOM     36  C   UNL     1      -8.609  -4.494   6.093  0.00  0.00    +0.007 A 
ATOM     37 CL   UNL     1      -6.700  -7.479   7.936  0.00  0.00    -0.084 Cl
ENDBRANCH  30  31
ENDBRANCH  20  30
TORSDOF 6
