REMARK  Name = ZINC39640935
REMARK  14 active torsions:
REMARK  status: ('A' for Active; 'I' for Inactive)
REMARK    1  A    between atoms: C_1  and  C_2
REMARK    2  A    between atoms: C_2  and  C_3
REMARK    3  A    between atoms: C_6  and  N_9
REMARK    4  A    between atoms: C_12  and  C_15
REMARK    5  A    between atoms: C_15  and  O_16
REMARK    6  A    between atoms: O_16  and  C_17
REMARK    7  A    between atoms: C_17  and  C_19
REMARK    8  A    between atoms: C_19  and  C_21
REMARK    9  A    between atoms: C_19  and  N_24
REMARK   10  A    between atoms: C_21  and  C_22
REMARK   11  A    between atoms: C_21  and  C_23
REMARK   12  A    between atoms: C_25  and  C_27
REMARK   13  A    between atoms: C_30  and  C_33
REMARK   14  A    between atoms: C_34  and  C_36
REMARK                            x       y       z     vdW  Elec       q    Type
REMARK                         _______ _______ _______ _____ _____    ______ ____
ROOT
ATOM      1  C   UNL     1      -9.258  -2.977  -2.716  0.00  0.00    +0.288 C 
ENDROOT
BRANCH   1   5
ATOM      2  N   UNL     1      -5.322  -2.034   0.056  0.00  0.00    -0.219 N 
ATOM      3  C   UNL     1      -6.022  -2.193  -1.136  0.00  0.00    +0.172 A 
ATOM      4  N   UNL     1      -7.289  -2.505  -1.305  0.00  0.00    -0.226 NA
ATOM      5  C   UNL     1      -7.808  -2.620  -2.513  0.00  0.00    +0.088 A 
ATOM      6  C   UNL     1      -6.979  -2.402  -3.564  0.00  0.00    +0.075 A 
ATOM      7  S   UNL     1      -5.455  -2.026  -2.712  0.00  0.00    -0.060 S 
ATOM      8  C   UNL     1      -5.923  -2.308   1.231  0.00  0.00    +0.223 C 
ATOM      9  O   UNL     1      -7.044  -2.769   1.246  0.00  0.00    -0.275 OA
ATOM     10  C   UNL     1      -5.199  -2.043   2.526  0.00  0.00    +0.110 C 
BRANCH   2  14
ATOM     11  C   UNL     1      -1.372  -0.708  -0.006  0.00  0.00    -0.048 A 
ATOM     12  C   UNL     1      -2.394   0.151  -0.365  0.00  0.00    +0.005 A 
ATOM     13  C   UNL     1      -3.704  -0.285  -0.345  0.00  0.00    +0.024 A 
ATOM     14  C   UNL     1      -3.995  -1.589   0.035  0.00  0.00    +0.043 A 
ATOM     15  C   UNL     1      -2.966  -2.450   0.394  0.00  0.00    +0.024 A 
ATOM     16  C   UNL     1      -1.658  -2.009   0.368  0.00  0.00    +0.005 A 
BRANCH  11  18
ATOM     17  C   UNL     1       0.660  -0.488  -1.411  0.00  0.00    +0.009 C 
ATOM     18  C   UNL     1       0.057  -0.229  -0.029  0.00  0.00    +0.032 C 
ENDBRANCH  11  18
ENDBRANCH   2  14
ENDBRANCH   1   5
BRANCH   1  19
ATOM     19  O   UNL     1      -9.544  -3.032  -4.115  0.00  0.00    -0.457 OA
BRANCH  19  20
ATOM     20  C   UNL     1     -10.802  -3.340  -4.469  0.00  0.00    +0.328 C 
ATOM     21  O   UNL     1     -11.632  -3.556  -3.618  0.00  0.00    -0.249 OA
BRANCH  20  22
ATOM     22  C   UNL     1     -11.177  -3.416  -5.926  0.00  0.00    +0.185 C 
BRANCH  22  23
ATOM     23  N   UNL     1     -12.595  -3.766  -6.047  0.00  0.00    -0.298 N 
ATOM     24  C   UNL     1     -13.284  -3.416  -7.151  0.00  0.00    +0.245 C 
ATOM     25  O   UNL     1     -12.729  -2.810  -8.047  0.00  0.00    -0.270 OA
ATOM     26  H   UNL     1     -13.037  -4.250  -5.332  0.00  0.00    +0.150 HD
BRANCH  24  27
ATOM     27  C   UNL     1     -14.714  -3.770  -7.274  0.00  0.00    +0.037 A 
ATOM     28  C   UNL     1     -15.355  -4.461  -6.245  0.00  0.00    +0.013 A 
ATOM     29  C   UNL     1     -16.690  -4.787  -6.365  0.00  0.00    +0.004 A 
ATOM     30  C   UNL     1     -17.393  -4.431  -7.502  0.00  0.00    -0.050 A 
ATOM     31  C   UNL     1     -16.763  -3.747  -8.526  0.00  0.00    +0.004 A 
ATOM     32  C   UNL     1     -15.430  -3.409  -8.416  0.00  0.00    +0.013 A 
ATOM     33  C   UNL     1     -18.851  -4.792  -7.627  0.00  0.00    +0.044 C 
ENDBRANCH  24  27
ENDBRANCH  22  23
BRANCH  22  34
ATOM     34  C   UNL     1     -10.327  -4.484  -6.617  0.00  0.00    +0.014 C 
ATOM     35  C   UNL     1     -10.667  -5.859  -6.038  0.00  0.00    +0.009 C 
ATOM     36  C   UNL     1     -10.619  -4.476  -8.119  0.00  0.00    +0.009 C 
ENDBRANCH  22  34
ENDBRANCH  20  22
ENDBRANCH  19  20
ENDBRANCH   1  19
TORSDOF 9
