REMARK  Name = ZINC14134113
REMARK  10 active torsions:
REMARK  status: ('A' for Active; 'I' for Inactive)
REMARK    1  A    between atoms: C_1  and  C_2
REMARK    2  A    between atoms: C_2  and  C_4
REMARK    3  A    between atoms: C_2  and  N_23
REMARK    4  A    between atoms: C_7  and  S_12
REMARK    5  A    between atoms: N_8  and  C_9
REMARK    6  A    between atoms: C_9  and  C_10
REMARK    7  A    between atoms: S_12  and  C_13
REMARK    8  A    between atoms: C_13  and  C_14
REMARK    9  A    between atoms: C_14  and  C_16
REMARK   10  A    between atoms: C_24  and  C_26
REMARK                            x       y       z     vdW  Elec       q    Type
REMARK                         _______ _______ _______ _____ _____    ______ ____
ROOT
ATOM      1  C   UNL     1      -1.024  -2.120   0.601  0.00  0.00    +0.155 A 
ATOM      2  N   UNL     1      -0.036  -2.924   0.323  0.00  0.00    -0.132 NA
ATOM      3  N   UNL     1      -0.141  -4.006   1.008  0.00  0.00    -0.122 NA
ATOM      4  C   UNL     1      -1.216  -3.954   1.761  0.00  0.00    +0.192 A 
ATOM      5  N   UNL     1      -1.812  -2.749   1.524  0.00  0.00    -0.301 N 
ENDROOT
BRANCH   1   7
ATOM      6  C   UNL     1      -1.773  -0.899  -1.423  0.00  0.00    +0.036 C 
ATOM      7  C   UNL     1      -1.256  -0.754   0.010  0.00  0.00    +0.138 C 
BRANCH   7   8
ATOM      8  N   UNL     1       0.002  -0.004   0.002  0.00  0.00    -0.302 N 
ATOM      9  C   UNL     1      -0.016   1.344   0.009  0.00  0.00    +0.245 C 
ATOM     10  O   UNL     1      -1.077   1.937   0.018  0.00  0.00    -0.270 OA
ATOM     11  H   UNL     1       0.849  -0.478  -0.009  0.00  0.00    +0.150 HD
BRANCH   9  12
ATOM     12  C   UNL     1       1.254   2.100   0.001  0.00  0.00    +0.038 A 
ATOM     13  C   UNL     1       1.238   3.496   0.009  0.00  0.00    +0.013 A 
ATOM     14  C   UNL     1       2.427   4.197   0.002  0.00  0.00    +0.002 A 
ATOM     15  C   UNL     1       3.633   3.519  -0.013  0.00  0.00    +0.020 A 
ATOM     16  C   UNL     1       3.656   2.135  -0.020  0.00  0.00    +0.042 A 
ATOM     17  C   UNL     1       2.473   1.422  -0.008  0.00  0.00    +0.033 A 
ATOM     18 CL   UNL     1       5.175   1.294  -0.039  0.00  0.00    -0.084 Cl
ENDBRANCH   9  12
ENDBRANCH   7   8
ENDBRANCH   1   7
BRANCH   5  19
ATOM     19  C   UNL     1      -3.042  -2.236   2.133  0.00  0.00    +0.152 C 
BRANCH  19  20
ATOM     20  C   UNL     1      -4.226  -2.644   1.294  0.00  0.00    -0.013 C 
ATOM     21  C   UNL     1      -5.220  -3.300   1.839  0.00  0.00    +0.005 C 
ENDBRANCH  19  20
ENDBRANCH   5  19
BRANCH   4  22
ATOM     22  S   UNL     1      -1.780  -5.204   2.868  0.00  0.00    -0.078 S 
BRANCH  22  23
ATOM     23  C   UNL     1      -0.490  -6.449   2.621  0.00  0.00    +0.157 C 
BRANCH  23  24
ATOM     24  C   UNL     1      -0.773  -7.645   3.493  0.00  0.00    +0.173 C 
ATOM     25  O   UNL     1      -1.750  -7.655   4.210  0.00  0.00    -0.291 OA
BRANCH  24  26
ATOM     26  C   UNL     1       0.138  -8.800   3.474  0.00  0.00    +0.018 A 
ATOM     27  C   UNL     1       1.264  -8.795   2.644  0.00  0.00    +0.012 A 
ATOM     28  C   UNL     1       2.115  -9.878   2.637  0.00  0.00    +0.016 A 
ATOM     29  C   UNL     1       1.852 -10.976   3.439  0.00  0.00    +0.018 A 
ATOM     30  C   UNL     1       0.735 -10.992   4.259  0.00  0.00    +0.016 A 
ATOM     31  C   UNL     1      -0.122  -9.913   4.282  0.00  0.00    +0.012 A 
ATOM     32 BR   UNL     1       3.022 -12.462   3.416  0.00  0.00    -0.050 Br
ENDBRANCH  24  26
ENDBRANCH  23  24
ENDBRANCH  22  23
ENDBRANCH   4  22
TORSDOF 9
