REMARK  Name = ZINC37351222
REMARK  5 active torsions:
REMARK  status: ('A' for Active; 'I' for Inactive)
REMARK    1  A    between atoms: C_1  and  C_2
REMARK    2  A    between atoms: C_6  and  C_7
REMARK    3  A    between atoms: C_8  and  C_14
REMARK    4  A    between atoms: C_9  and  N_13
REMARK    5  A    between atoms: N_10  and  C_12
REMARK                            x       y       z     vdW  Elec       q    Type
REMARK                         _______ _______ _______ _____ _____    ______ ____
ROOT
ATOM      1  C   UNL     1       0.029  -0.203   2.565  0.00  0.00    +0.109 A 
ATOM      2  C   UNL     1       0.057  -0.997   3.741  0.00  0.00    +0.052 A 
ATOM      3  C   UNL     1       0.054  -0.132   4.819  0.00  0.00    +0.123 A 
ATOM      4  N   UNL     1       0.025   1.132   4.325  0.00  0.00    -0.253 N 
ATOM      5  N   UNL     1       0.017   1.062   2.927  0.00  0.00    -0.169 NA
ATOM      6  C   UNL     1       0.012   2.362   5.121  0.00  0.00    +0.174 C 
ENDROOT
BRANCH   2   7
ATOM      7  C   UNL     1       0.084  -2.477   3.801  0.00  0.00    +0.024 A 
ATOM      8  C   UNL     1      -1.110  -3.199   3.838  0.00  0.00    +0.050 A 
ATOM      9  C   UNL     1      -1.078  -4.578   3.895  0.00  0.00    +0.021 A 
ATOM     10  C   UNL     1       0.134  -5.245   3.915  0.00  0.00    +0.003 A 
ATOM     11  C   UNL     1       1.321  -4.535   3.879  0.00  0.00    +0.021 A 
ATOM     12  C   UNL     1       1.303  -3.156   3.816  0.00  0.00    +0.050 A 
ATOM     13 CL   UNL     1       2.794  -2.268   3.763  0.00  0.00    -0.083 Cl
ATOM     14 CL   UNL     1      -2.632  -2.364   3.814  0.00  0.00    -0.083 Cl
ENDBRANCH   2   7
BRANCH   1  20
ATOM     15  C   UNL     1      -0.018   1.503   0.010  0.00  0.00    +0.045 C 
ATOM     16  C   UNL     1       0.002  -0.004   0.002  0.00  0.00    -0.034 A 
ATOM     17  C   UNL     1       0.006  -0.700  -1.188  0.00  0.00    +0.011 A 
ATOM     18  C   UNL     1       0.025  -2.057  -1.160  0.00  0.00    +0.046 A 
ATOM     19  S   UNL     1       0.038  -2.396   0.593  0.00  0.00    -0.095 S 
ATOM     20  C   UNL     1       0.023  -0.708   1.176  0.00  0.00    +0.043 A 
ENDBRANCH   1  20
BRANCH   3  21
ATOM     21  N   UNL     1       0.075  -0.491   6.160  0.00  0.00    -0.343 N 
ATOM     22  H   UNL     1       0.094  -1.427   6.412  0.00  0.00    +0.144 HD
ATOM     23  H   UNL     1       0.070   0.196   6.846  0.00  0.00    +0.144 HD
ENDBRANCH   3  21
TORSDOF 3
