REMARK  Name = ZINC23682844
REMARK  6 active torsions:
REMARK  status: ('A' for Active; 'I' for Inactive)
REMARK    1  A    between atoms: C_1  and  C_2
REMARK    2  A    between atoms: C_7  and  N_11
REMARK    3  A    between atoms: C_12  and  C_14
REMARK    4  A    between atoms: C_14  and  C_15
REMARK    5  A    between atoms: C_15  and  C_17
REMARK    6  A    between atoms: C_15  and  N_24
REMARK                            x       y       z     vdW  Elec       q    Type
REMARK                         _______ _______ _______ _____ _____    ______ ____
ROOT
ATOM      1  C   UNL     1       6.314   5.868  -0.241  0.00  0.00    +0.123 C 
ENDROOT
BRANCH   1   3
ATOM      2  N   UNL     1       4.847   3.891  -0.000  0.00  0.00    -0.285 N 
ATOM      3  C   UNL     1       4.956   5.231  -0.102  0.00  0.00    +0.219 C 
ATOM      4  O   UNL     1       3.960   5.923  -0.083  0.00  0.00    -0.275 OA
ATOM      5  H   UNL     1       5.752   3.271   0.078  0.00  0.00    +0.155 HD
BRANCH   2  12
ATOM      6  C   UNL     1      -2.610   1.907  -0.807  0.00  0.00    +0.073 C 
ATOM      7  C   UNL     1      -1.159   2.278  -0.642  0.00  0.00    +0.076 A 
ATOM      8  N   UNL     1      -0.216   1.608  -0.043  0.00  0.00    -0.244 NA
ATOM      9  C   UNL     1       1.055   2.056   0.035  0.00  0.00    +0.079 A 
ATOM     10  C   UNL     1       2.176   1.450   0.645  0.00  0.00    +0.031 A 
ATOM     11  C   UNL     1       3.392   2.056   0.625  0.00  0.00    +0.025 A 
ATOM     12  C   UNL     1       3.582   3.290   0.006  0.00  0.00    +0.035 A 
ATOM     13  C   UNL     1       2.505   3.917  -0.604  0.00  0.00    +0.040 A 
ATOM     14  C   UNL     1       1.274   3.308  -0.585  0.00  0.00    +0.041 A 
ATOM     15  S   UNL     1      -0.342   3.703  -1.206  0.00  0.00    -0.072 S 
ENDBRANCH   2  12
ENDBRANCH   1   3
BRANCH   1  16
ATOM     16  C   UNL     1       6.158   7.387  -0.338  0.00  0.00    +0.113 C 
BRANCH  16  17
ATOM     17  C   UNL     1       7.502   8.015  -0.600  0.00  0.00    -0.026 A 
ATOM     18  C   UNL     1       8.467   7.316  -1.302  0.00  0.00    +0.005 A 
ATOM     19  C   UNL     1       9.700   7.892  -1.543  0.00  0.00    +0.001 A 
ATOM     20  C   UNL     1       9.970   9.167  -1.082  0.00  0.00    +0.015 A 
ATOM     21  C   UNL     1       9.005   9.866  -0.379  0.00  0.00    +0.018 A 
ATOM     22  C   UNL     1       7.769   9.292  -0.143  0.00  0.00    +0.020 A 
ATOM     23 BR   UNL     1       9.374  11.610   0.253  0.00  0.00    -0.050 Br
ENDBRANCH  16  17
BRANCH  16  24
ATOM     24  N   UNL     1       5.614   7.903   0.921  0.00  0.00    -0.292 N 
ATOM     25  C   UNL     1       6.243   7.641   2.084  0.00  0.00    +0.298 C 
ATOM     26  O   UNL     1       7.312   7.060   2.080  0.00  0.00    -0.253 OA
ATOM     27  N   UNL     1       5.688   8.023   3.251  0.00  0.00    -0.313 N 
ATOM     28  H   UNL     1       4.693   8.504   0.917  0.00  0.00    +0.151 HD
ATOM     29  H   UNL     1       6.202   7.809   4.200  0.00  0.00    +0.146 HD
ATOM     30  H   UNL     1       4.722   8.549   3.255  0.00  0.00    +0.146 HD
ENDBRANCH  16  24
ENDBRANCH   1  16
TORSDOF 5
