REMARK  Name = ZINC27493152
REMARK  13 active torsions:
REMARK  status: ('A' for Active; 'I' for Inactive)
REMARK    1  A    between atoms: C_1  and  C_2
REMARK    2  A    between atoms: C_2  and  C_4
REMARK    3  A    between atoms: C_2  and  N_31
REMARK    4  A    between atoms: C_7  and  S_16
REMARK    5  A    between atoms: N_8  and  C_9
REMARK    6  A    between atoms: S_16  and  C_17
REMARK    7  A    between atoms: C_17  and  C_18
REMARK    8  A    between atoms: N_20  and  C_21
REMARK    9  A    between atoms: C_21  and  C_22
REMARK   10  A    between atoms: C_22  and  O_23
REMARK   11  A    between atoms: O_23  and  C_24
REMARK   12  A    between atoms: N_31  and  C_32
REMARK   13  A    between atoms: N_31  and  C_33
REMARK                            x       y       z     vdW  Elec       q    Type
REMARK                         _______ _______ _______ _____ _____    ______ ____
ROOT
ATOM      1  C   UNL     1       2.041   0.583  -0.014  0.00  0.00    +0.125 A 
ATOM      2  N   UNL     1       1.216  -0.425  -0.012  0.00  0.00    -0.135 NA
ATOM      3  N   UNL     1       0.002  -0.004   0.002  0.00  0.00    -0.122 NA
ATOM      4  C   UNL     1      -0.016   1.309   0.009  0.00  0.00    +0.197 A 
ATOM      5  N   UNL     1       1.287   1.726  -0.001  0.00  0.00    -0.275 N 
ENDROOT
BRANCH   5   6
ATOM      6  C   UNL     1       1.753   3.050   0.002  0.00  0.00    +0.050 A 
ATOM      7  C   UNL     1       2.457   3.541  -1.089  0.00  0.00    +0.028 A 
ATOM      8  C   UNL     1       2.909   4.846  -1.087  0.00  0.00    +0.022 A 
ATOM      9  C   UNL     1       2.672   5.660   0.007  0.00  0.00    +0.041 A 
ATOM     10  C   UNL     1       1.975   5.170   1.098  0.00  0.00    +0.022 A 
ATOM     11  C   UNL     1       1.516   3.868   1.098  0.00  0.00    +0.028 A 
ATOM     12 CL   UNL     1       3.249   7.297   0.011  0.00  0.00    -0.084 Cl
ENDBRANCH   5   6
BRANCH   1  14
ATOM     13  C   UNL     1       4.050   0.100   1.356  0.00  0.00    -0.005 C 
ATOM     14  C   UNL     1       3.546   0.506  -0.030  0.00  0.00    -0.003 C 
BRANCH  14  15
ATOM     15  N   UNL     1       3.975  -0.491  -1.019  0.00  0.00    +0.382 N 
ATOM     16  C   UNL     1       5.439  -0.510  -1.147  0.00  0.00    -0.096 C 
ATOM     17  C   UNL     1       3.459  -1.825  -0.680  0.00  0.00    -0.096 C 
ATOM     18  H   UNL     1       3.554  -0.204  -1.994  0.00  0.00    -0.082 HD
ENDBRANCH  14  15
ENDBRANCH   1  14
BRANCH   4  19
ATOM     19  S   UNL     1      -1.446   2.337   0.022  0.00  0.00    -0.076 S 
BRANCH  19  20
ATOM     20  C   UNL     1      -2.742   1.074   0.022  0.00  0.00    +0.173 C 
BRANCH  20  21
ATOM     21  C   UNL     1      -4.094   1.740   0.033  0.00  0.00    +0.223 C 
ATOM     22  O   UNL     1      -4.173   2.951   0.039  0.00  0.00    -0.275 OA
ATOM     23  N   UNL     1      -5.214   0.992   0.035  0.00  0.00    -0.311 N 
ATOM     24  H   UNL     1      -5.143  -0.106   0.029  0.00  0.00    +0.149 HD
BRANCH  23  25
ATOM     25  C   UNL     1      -6.528   1.640   0.045  0.00  0.00    +0.145 C 
BRANCH  25  26
ATOM     26  C   UNL     1      -7.624   0.571   0.045  0.00  0.00    +0.247 C 
BRANCH  26  27
ATOM     27  O   UNL     1      -7.561  -0.175   1.262  0.00  0.00    -0.490 OA
BRANCH  27  28
ATOM     28  C   UNL     1      -8.472  -1.170   1.423  0.00  0.00    +0.121 A 
ATOM     29  C   UNL     1      -9.411  -1.419   0.433  0.00  0.00    +0.047 A 
ATOM     30  C   UNL     1     -10.333  -2.435   0.596  0.00  0.00    +0.023 A 
ATOM     31  C   UNL     1     -10.328  -3.196   1.752  0.00  0.00    +0.041 A 
ATOM     32  C   UNL     1      -9.396  -2.946   2.743  0.00  0.00    +0.023 A 
ATOM     33  C   UNL     1      -8.468  -1.935   2.581  0.00  0.00    +0.047 A 
ATOM     34 CL   UNL     1     -11.492  -4.468   1.957  0.00  0.00    -0.084 Cl
ENDBRANCH  27  28
ENDBRANCH  26  27
ENDBRANCH  25  26
ENDBRANCH  23  25
ENDBRANCH  20  21
ENDBRANCH  19  20
ENDBRANCH   4  19
TORSDOF 10
