REMARK  Name = ZINC14187441
REMARK  8 active torsions:
REMARK  status: ('A' for Active; 'I' for Inactive)
REMARK    1  A    between atoms: C_1  and  C_2
REMARK    2  A    between atoms: C_5  and  S_8
REMARK    3  A    between atoms: S_8  and  N_11
REMARK    4  A    between atoms: N_11  and  C_12
REMARK    5  A    between atoms: N_11  and  C_13
REMARK    6  A    between atoms: C_13  and  C_14
REMARK    7  A    between atoms: N_16  and  N_17
REMARK    8  A    between atoms: C_18  and  C_20
REMARK                            x       y       z     vdW  Elec       q    Type
REMARK                         _______ _______ _______ _____ _____    ______ ____
ROOT
ATOM      1  C   UNL     1      -4.769  -0.677   0.046  0.00  0.00    +0.245 C 
ATOM      2  O   UNL     1      -4.917   0.527   0.054  0.00  0.00    -0.273 OA
ATOM      3  N   UNL     1      -3.529  -1.204   0.031  0.00  0.00    -0.233 N 
ATOM      4  H   UNL     1      -3.410  -2.166   0.024  0.00  0.00    +0.173 HD
ENDROOT
BRANCH   3   5
ATOM      5  N   UNL     1      -2.410  -0.360   0.024  0.00  0.00    -0.229 N 
ATOM      6  C   UNL     1      -1.169  -0.887   0.009  0.00  0.00    +0.276 C 
ATOM      7  O   UNL     1      -1.021  -2.095   0.001  0.00  0.00    -0.267 OA
ATOM      8  H   UNL     1      -2.528   0.602   0.030  0.00  0.00    +0.173 HD
BRANCH   6   9
ATOM      9  C   UNL     1       0.002  -0.004   0.002  0.00  0.00    +0.104 A 
ATOM     10  C   UNL     1       1.322  -0.402  -0.013  0.00  0.00    +0.047 A 
ATOM     11  C   UNL     1       2.102   0.760  -0.014  0.00  0.00    +0.036 A 
ATOM     12  C   UNL     1       1.262   1.823  -0.000  0.00  0.00    +0.098 A 
ATOM     13  N   UNL     1      -0.017   1.372   0.010  0.00  0.00    -0.356 N 
ATOM     14  H   UNL     1      -0.812   1.927   0.017  0.00  0.00    +0.166 HD
ATOM     15 BR   UNL     1       3.991   0.833  -0.032  0.00  0.00    -0.049 Br
ENDBRANCH   6   9
ENDBRANCH   3   5
BRANCH   1  16
ATOM     16  C   UNL     1      -5.973  -1.584   0.053  0.00  0.00    +0.206 C 
BRANCH  16  17
ATOM     17  N   UNL     1      -7.194  -0.775   0.069  0.00  0.00    -0.171 NA
ATOM     18  C   UNL     1      -7.756  -0.272  -1.187  0.00  0.00    +0.132 C 
BRANCH  17  19
ATOM     19  S   UNL     1      -7.939  -0.430   1.507  0.00  0.00    +0.061 S 
ATOM     20  O   UNL     1      -9.300  -0.158   1.204  0.00  0.00    -0.153 OA
ATOM     21  O   UNL     1      -7.550  -1.446   2.421  0.00  0.00    -0.153 OA
BRANCH  19  26
ATOM     22  C   UNL     1      -5.566   4.726   3.554  0.00  0.00    +0.044 C 
ATOM     23  C   UNL     1      -6.159   3.439   3.043  0.00  0.00    -0.050 A 
ATOM     24  C   UNL     1      -7.271   3.467   2.223  0.00  0.00    +0.005 A 
ATOM     25  C   UNL     1      -7.815   2.286   1.754  0.00  0.00    +0.029 A 
ATOM     26  C   UNL     1      -7.246   1.076   2.105  0.00  0.00    +0.105 A 
ATOM     27  C   UNL     1      -6.136   1.047   2.928  0.00  0.00    +0.029 A 
ATOM     28  C   UNL     1      -5.590   2.229   3.393  0.00  0.00    +0.005 A 
ENDBRANCH  19  26
ENDBRANCH  17  19
ENDBRANCH  16  17
ENDBRANCH   1  16
TORSDOF 6
