REMARK  Name = ZINC62923853
REMARK  3 active torsions:
REMARK  status: ('A' for Active; 'I' for Inactive)
REMARK    1  A    between atoms: C_1  and  C_2
REMARK    2  A    between atoms: C_2  and  C_19
REMARK    3  A    between atoms: C_13  and  C_16
REMARK                            x       y       z     vdW  Elec       q    Type
REMARK                         _______ _______ _______ _____ _____    ______ ____
ROOT
ATOM      1  C   UNL     1       3.953  -1.560   5.604  0.00  0.00    +0.024 C 
ATOM      2  C   UNL     1       3.142  -2.682   4.954  0.00  0.00    +0.086 C 
ATOM      3  C   UNL     1       3.386  -2.720   3.422  0.00  0.00    +0.038 C 
ATOM      4  C   UNL     1       2.403  -1.631   2.924  0.00  0.00    +0.110 C 
ATOM      5  N   UNL     1       1.219  -1.766   3.791  0.00  0.00    -0.284 N 
ATOM      6  C   UNL     1       1.629  -2.393   5.056  0.00  0.00    +0.127 C 
ATOM      7  C   UNL     1      -0.034  -1.379   3.477  0.00  0.00    +0.305 C 
ATOM      8  O   UNL     1      -0.233  -0.725   2.471  0.00  0.00    -0.252 OA
ATOM      9  N   UNL     1      -1.064  -1.716   4.277  0.00  0.00    -0.285 N 
ATOM     10  C   UNL     1      -2.451  -1.532   3.829  0.00  0.00    +0.109 C 
ATOM     11  C   UNL     1      -3.203  -0.708   4.879  0.00  0.00    +0.020 C 
ATOM     12  C   UNL     1      -3.068  -1.384   6.245  0.00  0.00    +0.016 C 
ATOM     13  C   UNL     1      -1.592  -1.443   6.644  0.00  0.00    +0.092 C 
ATOM     14  C   UNL     1      -0.822  -2.281   5.612  0.00  0.00    +0.122 C 
ENDROOT
BRANCH  13  15
ATOM     15  C   UNL     1      -1.463  -2.079   8.003  0.00  0.00    +0.215 C 
ATOM     16  O   UNL     1      -2.455  -2.450   8.596  0.00  0.00    -0.276 OA
ATOM     17  N   UNL     1      -0.247  -2.237   8.561  0.00  0.00    -0.329 N 
ATOM     18  H   UNL     1       0.546  -1.941   8.087  0.00  0.00    +0.145 HD
ATOM     19  H   UNL     1      -0.164  -2.647   9.437  0.00  0.00    +0.145 HD
ENDBRANCH  13  15
BRANCH   2  20
ATOM     20  C   UNL     1       3.474  -4.011   5.583  0.00  0.00    +0.363 C 
ATOM     21  O   UNL     1       4.285  -4.069   6.492  0.00  0.00    -0.246 OA
ATOM     22  O   UNL     1       2.932  -5.027   5.184  0.00  0.00    -0.246 OA
ENDBRANCH   2  20
TORSDOF 2
