REMARK  Name = ZINC02096830
REMARK  8 active torsions:
REMARK  status: ('A' for Active; 'I' for Inactive)
REMARK    1  A    between atoms: C_1  and  C_2
REMARK    2  A    between atoms: C_8  and  C_37
REMARK    3  A    between atoms: C_9  and  O_36
REMARK    4  A    between atoms: C_19  and  C_21
REMARK    5  A    between atoms: C_21  and  N_69
REMARK    6  A    between atoms: N_24  and  C_27
REMARK    7  A    between atoms: C_30  and  C_33
REMARK    8  A    between atoms: C_33  and  C_35
REMARK                            x       y       z     vdW  Elec       q    Type
REMARK                         _______ _______ _______ _____ _____    ______ ____
ROOT
ATOM      1  C   UNL     1       1.545  14.264  -0.597  0.00  0.00    +0.008 C 
ATOM      2  C   UNL     1       0.087  14.429  -0.185  0.00  0.00    -0.001 C 
ATOM      3  C   UNL     1       0.007  15.739   0.701  0.00  0.00    +0.008 C 
ATOM      4  C   UNL     1      -1.458  16.030   0.835  0.00  0.00    +0.027 C 
ATOM      5  C   UNL     1      -2.076  14.818   1.562  0.00  0.00    -0.027 C 
ATOM      6  C   UNL     1      -1.659  13.649   1.436  0.00  0.00    -0.061 C 
ATOM      7  C   UNL     1      -0.510  13.282   0.539  0.00  0.00    +0.018 C 
ATOM      8  C   UNL     1       0.482  12.442   1.367  0.00  0.00    +0.132 C 
ATOM      9  C   UNL     1       0.074  11.694   2.510  0.00  0.00    +0.071 C 
ATOM     10  C   UNL     1      -1.275  12.100   3.275  0.00  0.00    +0.187 C 
ATOM     11  C   UNL     1      -2.296  12.539   2.203  0.00  0.00    +0.076 C 
ATOM     12  O   UNL     1      -1.751  10.870   3.837  0.00  0.00    -0.460 OA
ATOM     13  C   UNL     1      -1.021   9.794   3.568  0.00  0.00    +0.309 C 
ATOM     14  O   UNL     1      -1.100   8.723   3.977  0.00  0.00    -0.251 OA
ATOM     15  C   UNL     1      -0.117  10.160   2.448  0.00  0.00    +0.090 C 
ATOM     16  C   UNL     1      -1.098  12.374  -0.585  0.00  0.00    +0.018 C 
ENDROOT
BRANCH   8  17
ATOM     17  O   UNL     1       1.293  11.651   0.484  0.00  0.00    -0.391 OA
ATOM     18  H   UNL     1       2.105  11.316   0.888  0.00  0.00    +0.210 HD
ENDBRANCH   8  17
BRANCH  15  19
ATOM     19  C   UNL     1      -0.693   9.650   1.123  0.00  0.00    -0.064 C 
BRANCH  19  25
ATOM     20  C   UNL     1      -1.430   7.651  -0.029  0.00  0.00    -0.060 C 
ATOM     21  C   UNL     1      -1.452   6.122   0.042  0.00  0.00    +0.086 C 
ATOM     22  N   UNL     1      -0.074   5.614   0.038  0.00  0.00    -0.333 N 
ATOM     23  C   UNL     1       0.683   6.144   1.181  0.00  0.00    +0.086 C 
ATOM     24  C   UNL     1       0.705   7.673   1.110  0.00  0.00    -0.060 C 
ATOM     25  N   UNL     1      -0.686   8.171   1.137  0.00  0.00    +0.382 N 
ATOM     26  H   UNL     1      -1.141   7.843   1.997  0.00  0.00    -0.082 HD
BRANCH  22  27
ATOM     27  C   UNL     1      -0.055   4.226   0.029  0.00  0.00    +0.030 A 
ATOM     28  C   UNL     1       1.162   3.547   0.024  0.00  0.00    +0.024 A 
ATOM     29  C   UNL     1       1.185   2.182   0.015  0.00  0.00    +0.013 A 
ATOM     30  C   UNL     1      -0.018   1.463   0.011  0.00  0.00    +0.017 A 
ATOM     31  C   UNL     1      -1.239   2.150   0.011  0.00  0.00    +0.013 A 
ATOM     32  C   UNL     1      -1.253   3.515   0.026  0.00  0.00    +0.024 A 
BRANCH  30  33
ATOM     33  C   UNL     1       0.002  -0.004   0.002  0.00  0.00    +0.160 C 
ATOM     34  O   UNL     1       1.056  -0.596  -0.104  0.00  0.00    -0.292 OA
ATOM     35  C   UNL     1      -1.287  -0.776   0.124  0.00  0.00    +0.091 C 
ENDBRANCH  30  33
ENDBRANCH  22  27
ENDBRANCH  19  25
ENDBRANCH  15  19
TORSDOF 5
