REMARK  Name = ZINC00104965
REMARK  4 active torsions:
REMARK  status: ('A' for Active; 'I' for Inactive)
REMARK    1  A    between atoms: C_1  and  C_2
REMARK    2  A    between atoms: C_5  and  C_8
REMARK    3  A    between atoms: C_15  and  O_20
REMARK    4  A    between atoms: O_20  and  C_21
REMARK                            x       y       z     vdW  Elec       q    Type
REMARK                         _______ _______ _______ _____ _____    ______ ____
ROOT
ATOM      1  C   UNL     1       0.059  -4.275  -0.021  0.00  0.00    +0.130 C 
ATOM      2  C   UNL     1       1.465  -4.742  -0.286  0.00  0.00    -0.023 C 
ATOM      3  C   UNL     1       1.750  -5.524  -1.323  0.00  0.00    +0.041 C 
ATOM      4  C   UNL     1       3.134  -6.019  -1.516  0.00  0.00    -0.000 A 
ATOM      5  C   UNL     1       3.527  -6.576  -2.731  0.00  0.00    +0.013 A 
ATOM      6  C   UNL     1       4.822  -7.026  -2.891  0.00  0.00    +0.046 A 
ATOM      7  C   UNL     1       5.727  -6.932  -1.841  0.00  0.00    +0.120 A 
ATOM      8  C   UNL     1       5.331  -6.395  -0.623  0.00  0.00    +0.050 A 
ATOM      9  C   UNL     1       4.038  -5.950  -0.456  0.00  0.00    -0.035 A 
ATOM     10  C   UNL     1       3.579  -5.401   0.870  0.00  0.00    +0.040 C 
ATOM     11  C   UNL     1       2.565  -4.284   0.642  0.00  0.00    +0.039 C 
ATOM     12  N   UNL     1       0.758  -5.914  -2.225  0.00  0.00    -0.296 N 
ATOM     13  C   UNL     1      -0.515  -5.525  -2.056  0.00  0.00    +0.135 C 
ATOM     14  S   UNL     1      -1.700  -6.024  -3.186  0.00  0.00    -0.019 S 
ATOM     15  N   UNL     1      -0.878  -4.754  -1.024  0.00  0.00    -0.316 N 
ATOM     16  H   UNL     1       0.992  -6.474  -2.982  0.00  0.00    +0.154 HD
ATOM     17  H   UNL     1      -1.812  -4.503  -0.940  0.00  0.00    +0.149 HD
ENDROOT
BRANCH   1  22
ATOM     18  C   UNL     1      -0.018   1.503   0.010  0.00  0.00    +0.044 C 
ATOM     19  C   UNL     1       0.002  -0.004   0.002  0.00  0.00    -0.050 A 
ATOM     20  C   UNL     1      -0.006  -0.689  -1.199  0.00  0.00    +0.004 A 
ATOM     21  C   UNL     1       0.018  -2.071  -1.206  0.00  0.00    +0.006 A 
ATOM     22  C   UNL     1       0.039  -2.768  -0.013  0.00  0.00    -0.023 A 
ATOM     23  C   UNL     1       0.042  -2.084   1.188  0.00  0.00    +0.006 A 
ATOM     24  C   UNL     1       0.023  -0.702   1.195  0.00  0.00    +0.004 A 
ENDBRANCH   1  22
BRANCH   7  25
ATOM     25  O   UNL     1       7.003  -7.366  -2.007  0.00  0.00    -0.495 OA
ATOM     26  C   UNL     1       7.344  -7.907  -3.285  0.00  0.00    +0.277 C 
ENDBRANCH   7  25
TORSDOF 2
