REMARK  Name = ZINC24072299
REMARK  12 active torsions:
REMARK  status: ('A' for Active; 'I' for Inactive)
REMARK    1  A    between atoms: C_1  and  C_2
REMARK    2  A    between atoms: C_5  and  N_8
REMARK    3  A    between atoms: C_9  and  C_11
REMARK    4  A    between atoms: C_11  and  N_12
REMARK    5  A    between atoms: N_15  and  C_18
REMARK    6  A    between atoms: C_18  and  C_20
REMARK    7  A    between atoms: C_18  and  C_21
REMARK    8  A    between atoms: N_23  and  C_24
REMARK    9  A    between atoms: C_27  and  C_30
REMARK   10  A    between atoms: C_30  and  C_31
REMARK   11  A    between atoms: C_30  and  C_32
REMARK   12  A    between atoms: C_30  and  C_33
REMARK                            x       y       z     vdW  Elec       q    Type
REMARK                         _______ _______ _______ _____ _____    ______ ____
ROOT
ATOM      1  N   UNL     1       7.436   1.493   0.411  0.00  0.00    +0.387 N 
ATOM      2  C   UNL     1       6.498   2.242  -0.438  0.00  0.00    -0.063 C 
ATOM      3  C   UNL     1       7.228   3.426  -1.078  0.00  0.00    +0.066 C 
ATOM      4  N   UNL     1       8.366   2.930  -1.864  0.00  0.00    -0.295 NA
ATOM      5  C   UNL     1       9.303   2.182  -1.015  0.00  0.00    +0.066 C 
ATOM      6  C   UNL     1       8.574   0.998  -0.376  0.00  0.00    -0.063 C 
ATOM      7  H   UNL     1       7.825   2.181   1.175  0.00  0.00    -0.081 HD
ENDROOT
BRANCH   4   8
ATOM      8  C   UNL     1       9.047   4.032  -2.556  0.00  0.00    +0.140 C 
ATOM      9  C   UNL     1       8.013   4.899  -3.278  0.00  0.00    +0.034 C 
BRANCH   8  10
ATOM     10  C   UNL     1       9.792   4.872  -1.550  0.00  0.00    +0.234 C 
ATOM     11  O   UNL     1       9.418   4.912  -0.397  0.00  0.00    -0.274 OA
ATOM     12  N   UNL     1      10.874   5.580  -1.933  0.00  0.00    -0.284 N 
ATOM     13  H   UNL     1      11.167   5.607  -2.992  0.00  0.00    +0.155 HD
BRANCH  12  14
ATOM     14  C   UNL     1      11.623   6.281  -0.981  0.00  0.00    +0.033 A 
ATOM     15  C   UNL     1      10.994   6.851   0.118  0.00  0.00    +0.023 A 
ATOM     16  C   UNL     1      11.737   7.538   1.057  0.00  0.00    +0.006 A 
ATOM     17  C   UNL     1      13.105   7.668   0.899  0.00  0.00    -0.042 A 
ATOM     18  C   UNL     1      13.733   7.106  -0.197  0.00  0.00    +0.006 A 
ATOM     19  C   UNL     1      12.997   6.413  -1.137  0.00  0.00    +0.023 A 
BRANCH  17  20
ATOM     20  C   UNL     1      13.912   8.424   1.923  0.00  0.00    -0.013 C 
ATOM     21  C   UNL     1      14.611   9.606   1.250  0.00  0.00    +0.015 C 
ATOM     22  C   UNL     1      12.983   8.939   3.025  0.00  0.00    +0.015 C 
ATOM     23  C   UNL     1      14.960   7.492   2.535  0.00  0.00    +0.015 C 
ENDBRANCH  17  20
ENDBRANCH  12  14
ENDBRANCH   8  10
ENDBRANCH   4   8
BRANCH   1  24
ATOM     24  C   UNL     1       6.754   0.391   1.102  0.00  0.00    +0.019 C 
BRANCH  24  26
ATOM     25  N   UNL     1       5.010   0.122   2.836  0.00  0.00    -0.287 N 
ATOM     26  C   UNL     1       5.757   0.953   2.083  0.00  0.00    +0.201 C 
ATOM     27  O   UNL     1       5.628   2.154   2.195  0.00  0.00    -0.278 OA
ATOM     28  H   UNL     1       5.074  -0.965   2.683  0.00  0.00    +0.155 HD
BRANCH  25  33
ATOM     29  C   UNL     1       1.537   2.231   6.795  0.00  0.00    +0.044 C 
ATOM     30  C   UNL     1       2.459   1.671   5.743  0.00  0.00    -0.050 A 
ATOM     31  C   UNL     1       2.078   0.561   5.011  0.00  0.00    +0.005 A 
ATOM     32  C   UNL     1       2.921   0.045   4.047  0.00  0.00    +0.023 A 
ATOM     33  C   UNL     1       4.153   0.642   3.812  0.00  0.00    +0.033 A 
ATOM     34  C   UNL     1       4.536   1.753   4.553  0.00  0.00    +0.023 A 
ATOM     35  C   UNL     1       3.686   2.267   5.513  0.00  0.00    +0.005 A 
ENDBRANCH  25  33
ENDBRANCH  24  26
ENDBRANCH   1  24
TORSDOF 7
