REMARK  Name = ZINC40708143
REMARK  8 active torsions:
REMARK  status: ('A' for Active; 'I' for Inactive)
REMARK    1  A    between atoms: C_1  and  C_2
REMARK    2  A    between atoms: C_2  and  C_3
REMARK    3  A    between atoms: C_2  and  N_4
REMARK    4  A    between atoms: C_6  and  N_25
REMARK    5  A    between atoms: C_7  and  N_11
REMARK    6  A    between atoms: N_11  and  N_12
REMARK    7  A    between atoms: N_12  and  C_13
REMARK    8  A    between atoms: N_12  and  C_19
REMARK                            x       y       z     vdW  Elec       q    Type
REMARK                         _______ _______ _______ _____ _____    ______ ____
ROOT
ATOM      1  N   UNL     1       3.054  -1.881  -8.546  0.00  0.00    -0.325 N 
ATOM      2  C   UNL     1       3.723  -2.346  -7.420  0.00  0.00    +0.145 A 
ATOM      3  C   UNL     1       4.314  -1.451  -6.527  0.00  0.00    +0.105 A 
ATOM      4  C   UNL     1       4.973  -1.972  -5.412  0.00  0.00    +0.139 A 
ATOM      5  N   UNL     1       5.012  -3.292  -5.244  0.00  0.00    -0.332 N 
ATOM      6  C   UNL     1       4.441  -4.102  -6.111  0.00  0.00    +0.200 A 
ATOM      7  N   UNL     1       3.804  -3.652  -7.174  0.00  0.00    -0.221 NA
ATOM      8  H   UNL     1       2.999  -0.928  -8.719  0.00  0.00    +0.148 HD
ATOM      9  H   UNL     1       5.468  -3.662  -4.472  0.00  0.00    +0.168 HD
ENDROOT
BRANCH   1  11
ATOM     10  C   UNL     1       1.033  -3.190  -8.972  0.00  0.00    +0.027 C 
ATOM     11  C   UNL     1       2.433  -2.830  -9.473  0.00  0.00    +0.066 C 
ATOM     12  C   UNL     1       2.329  -2.194 -10.861  0.00  0.00    +0.027 C 
ENDBRANCH   1  11
BRANCH   3  13
ATOM     13  N   UNL     1       4.248  -0.065  -6.744  0.00  0.00    -0.353 N 
ATOM     14  H   UNL     1       3.787   0.282  -7.524  0.00  0.00    +0.143 HD
ATOM     15  H   UNL     1       4.664   0.545  -6.115  0.00  0.00    +0.143 HD
ENDBRANCH   3  13
BRANCH   4  16
ATOM     16  N   UNL     1       5.579  -1.125  -4.491  0.00  0.00    -0.243 N 
ATOM     17  H   UNL     1       5.546  -0.164  -4.621  0.00  0.00    +0.172 HD
BRANCH  16  18
ATOM     18  N   UNL     1       6.237  -1.659  -3.376  0.00  0.00    -0.221 N 
BRANCH  18  19
ATOM     19  C   UNL     1       7.634  -1.685  -3.335  0.00  0.00    +0.053 A 
ATOM     20  C   UNL     1       8.350  -2.282  -4.365  0.00  0.00    +0.025 A 
ATOM     21  C   UNL     1       9.730  -2.305  -4.321  0.00  0.00    +0.002 A 
ATOM     22  C   UNL     1      10.399  -1.735  -3.254  0.00  0.00    +0.000 A 
ATOM     23  C   UNL     1       9.690  -1.140  -2.227  0.00  0.00    +0.002 A 
ATOM     24  C   UNL     1       8.310  -1.107  -2.267  0.00  0.00    +0.025 A 
ENDBRANCH  18  19
BRANCH  18  25
ATOM     25  C   UNL     1       5.498  -2.166  -2.304  0.00  0.00    +0.053 A 
ATOM     26  C   UNL     1       4.122  -1.978  -2.257  0.00  0.00    +0.025 A 
ATOM     27  C   UNL     1       3.394  -2.481  -1.197  0.00  0.00    +0.002 A 
ATOM     28  C   UNL     1       4.033  -3.170  -0.182  0.00  0.00    +0.000 A 
ATOM     29  C   UNL     1       5.402  -3.358  -0.226  0.00  0.00    +0.002 A 
ATOM     30  C   UNL     1       6.136  -2.864  -1.287  0.00  0.00    +0.025 A 
ENDBRANCH  18  25
ENDBRANCH  16  18
ENDBRANCH   4  16
TORSDOF 6
