REMARK  Name = ZINC16938595
REMARK  10 active torsions:
REMARK  status: ('A' for Active; 'I' for Inactive)
REMARK    1  A    between atoms: C_1  and  C_2
REMARK    2  A    between atoms: C_2  and  C_4
REMARK    3  A    between atoms: C_2  and  S_16
REMARK    4  A    between atoms: N_6  and  C_7
REMARK    5  A    between atoms: C_12  and  C_13
REMARK    6  A    between atoms: C_13  and  C_15
REMARK    7  A    between atoms: S_16  and  C_17
REMARK    8  A    between atoms: C_20  and  C_29
REMARK    9  A    between atoms: N_21  and  C_22
REMARK   10  A    between atoms: C_29  and  N_62
REMARK                            x       y       z     vdW  Elec       q    Type
REMARK                         _______ _______ _______ _____ _____    ______ ____
ROOT
ATOM      1  C   UNL     1       3.905   2.159  -0.702  0.00  0.00    +0.197 A 
ATOM      2  N   UNL     1       3.852   3.395  -0.263  0.00  0.00    -0.122 NA
ATOM      3  N   UNL     1       4.995   3.963  -0.414  0.00  0.00    -0.135 NA
ATOM      4  C   UNL     1       5.841   3.132  -0.954  0.00  0.00    +0.122 A 
ATOM      5  N   UNL     1       5.179   1.949  -1.153  0.00  0.00    -0.276 N 
ENDROOT
BRANCH   5   6
ATOM      6  C   UNL     1       5.700   0.769  -1.706  0.00  0.00    +0.050 A 
ATOM      7  C   UNL     1       6.708   0.079  -1.047  0.00  0.00    +0.029 A 
ATOM      8  C   UNL     1       7.215  -1.085  -1.590  0.00  0.00    +0.040 A 
ATOM      9  C   UNL     1       6.726  -1.558  -2.797  0.00  0.00    +0.124 A 
ATOM     10  C   UNL     1       5.724  -0.868  -3.458  0.00  0.00    +0.040 A 
ATOM     11  C   UNL     1       5.211   0.294  -2.915  0.00  0.00    +0.029 A 
ATOM     12  F   UNL     1       7.228  -2.693  -3.329  0.00  0.00    -0.205 F 
ENDBRANCH   5   6
BRANCH   1  13
ATOM     13  S   UNL     1       2.587   0.990  -0.704  0.00  0.00    -0.073 S 
BRANCH  13  15
ATOM     14  C   UNL     1       1.649   2.341   1.478  0.00  0.00    +0.029 C 
ATOM     15  C   UNL     1       1.275   1.994   0.035  0.00  0.00    +0.137 C 
BRANCH  15  16
ATOM     16  C   UNL     1      -0.018   1.219   0.024  0.00  0.00    +0.230 C 
ATOM     17  O   UNL     1       0.003   0.006   0.005  0.00  0.00    -0.274 OA
ATOM     18  N   UNL     1      -1.196   1.873   0.031  0.00  0.00    -0.284 N 
ATOM     19  H   UNL     1      -1.213   2.840   0.112  0.00  0.00    +0.155 HD
BRANCH  18  20
ATOM     20  C   UNL     1      -2.387   1.162  -0.079  0.00  0.00    +0.044 A 
ATOM     21  C   UNL     1      -2.508  -0.091   0.505  0.00  0.00    +0.024 A 
ATOM     22  C   UNL     1      -3.692  -0.793   0.399  0.00  0.00    +0.002 A 
ATOM     23  C   UNL     1      -4.765  -0.259  -0.298  0.00  0.00    +0.001 A 
ATOM     24  C   UNL     1      -4.664   0.980  -0.889  0.00  0.00    +0.013 A 
ATOM     25  C   UNL     1      -3.472   1.707  -0.786  0.00  0.00    +0.038 A 
BRANCH  25  26
ATOM     26  C   UNL     1      -3.357   3.029  -1.414  0.00  0.00    +0.162 C 
ATOM     27  O   UNL     1      -2.293   3.613  -1.407  0.00  0.00    -0.292 OA
ATOM     28  C   UNL     1      -4.559   3.661  -2.067  0.00  0.00    +0.091 C 
ENDBRANCH  25  26
ENDBRANCH  18  20
ENDBRANCH  15  16
ENDBRANCH  13  15
ENDBRANCH   1  13
BRANCH   4  29
ATOM     29  C   UNL     1       7.282   3.417  -1.291  0.00  0.00    -0.001 C 
BRANCH  29  35
ATOM     30  C   UNL     1       7.850   3.964   0.998  0.00  0.00    -0.078 C 
ATOM     31  C   UNL     1       8.643   3.493   2.219  0.00  0.00    -0.019 C 
ATOM     32  C   UNL     1      10.138   3.512   1.889  0.00  0.00    -0.004 C 
ATOM     33  C   UNL     1      10.396   2.621   0.671  0.00  0.00    -0.019 C 
ATOM     34  C   UNL     1       9.552   3.117  -0.505  0.00  0.00    -0.078 C 
ATOM     35  N   UNL     1       8.123   3.051  -0.133  0.00  0.00    +0.384 N 
ATOM     36  H   UNL     1       7.897   2.091   0.153  0.00  0.00    -0.081 HD
ENDBRANCH  29  35
ENDBRANCH   4  29
TORSDOF 8
