REMARK  Name = ZINC63515474
REMARK  9 active torsions:
REMARK  status: ('A' for Active; 'I' for Inactive)
REMARK    1  A    between atoms: C_1  and  C_2
REMARK    2  A    between atoms: C_2  and  C_3
REMARK    3  A    between atoms: C_3  and  C_4
REMARK    4  A    between atoms: C_8  and  N_11
REMARK    5  A    between atoms: C_12  and  C_14
REMARK    6  A    between atoms: N_19  and  C_21
REMARK    7  A    between atoms: C_21  and  C_22
REMARK    8  A    between atoms: C_22  and  C_23
REMARK    9  A    between atoms: C_26  and  C_32
REMARK                            x       y       z     vdW  Elec       q    Type
REMARK                         _______ _______ _______ _____ _____    ______ ____
ROOT
ATOM      1  C   UNL     1      -3.700  -5.047  -5.073  0.00  0.00    +0.101 C 
ATOM      2  C   UNL     1      -4.548  -3.800  -5.415  0.00  0.00    +0.110 C 
ATOM      3  C   UNL     1      -5.617  -4.323  -6.349  0.00  0.00    +0.216 C 
ATOM      4  O   UNL     1      -6.311  -3.633  -7.065  0.00  0.00    -0.276 OA
ATOM      5  N   UNL     1      -5.684  -5.663  -6.271  0.00  0.00    -0.300 N 
ATOM      6  C   UNL     1      -4.713  -6.191  -5.305  0.00  0.00    +0.121 C 
ENDROOT
BRANCH   1   8
ATOM      7  N   UNL     1      -2.405  -4.045  -3.219  0.00  0.00    -0.284 N 
ATOM      8  C   UNL     1      -3.245  -5.013  -3.637  0.00  0.00    +0.220 C 
ATOM      9  O   UNL     1      -3.634  -5.856  -2.857  0.00  0.00    -0.275 OA
ATOM     10  H   UNL     1      -2.094  -3.370  -3.843  0.00  0.00    +0.152 HD
BRANCH   7  14
ATOM     11  C   UNL     1      -1.413  -2.063   0.004  0.00  0.00    +0.188 C 
ATOM     12  N   UNL     1      -2.779  -2.621  -0.118  0.00  0.00    -0.175 NA
ATOM     13  N   UNL     1      -3.024  -3.489  -0.933  0.00  0.00    -0.157 NA
ATOM     14  C   UNL     1      -1.962  -4.012  -1.823  0.00  0.00    +0.275 C 
ATOM     15  S   UNL     1      -0.667  -2.718  -1.555  0.00  0.00    -0.085 S 
BRANCH  11  16
ATOM     16  C   UNL     1      -1.433  -0.534   0.013  0.00  0.00    +0.039 C 
BRANCH  16  18
ATOM     17  C   UNL     1      -0.019   1.526   0.010  0.00  0.00    +0.004 C 
ATOM     18  C   UNL     1       0.002  -0.004   0.002  0.00  0.00    -0.000 C 
ENDBRANCH  16  18
ENDBRANCH  11  16
ENDBRANCH   7  14
ENDBRANCH   1   8
BRANCH   5  19
ATOM     19  C   UNL     1      -6.607  -6.491  -7.051  0.00  0.00    +0.112 C 
BRANCH  19  20
ATOM     20  C   UNL     1      -5.944  -6.890  -8.370  0.00  0.00    +0.052 C 
BRANCH  20  21
ATOM     21  C   UNL     1      -6.894  -7.742  -9.172  0.00  0.00    -0.040 C 
ATOM     22  C   UNL     1      -7.737  -7.325 -10.145  0.00  0.00    -0.001 A 
ATOM     23  C   UNL     1      -8.011  -6.005 -10.724  0.00  0.00    +0.013 A 
ATOM     24  C   UNL     1      -8.933  -5.899 -11.709  0.00  0.00    -0.050 A 
ATOM     25  C   UNL     1      -9.630  -7.016 -12.188  0.00  0.00    +0.005 A 
ATOM     26  C   UNL     1      -9.433  -8.261 -11.706  0.00  0.00    +0.026 A 
ATOM     27  C   UNL     1      -8.487  -8.489 -10.669  0.00  0.00    +0.043 A 
ATOM     28  N   UNL     1      -8.122  -9.583 -10.045  0.00  0.00    -0.380 N 
ATOM     29  C   UNL     1      -7.094  -9.237  -9.057  0.00  0.00    +0.144 C 
ATOM     30  C   UNL     1      -9.217  -4.545 -12.306  0.00  0.00    +0.044 C 
ATOM     31  H   UNL     1      -8.470 -10.472 -10.211  0.00  0.00    +0.160 HD
ENDBRANCH  20  21
ENDBRANCH  19  20
ENDBRANCH   5  19
TORSDOF 7
