REMARK  Name = ZINC39672593
REMARK  5 active torsions:
REMARK  status: ('A' for Active; 'I' for Inactive)
REMARK    1  A    between atoms: C_1  and  C_2
REMARK    2  A    between atoms: C_5  and  C_7
REMARK    3  A    between atoms: C_7  and  N_8
REMARK    4  A    between atoms: C_9  and  C_11
REMARK    5  A    between atoms: C_22  and  C_24
REMARK                            x       y       z     vdW  Elec       q    Type
REMARK                         _______ _______ _______ _____ _____    ______ ____
ROOT
ATOM      1  C   UNL     1      -3.314  -4.857   3.917  0.00  0.00    +0.100 C 
ATOM      2  C   UNL     1      -3.836  -3.512   4.471  0.00  0.00    +0.121 C 
ATOM      3  N   UNL     1      -4.594  -3.878   5.690  0.00  0.00    -0.296 N 
ATOM      4  C   UNL     1      -3.786  -4.951   6.318  0.00  0.00    +0.115 C 
ATOM      5  C   UNL     1      -3.281  -5.798   5.133  0.00  0.00    -0.004 C 
ATOM      6  C   UNL     1      -1.856  -6.275   5.394  0.00  0.00    -0.010 C 
ATOM      7  C   UNL     1      -1.858  -7.255   6.571  0.00  0.00    -0.082 C 
ATOM      8  N   UNL     1      -2.727  -8.396   6.258  0.00  0.00    +0.379 N 
ATOM      9  C   UNL     1      -4.114  -7.941   6.099  0.00  0.00    -0.082 C 
ATOM     10  C   UNL     1      -4.207  -6.989   4.903  0.00  0.00    -0.010 C 
ATOM     11  C   UNL     1      -5.755  -3.354   6.130  0.00  0.00    +0.248 C 
ATOM     12  O   UNL     1      -6.209  -3.697   7.206  0.00  0.00    -0.270 OA
ATOM     13  H   UNL     1      -2.417  -8.829   5.401  0.00  0.00    -0.086 HD
ATOM     14  H   UNL     1      -2.679  -9.069   7.008  0.00  0.00    -0.086 HD
ENDROOT
BRANCH  11  15
ATOM     15  C   UNL     1      -6.473  -2.369   5.311  0.00  0.00    +0.052 A 
ATOM     16  C   UNL     1      -5.800  -1.474   4.543  0.00  0.00    +0.059 A 
ATOM     17  S   UNL     1      -6.983  -0.556   3.788  0.00  0.00    -0.096 S 
ATOM     18  C   UNL     1      -8.440  -1.313   4.453  0.00  0.00    +0.020 A 
ATOM     19  C   UNL     1      -7.937  -2.326   5.292  0.00  0.00    +0.001 A 
ATOM     20  C   UNL     1      -8.875  -3.125   5.973  0.00  0.00    +0.010 A 
ATOM     21  C   UNL     1     -10.220  -2.910   5.808  0.00  0.00    +0.001 A 
ATOM     22  C   UNL     1     -10.691  -1.908   4.971  0.00  0.00    +0.001 A 
ATOM     23  C   UNL     1      -9.793  -1.102   4.298  0.00  0.00    +0.015 A 
ENDBRANCH  11  15
BRANCH   1  25
ATOM     24  N   UNL     1      -1.511  -5.483   2.343  0.00  0.00    -0.309 N 
ATOM     25  C   UNL     1      -1.929  -4.687   3.348  0.00  0.00    +0.219 C 
ATOM     26  O   UNL     1      -1.190  -3.835   3.793  0.00  0.00    -0.275 OA
ATOM     27  H   UNL     1      -2.102  -6.165   1.987  0.00  0.00    +0.149 HD
BRANCH  24  28
ATOM     28  C   UNL     1      -0.165  -5.319   1.790  0.00  0.00    +0.167 C 
BRANCH  28  33
ATOM     29  C   UNL     1      -0.232  -7.024  -2.915  0.00  0.00    +0.066 C 
ATOM     30  C   UNL     1       0.049  -7.170  -1.442  0.00  0.00    +0.046 A 
ATOM     31  C   UNL     1       0.568  -8.316  -0.928  0.00  0.00    +0.070 A 
ATOM     32  S   UNL     1       0.668  -7.885   0.802  0.00  0.00    -0.079 S 
ATOM     33  C   UNL     1       0.051  -6.323   0.687  0.00  0.00    +0.096 A 
ATOM     34  N   UNL     1      -0.191  -6.191  -0.593  0.00  0.00    -0.248 NA
ENDBRANCH  28  33
ENDBRANCH  24  28
ENDBRANCH   1  25
TORSDOF 4
