REMARK  Name = ZINC04801102
REMARK  11 active torsions:
REMARK  status: ('A' for Active; 'I' for Inactive)
REMARK    1  A    between atoms: C_1  and  C_2
REMARK    2  A    between atoms: C_5  and  C_38
REMARK    3  A    between atoms: C_6  and  N_8
REMARK    4  A    between atoms: C_13  and  C_14
REMARK    5  A    between atoms: C_13  and  N_70
REMARK    6  A    between atoms: C_19  and  N_35
REMARK    7  A    between atoms: N_24  and  C_25
REMARK    8  A    between atoms: C_28  and  O_33
REMARK    9  A    between atoms: C_30  and  O_31
REMARK   10  A    between atoms: O_31  and  C_32
REMARK   11  A    between atoms: O_33  and  C_34
REMARK                            x       y       z     vdW  Elec       q    Type
REMARK                         _______ _______ _______ _____ _____    ______ ____
ROOT
ATOM      1  C   UNL     1      -3.038   4.154   1.233  0.00  0.00    +0.101 A 
ATOM      2  N   UNL     1      -4.164   4.793   1.329  0.00  0.00    -0.235 NA
ATOM      3  C   UNL     1      -4.856   5.183   0.230  0.00  0.00    +0.078 A 
ATOM      4  C   UNL     1      -6.071   5.865   0.331  0.00  0.00    +0.031 A 
ATOM      5  C   UNL     1      -6.736   6.240  -0.815  0.00  0.00    +0.035 A 
ATOM      6  C   UNL     1      -6.215   5.947  -2.068  0.00  0.00    +0.127 A 
ATOM      7  C   UNL     1      -5.028   5.279  -2.193  0.00  0.00    +0.048 A 
ATOM      8  C   UNL     1      -4.334   4.889  -1.049  0.00  0.00    +0.067 A 
ATOM      9  C   UNL     1      -3.054   4.169  -1.123  0.00  0.00    +0.266 A 
ATOM     10  O   UNL     1      -2.550   3.885  -2.194  0.00  0.00    -0.267 OA
ATOM     11  N   UNL     1      -2.459   3.834   0.045  0.00  0.00    -0.262 N 
ENDROOT
BRANCH  11  12
ATOM     12  C   UNL     1      -1.237   3.146   0.030  0.00  0.00    +0.093 A 
ATOM     13  C   UNL     1      -0.042   3.851   0.023  0.00  0.00    +0.033 A 
ATOM     14  C   UNL     1       1.161   3.174   0.008  0.00  0.00    +0.048 A 
ATOM     15  C   UNL     1       1.179   1.786   0.000  0.00  0.00    +0.124 A 
ATOM     16  C   UNL     1      -0.013   1.076   0.008  0.00  0.00    +0.093 A 
ATOM     17  C   UNL     1      -1.221   1.752   0.017  0.00  0.00    +0.147 A 
BRANCH  17  18
ATOM     18  O   UNL     1      -2.390   1.058   0.020  0.00  0.00    -0.493 OA
ATOM     19  C   UNL     1      -2.298  -0.368   0.012  0.00  0.00    +0.277 C 
ENDBRANCH  17  18
BRANCH  15  20
ATOM     20  O   UNL     1       2.365   1.122  -0.014  0.00  0.00    -0.495 OA
ATOM     21  C   UNL     1       3.553   1.916  -0.021  0.00  0.00    +0.277 C 
ENDBRANCH  15  20
ENDBRANCH  11  12
BRANCH   6  22
ATOM     22  N   UNL     1      -6.952   6.361  -3.283  0.00  0.00    +0.056 N 
ATOM     23  O   UNL     1      -6.502   6.107  -4.386  0.00  0.00    -0.126 OA
ATOM     24  O   UNL     1      -8.010   6.956  -3.180  0.00  0.00    -0.126 OA
ENDBRANCH   6  22
BRANCH   1  25
ATOM     25  C   UNL     1      -2.334   3.751   2.503  0.00  0.00    -0.003 C 
BRANCH  25  31
ATOM     26  N   UNL     1      -3.539   5.496   6.157  0.00  0.00    -0.333 N 
ATOM     27  C   UNL     1      -3.492   4.029   6.077  0.00  0.00    +0.086 C 
ATOM     28  C   UNL     1      -2.597   3.614   4.907  0.00  0.00    -0.059 C 
ATOM     29  C   UNL     1      -3.171   5.656   3.742  0.00  0.00    -0.059 C 
ATOM     30  C   UNL     1      -4.066   6.072   4.912  0.00  0.00    +0.086 C 
ATOM     31  N   UNL     1      -3.150   4.181   3.659  0.00  0.00    +0.386 N 
ATOM     32  H   UNL     1      -4.110   3.840   3.534  0.00  0.00    -0.081 HD
BRANCH  26  38
ATOM     33  C   UNL     1      -7.817   5.574   8.574  0.00  0.00    +0.044 C 
ATOM     34  C   UNL     1      -6.367   5.966   8.456  0.00  0.00    -0.049 A 
ATOM     35  C   UNL     1      -5.777   6.738   9.441  0.00  0.00    +0.004 A 
ATOM     36  C   UNL     1      -4.447   7.100   9.336  0.00  0.00    +0.005 A 
ATOM     37  C   UNL     1      -3.700   6.685   8.251  0.00  0.00    -0.029 A 
ATOM     38  C   UNL     1      -4.290   5.913   7.258  0.00  0.00    +0.033 A 
ATOM     39  C   UNL     1      -5.627   5.552   7.366  0.00  0.00    +0.026 A 
ATOM     40  C   UNL     1      -2.248   7.074   8.141  0.00  0.00    +0.045 C 
ENDBRANCH  26  38
ENDBRANCH  25  31
ENDBRANCH   1  25
TORSDOF 7
