REMARK  Name = ZINC13880400
REMARK  11 active torsions:
REMARK  status: ('A' for Active; 'I' for Inactive)
REMARK    1  A    between atoms: C_1  and  C_2
REMARK    2  A    between atoms: C_2  and  N_3
REMARK    3  A    between atoms: C_4  and  C_22
REMARK    4  A    between atoms: C_7  and  S_8
REMARK    5  A    between atoms: S_8  and  C_9
REMARK    6  A    between atoms: C_9  and  C_10
REMARK    7  A    between atoms: N_12  and  C_13
REMARK    8  A    between atoms: C_18  and  O_19
REMARK    9  A    between atoms: O_19  and  C_20
REMARK   10  A    between atoms: C_28  and  O_31
REMARK   11  A    between atoms: O_31  and  C_32
REMARK                            x       y       z     vdW  Elec       q    Type
REMARK                         _______ _______ _______ _____ _____    ______ ____
ROOT
ATOM      1  N   UNL     1      -1.088  -0.827   0.059  0.00  0.00    -0.300 N 
ATOM      2  C   UNL     1      -0.584  -2.109   0.056  0.00  0.00    +0.200 A 
ATOM      3  N   UNL     1       0.727  -2.007   0.040  0.00  0.00    -0.125 NA
ATOM      4  N   UNL     1       1.070  -0.768   0.026  0.00  0.00    -0.122 NA
ATOM      5  C   UNL     1       0.001  -0.003   0.043  0.00  0.00    +0.192 A 
ENDROOT
BRANCH   2   6
ATOM      6  C   UNL     1      -1.364  -3.356   0.069  0.00  0.00    +0.173 A 
ATOM      7  C   UNL     1      -0.874  -4.588  -0.227  0.00  0.00    +0.061 A 
ATOM      8  C   UNL     1      -1.996  -5.516  -0.082  0.00  0.00    +0.025 A 
ATOM      9  C   UNL     1      -2.144  -6.897  -0.240  0.00  0.00    +0.012 A 
ATOM     10  C   UNL     1      -3.362  -7.479  -0.030  0.00  0.00    +0.004 A 
ATOM     11  C   UNL     1      -4.455  -6.708   0.339  0.00  0.00    +0.049 A 
ATOM     12  C   UNL     1      -4.331  -5.340   0.501  0.00  0.00    +0.163 A 
ATOM     13  C   UNL     1      -3.097  -4.728   0.292  0.00  0.00    +0.177 A 
ATOM     14  O   UNL     1      -2.675  -3.448   0.369  0.00  0.00    -0.448 OA
BRANCH  12  15
ATOM     15  O   UNL     1      -5.410  -4.595   0.864  0.00  0.00    -0.491 OA
ATOM     16  C   UNL     1      -6.642  -5.291   1.062  0.00  0.00    +0.277 C 
ENDBRANCH  12  15
ENDBRANCH   2   6
BRANCH   1  18
ATOM     17  C   UNL     1      -3.008  -0.296  -1.360  0.00  0.00    +0.027 C 
ATOM     18  C   UNL     1      -2.499  -0.430   0.076  0.00  0.00    +0.122 C 
ENDBRANCH   1  18
BRANCH   5  19
ATOM     19  S   UNL     1      -0.023   1.759   0.039  0.00  0.00    -0.077 S 
BRANCH  19  20
ATOM     20  C   UNL     1       1.756   2.097   0.016  0.00  0.00    +0.173 C 
BRANCH  20  21
ATOM     21  C   UNL     1       1.984   3.587   0.010  0.00  0.00    +0.228 C 
ATOM     22  O   UNL     1       1.038   4.345   0.020  0.00  0.00    -0.275 OA
ATOM     23  N   UNL     1       3.240   4.076  -0.007  0.00  0.00    -0.282 N 
ATOM     24  H   UNL     1       3.996   3.471   0.050  0.00  0.00    +0.155 HD
BRANCH  23  25
ATOM     25  C   UNL     1       3.452   5.457  -0.107  0.00  0.00    +0.077 A 
ATOM     26  C   UNL     1       2.571   6.342   0.496  0.00  0.00    +0.047 A 
ATOM     27  C   UNL     1       2.782   7.705   0.396  0.00  0.00    +0.043 A 
ATOM     28  C   UNL     1       3.873   8.188  -0.306  0.00  0.00    +0.024 A 
ATOM     29  C   UNL     1       4.755   7.312  -0.910  0.00  0.00    +0.049 A 
ATOM     30  C   UNL     1       4.552   5.945  -0.809  0.00  0.00    +0.141 A 
ATOM     31 CL   UNL     1       1.679   8.811   1.152  0.00  0.00    -0.083 Cl
BRANCH  30  32
ATOM     32  O   UNL     1       5.422   5.082  -1.398  0.00  0.00    -0.493 OA
ATOM     33  C   UNL     1       6.527   5.654  -2.100  0.00  0.00    +0.277 C 
ENDBRANCH  30  32
ENDBRANCH  23  25
ENDBRANCH  20  21
ENDBRANCH  19  20
ENDBRANCH   5  19
TORSDOF 8
