REMARK  Name = ZINC12502378
REMARK  12 active torsions:
REMARK  status: ('A' for Active; 'I' for Inactive)
REMARK    1  A    between atoms: C_1  and  C_2
REMARK    2  A    between atoms: C_2  and  C_4
REMARK    3  A    between atoms: C_2  and  N_69
REMARK    4  A    between atoms: N_6  and  C_7
REMARK    5  A    between atoms: C_7  and  C_9
REMARK    6  A    between atoms: C_7  and  C_31
REMARK    7  A    between atoms: C_15  and  C_17
REMARK    8  A    between atoms: N_19  and  C_20
REMARK    9  A    between atoms: C_31  and  C_32
REMARK   10  A    between atoms: C_31  and  C_33
REMARK   11  A    between atoms: C_31  and  C_34
REMARK   12  A    between atoms: C_35  and  N_69
REMARK                            x       y       z     vdW  Elec       q    Type
REMARK                         _______ _______ _______ _____ _____    ______ ____
ROOT
ATOM      1  C   UNL     1       2.132   1.206   3.105  0.00  0.00    +0.237 C 
ATOM      2  O   UNL     1       3.183   0.644   2.884  0.00  0.00    -0.274 OA
ATOM      3  N   UNL     1       1.989   2.512   2.803  0.00  0.00    -0.288 N 
ATOM      4  C   UNL     1       0.745   3.288   2.920  0.00  0.00    +0.109 C 
ATOM      5  C   UNL     1       1.053   4.722   2.441  0.00  0.00    +0.021 C 
ATOM      6  C   UNL     1       2.308   4.529   1.550  0.00  0.00    +0.033 C 
ATOM      7  C   UNL     1       3.055   3.401   2.308  0.00  0.00    +0.162 C 
ENDROOT
BRANCH   7   8
ATOM      8  C   UNL     1       3.967   2.654   1.369  0.00  0.00    +0.234 C 
ATOM      9  O   UNL     1       3.531   1.744   0.696  0.00  0.00    -0.274 OA
ATOM     10  N   UNL     1       5.267   2.996   1.277  0.00  0.00    -0.307 N 
ATOM     11  H   UNL     1       5.617   3.724   1.816  0.00  0.00    +0.149 HD
BRANCH  10  12
ATOM     12  C   UNL     1       6.154   2.270   0.365  0.00  0.00    +0.103 C 
ATOM     13  C   UNL     1       7.589   2.360   0.878  0.00  0.00    +0.027 C 
ATOM     14  C   UNL     1       8.524   1.787  -0.193  0.00  0.00    +0.007 C 
ATOM     15  C   UNL     1       8.546   2.750  -1.379  0.00  0.00    +0.035 C 
ATOM     16  C   UNL     1       7.143   3.082  -1.817  0.00  0.00    -0.042 A 
ATOM     17  C   UNL     1       6.045   2.868  -1.014  0.00  0.00    -0.024 A 
ATOM     18  C   UNL     1       4.780   3.209  -1.473  0.00  0.00    +0.006 A 
ATOM     19  C   UNL     1       4.614   3.756  -2.729  0.00  0.00    +0.000 A 
ATOM     20  C   UNL     1       5.715   3.966  -3.537  0.00  0.00    +0.000 A 
ATOM     21  C   UNL     1       6.974   3.629  -3.082  0.00  0.00    +0.004 A 
ENDBRANCH  10  12
ENDBRANCH   7   8
BRANCH   1  22
ATOM     22  C   UNL     1       0.984   0.445   3.716  0.00  0.00    +0.164 C 
BRANCH  22  25
ATOM     23  C   UNL     1       0.677  -0.825   5.774  0.00  0.00    +0.199 C 
ATOM     24  O   UNL     1      -0.474  -0.444   5.803  0.00  0.00    -0.278 OA
ATOM     25  N   UNL     1       1.490  -0.437   4.771  0.00  0.00    -0.305 N 
ATOM     26  H   UNL     1       2.411  -0.742   4.748  0.00  0.00    +0.149 HD
BRANCH  23  28
ATOM     27  C   UNL     1       1.673  -3.048   6.238  0.00  0.00    -0.004 C 
ATOM     28  C   UNL     1       1.198  -1.732   6.858  0.00  0.00    +0.012 C 
BRANCH  28  30
ATOM     29  C   UNL     1       0.679  -2.353   9.140  0.00  0.00    -0.099 C 
ATOM     30  N   UNL     1       0.115  -2.005   7.822  0.00  0.00    +0.385 N 
ATOM     31  H   UNL     1      -0.453  -2.788   7.480  0.00  0.00    -0.085 HD
ATOM     32  H   UNL     1      -0.474  -1.169   7.916  0.00  0.00    -0.085 HD
ENDBRANCH  28  30
ENDBRANCH  23  28
ENDBRANCH  22  25
BRANCH  22  33
ATOM     33  C   UNL     1       0.296  -0.394   2.637  0.00  0.00    -0.011 C 
ATOM     34  C   UNL     1       1.278  -1.435   2.097  0.00  0.00    +0.013 C 
ATOM     35  C   UNL     1      -0.160   0.518   1.497  0.00  0.00    +0.013 C 
ATOM     36  C   UNL     1      -0.919  -1.103   3.240  0.00  0.00    +0.013 C 
ENDBRANCH  22  33
ENDBRANCH   1  22
TORSDOF 7
