REMARK  Name = ZINC38619424
REMARK  12 active torsions:
REMARK  status: ('A' for Active; 'I' for Inactive)
REMARK    1  A    between atoms: C_1  and  C_2
REMARK    2  A    between atoms: C_2  and  O_3
REMARK    3  A    between atoms: O_3  and  C_4
REMARK    4  A    between atoms: C_7  and  S_11
REMARK    5  A    between atoms: S_11  and  N_14
REMARK    6  A    between atoms: N_14  and  C_15
REMARK    7  A    between atoms: C_15  and  C_16
REMARK    8  A    between atoms: C_16  and  C_18
REMARK    9  A    between atoms: C_16  and  N_23
REMARK   10  A    between atoms: N_26  and  C_29
REMARK   11  A    between atoms: C_32  and  O_35
REMARK   12  A    between atoms: O_35  and  C_36
REMARK                            x       y       z     vdW  Elec       q    Type
REMARK                         _______ _______ _______ _____ _____    ______ ____
ROOT
ATOM      1  C   UNL     1       4.966  -7.510   1.075  0.00  0.00    +0.139 C 
ENDROOT
BRANCH   1   2
ATOM      2  N   UNL     1       5.064  -7.589  -0.389  0.00  0.00    -0.289 NA
ATOM      3  C   UNL     1       5.769  -6.421  -0.934  0.00  0.00    +0.104 C 
ATOM      4  C   UNL     1       5.692  -6.450  -2.464  0.00  0.00    +0.120 C 
ATOM      5  N   UNL     1       6.189  -7.752  -2.933  0.00  0.00    -0.327 N 
ATOM      6  C   UNL     1       5.625  -8.970  -2.332  0.00  0.00    +0.120 C 
ATOM      7  C   UNL     1       5.706  -8.842  -0.807  0.00  0.00    +0.104 C 
BRANCH   5   8
ATOM      8  C   UNL     1       7.173  -7.830  -3.925  0.00  0.00    +0.030 A 
ATOM      9  C   UNL     1       7.707  -9.062  -4.279  0.00  0.00    +0.027 A 
ATOM     10  C   UNL     1       8.678  -9.138  -5.258  0.00  0.00    +0.047 A 
ATOM     11  C   UNL     1       9.119  -7.984  -5.889  0.00  0.00    +0.120 A 
ATOM     12  C   UNL     1       8.586  -6.753  -5.537  0.00  0.00    +0.047 A 
ATOM     13  C   UNL     1       7.611  -6.676  -4.561  0.00  0.00    +0.027 A 
BRANCH  11  14
ATOM     14  O   UNL     1      10.074  -8.059  -6.854  0.00  0.00    -0.495 OA
ATOM     15  C   UNL     1      10.481  -6.832  -7.462  0.00  0.00    +0.277 C 
ENDBRANCH  11  14
ENDBRANCH   5   8
ENDBRANCH   1   2
BRANCH   1  16
ATOM     16  C   UNL     1       6.344  -7.617   1.676  0.00  0.00    +0.123 A 
ATOM     17  C   UNL     1       6.696  -8.418   2.697  0.00  0.00    +0.046 A 
ATOM     18  C   UNL     1       8.073  -8.200   2.933  0.00  0.00    +0.041 A 
ATOM     19  C   UNL     1       8.480  -7.278   2.042  0.00  0.00    +0.195 A 
ATOM     20  O   UNL     1       7.430  -6.933   1.279  0.00  0.00    -0.466 OA
ENDBRANCH   1  16
BRANCH   1  21
ATOM     21  C   UNL     1       4.339  -6.172   1.472  0.00  0.00    +0.132 C 
BRANCH  21  22
ATOM     22  N   UNL     1       3.051  -6.016   0.792  0.00  0.00    -0.188 NA
ATOM     23  H   UNL     1       2.825  -6.589   0.043  0.00  0.00    +0.148 HD
BRANCH  22  24
ATOM     24  S   UNL     1       1.980  -4.860   1.302  0.00  0.00    +0.059 S 
ATOM     25  O   UNL     1       1.870  -5.003   2.712  0.00  0.00    -0.153 OA
ATOM     26  O   UNL     1       0.855  -4.939   0.438  0.00  0.00    -0.153 OA
BRANCH  24  30
ATOM     27  C   UNL     1       3.903  -0.828   0.554  0.00  0.00    +0.156 A 
ATOM     28  C   UNL     1       3.119  -1.417  -0.426  0.00  0.00    +0.050 A 
ATOM     29  C   UNL     1       2.533  -2.647  -0.195  0.00  0.00    +0.032 A 
ATOM     30  C   UNL     1       2.728  -3.292   1.012  0.00  0.00    +0.108 A 
ATOM     31  C   UNL     1       3.510  -2.708   1.992  0.00  0.00    +0.070 A 
ATOM     32  C   UNL     1       4.103  -1.480   1.764  0.00  0.00    +0.167 A 
ATOM     33  F   UNL     1       4.871  -0.911   2.719  0.00  0.00    -0.202 F 
BRANCH  27  34
ATOM     34  O   UNL     1       4.479   0.383   0.329  0.00  0.00    -0.489 OA
BRANCH  34  36
ATOM     35  C   UNL     1       4.956   2.340  -1.007  0.00  0.00    +0.048 C 
ATOM     36  C   UNL     1       4.230   0.994  -0.939  0.00  0.00    +0.226 C 
ENDBRANCH  34  36
ENDBRANCH  27  34
ENDBRANCH  24  30
ENDBRANCH  22  24
ENDBRANCH  21  22
ENDBRANCH   1  21
TORSDOF 10
