REMARK  Name = ZINC39211752
REMARK  4 active torsions:
REMARK  status: ('A' for Active; 'I' for Inactive)
REMARK    1  A    between atoms: C_5  and  O_7
REMARK    2  A    between atoms: N_24  and  C_25
REMARK    3  A    between atoms: C_25  and  C_26
REMARK    4  A    between atoms: C_26  and  C_27
REMARK                            x       y       z     vdW  Elec       q    Type
REMARK                         _______ _______ _______ _____ _____    ______ ____
ROOT
ATOM      1  C   UNL     1      -0.017   1.377   0.010  0.00  0.00    +0.004 A 
ATOM      2  C   UNL     1       1.172   2.079   0.002  0.00  0.00    +0.004 A 
ATOM      3  C   UNL     1       2.387   1.408  -0.019  0.00  0.00    -0.036 A 
ATOM      4  C   UNL     1       2.413   0.034  -0.040  0.00  0.00    -0.002 A 
ATOM      5  C   UNL     1       1.213  -0.675  -0.022  0.00  0.00    +0.120 A 
ATOM      6  C   UNL     1       0.002  -0.004   0.002  0.00  0.00    +0.046 A 
ATOM      7  C   UNL     1       3.691  -0.758  -0.105  0.00  0.00    +0.044 C 
ATOM      8  C   UNL     1       4.909   0.101   0.184  0.00  0.00    +0.011 C 
ATOM      9  C   UNL     1       4.813   1.424  -0.573  0.00  0.00    +0.015 C 
ATOM     10  C   UNL     1       3.649   2.237  -0.004  0.00  0.00    +0.037 C 
ATOM     11  C   UNL     1       3.968   2.574   1.463  0.00  0.00    +0.116 C 
ATOM     12  N   UNL     1       4.128   1.298   2.179  0.00  0.00    -0.299 N 
ATOM     13  C   UNL     1       5.097   0.346   1.674  0.00  0.00    +0.111 C 
ATOM     14  C   UNL     1       3.373   1.019   3.300  0.00  0.00    +0.223 A 
ATOM     15  N   UNL     1       2.484   1.903   3.741  0.00  0.00    -0.181 NA
ATOM     16  C   UNL     1       1.758   1.630   4.819  0.00  0.00    +0.221 A 
ATOM     17  N   UNL     1       1.923   0.472   5.455  0.00  0.00    -0.184 NA
ATOM     18  C   UNL     1       2.808  -0.406   5.013  0.00  0.00    +0.229 A 
ATOM     19  N   UNL     1       3.528  -0.140   3.936  0.00  0.00    -0.184 NA
ATOM     20 CL   UNL     1       3.019  -1.915   5.845  0.00  0.00    -0.041 Cl
ATOM     21  N   UNL     1       0.836   2.546   5.281  0.00  0.00    -0.313 N 
ATOM     22  H   UNL     1       0.717   3.390   4.818  0.00  0.00    +0.149 HD
ENDROOT
BRANCH   5  23
ATOM     23  O   UNL     1       1.231  -2.034  -0.027  0.00  0.00    -0.506 OA
ATOM     24  H   UNL     1       1.252  -2.431   0.854  0.00  0.00    +0.292 HD
ENDBRANCH   5  23
BRANCH  21  25
ATOM     25  C   UNL     1       0.035   2.244   6.471  0.00  0.00    +0.108 C 
BRANCH  25  26
ATOM     26  C   UNL     1      -0.902   3.417   6.766  0.00  0.00    +0.049 C 
BRANCH  26  27
ATOM     27  C   UNL     1      -1.725   3.106   7.989  0.00  0.00    -0.072 C 
ATOM     28  C   UNL     1      -1.305   3.548   9.131  0.00  0.00    -0.028 C 
ATOM     29  C   UNL     1      -2.009   3.311  10.435  0.00  0.00    +0.027 C 
ATOM     30  C   UNL     1      -3.453   2.871  10.182  0.00  0.00    +0.004 C 
ATOM     31  C   UNL     1      -3.441   1.735   9.151  0.00  0.00    +0.005 C 
ATOM     32  C   UNL     1      -2.984   2.309   7.807  0.00  0.00    +0.030 C 
ENDBRANCH  26  27
ENDBRANCH  25  26
ENDBRANCH  21  25
TORSDOF 4
