REMARK  Name = ZINC38737337
REMARK  7 active torsions:
REMARK  status: ('A' for Active; 'I' for Inactive)
REMARK    1  A    between atoms: C_7  and  C_10
REMARK    2  A    between atoms: C_10  and  C_11
REMARK    3  A    between atoms: C_11  and  N_12
REMARK    4  A    between atoms: C_13  and  C_15
REMARK    5  A    between atoms: C_18  and  N_21
REMARK    6  A    between atoms: C_22  and  N_33
REMARK    7  A    between atoms: C_24  and  C_26
REMARK                            x       y       z     vdW  Elec       q    Type
REMARK                         _______ _______ _______ _____ _____    ______ ____
ROOT
ATOM      1  C   UNL     1      -5.649   7.097  -2.507  0.00  0.00    +0.037 A 
ATOM      2  C   UNL     1      -5.982   7.709  -1.296  0.00  0.00    +0.015 A 
ATOM      3  C   UNL     1      -6.476   8.994  -1.288  0.00  0.00    +0.028 A 
ATOM      4  C   UNL     1      -6.643   9.684  -2.484  0.00  0.00    +0.067 A 
ATOM      5  C   UNL     1      -6.312   9.078  -3.692  0.00  0.00    +0.028 A 
ATOM      6  C   UNL     1      -5.813   7.795  -3.707  0.00  0.00    +0.015 A 
ENDROOT
BRANCH   4   7
ATOM      7  N   UNL     1      -7.144  10.988  -2.473  0.00  0.00    -0.218 N 
ATOM      8  C   UNL     1      -6.786  11.992  -3.322  0.00  0.00    +0.120 A 
ATOM      9  C   UNL     1      -7.500  13.096  -2.979  0.00  0.00    +0.073 A 
ATOM     10  C   UNL     1      -8.320  12.757  -1.886  0.00  0.00    +0.095 A 
ATOM     11  N   UNL     1      -8.108  11.491  -1.590  0.00  0.00    -0.165 NA
BRANCH  10  12
ATOM     12  C   UNL     1      -9.265  13.666  -1.192  0.00  0.00    +0.004 A 
ATOM     13  C   UNL     1      -9.403  14.986  -1.616  0.00  0.00    +0.010 A 
ATOM     14  C   UNL     1     -10.284  15.828  -0.967  0.00  0.00    +0.002 A 
ATOM     15  C   UNL     1     -11.028  15.364   0.102  0.00  0.00    +0.020 A 
ATOM     16  C   UNL     1     -10.895  14.054   0.528  0.00  0.00    +0.042 A 
ATOM     17  C   UNL     1     -10.021  13.201  -0.118  0.00  0.00    +0.030 A 
ATOM     18 CL   UNL     1     -11.833  13.479   1.871  0.00  0.00    -0.084 Cl
ENDBRANCH  10  12
BRANCH   8  19
ATOM     19  N   UNL     1      -5.857  11.902  -4.354  0.00  0.00    -0.343 N 
ATOM     20  H   UNL     1      -5.396  11.064  -4.521  0.00  0.00    +0.144 HD
ATOM     21  H   UNL     1      -5.669  12.676  -4.907  0.00  0.00    +0.144 HD
ENDBRANCH   8  19
ENDBRANCH   4   7
BRANCH   1  23
ATOM     22  N   UNL     1      -4.962   5.047  -1.362  0.00  0.00    -0.311 N 
ATOM     23  C   UNL     1      -5.120   5.719  -2.519  0.00  0.00    +0.244 C 
ATOM     24  O   UNL     1      -4.826   5.190  -3.574  0.00  0.00    -0.270 OA
ATOM     25  H   UNL     1      -5.197   5.469  -0.520  0.00  0.00    +0.149 HD
BRANCH  22  26
ATOM     26  C   UNL     1      -4.437   3.680  -1.374  0.00  0.00    +0.109 C 
BRANCH  26  27
ATOM     27  C   UNL     1      -4.358   3.151   0.060  0.00  0.00    +0.056 C 
BRANCH  27  34
ATOM     28  C   UNL     1      -0.017   1.384   0.010  0.00  0.00    +0.001 A 
ATOM     29  C   UNL     1       0.002  -0.004   0.002  0.00  0.00    +0.002 A 
ATOM     30  C   UNL     1      -1.173  -0.723   0.009  0.00  0.00    +0.026 A 
ATOM     31  C   UNL     1      -2.392  -0.053   0.024  0.00  0.00    +0.047 A 
ATOM     32  N   UNL     1      -3.704  -0.472   0.034  0.00  0.00    -0.360 N 
ATOM     33  C   UNL     1      -4.539   0.612   0.047  0.00  0.00    +0.087 A 
ATOM     34  C   UNL     1      -3.818   1.744   0.047  0.00  0.00    -0.021 A 
ATOM     35  C   UNL     1      -2.406   1.353   0.032  0.00  0.00    +0.003 A 
ATOM     36  C   UNL     1      -1.203   2.062   0.030  0.00  0.00    +0.010 A 
ATOM     37  H   UNL     1      -3.993  -1.398   0.030  0.00  0.00    +0.165 HD
ENDBRANCH  27  34
ENDBRANCH  26  27
ENDBRANCH  22  26
ENDBRANCH   1  23
TORSDOF 7
