REMARK  Name = ZINC18255121
REMARK  6 active torsions:
REMARK  status: ('A' for Active; 'I' for Inactive)
REMARK    1  A    between atoms: C_1  and  C_2
REMARK    2  A    between atoms: C_2  and  O_3
REMARK    3  A    between atoms: O_3  and  C_4
REMARK    4  A    between atoms: C_7  and  N_10
REMARK    5  A    between atoms: C_16  and  C_17
REMARK    6  A    between atoms: C_20  and  N_22
REMARK                            x       y       z     vdW  Elec       q    Type
REMARK                         _______ _______ _______ _____ _____    ______ ____
ROOT
ATOM      1  N   UNL     1      -1.985  -5.961  -0.010  0.00  0.00    -0.226 NA
ATOM      2  C   UNL     1      -2.858  -6.524   0.797  0.00  0.00    +0.166 C 
ATOM      3  N   UNL     1      -3.703  -5.926   1.711  0.00  0.00    -0.260 N 
ATOM      4  C   UNL     1      -4.519  -6.667   2.441  0.00  0.00    +0.257 C 
ATOM      5  O   UNL     1      -5.270  -6.154   3.251  0.00  0.00    -0.269 OA
ATOM      6  C   UNL     1      -4.500  -8.077   2.258  0.00  0.00    +0.081 C 
ATOM      7  C   UNL     1      -5.245  -9.048   2.890  0.00  0.00    +0.066 C 
ATOM      8  S   UNL     1      -3.259  -8.254   0.985  0.00  0.00    -0.049 S 
ATOM      9  H   UNL     1      -3.698  -4.962   1.818  0.00  0.00    +0.157 HD
ENDROOT
BRANCH   1  13
ATOM     10  C   UNL     1      -1.498  -1.849   0.006  0.00  0.00    +0.121 A 
ATOM     11  C   UNL     1      -0.385  -2.678  -0.003  0.00  0.00    +0.048 A 
ATOM     12  C   UNL     1      -0.542  -4.048  -0.008  0.00  0.00    +0.031 A 
ATOM     13  C   UNL     1      -1.824  -4.601  -0.004  0.00  0.00    +0.067 A 
ATOM     14  C   UNL     1      -2.942  -3.764   0.005  0.00  0.00    +0.031 A 
ATOM     15  C   UNL     1      -2.775  -2.395   0.016  0.00  0.00    +0.048 A 
BRANCH  10  16
ATOM     16  O   UNL     1      -1.339  -0.499   0.012  0.00  0.00    -0.492 OA
BRANCH  16  18
ATOM     17  C   UNL     1      -0.019   1.526   0.010  0.00  0.00    +0.048 C 
ATOM     18  C   UNL     1       0.002  -0.004   0.002  0.00  0.00    +0.225 C 
ENDBRANCH  16  18
ENDBRANCH  10  16
ENDBRANCH   1  13
BRANCH   7  19
ATOM     19  C   UNL     1      -5.066 -10.403   2.554  0.00  0.00    +0.131 A 
ATOM     20  C   UNL     1      -5.747 -11.476   3.103  0.00  0.00    +0.051 A 
ATOM     21  C   UNL     1      -5.254 -12.626   2.479  0.00  0.00    +0.066 A 
ATOM     22  C   UNL     1      -4.304 -12.225   1.586  0.00  0.00    +0.189 A 
ATOM     23  O   UNL     1      -4.202 -10.887   1.633  0.00  0.00    -0.442 OA
BRANCH  22  24
ATOM     24  N   UNL     1      -3.572 -13.059   0.764  0.00  0.00    -0.301 N 
ATOM     25  C   UNL     1      -3.691 -14.523   0.702  0.00  0.00    +0.108 C 
ATOM     26  C   UNL     1      -2.663 -15.023  -0.334  0.00  0.00    +0.020 C 
ATOM     27  C   UNL     1      -1.630 -13.866  -0.385  0.00  0.00    +0.020 C 
ATOM     28  C   UNL     1      -2.545 -12.627  -0.202  0.00  0.00    +0.108 C 
ENDBRANCH  22  24
ENDBRANCH   7  19
TORSDOF 5
