REMARK  Name = ZINC40161879
REMARK  9 active torsions:
REMARK  status: ('A' for Active; 'I' for Inactive)
REMARK    1  A    between atoms: C_1  and  C_2
REMARK    2  A    between atoms: C_15  and  C_17
REMARK    3  A    between atoms: C_17  and  O_18
REMARK    4  A    between atoms: O_18  and  C_19
REMARK    5  A    between atoms: C_19  and  C_21
REMARK    6  A    between atoms: C_21  and  C_22
REMARK    7  A    between atoms: C_22  and  N_23
REMARK    8  A    between atoms: N_23  and  S_24
REMARK    9  A    between atoms: S_24  and  C_27
REMARK                            x       y       z     vdW  Elec       q    Type
REMARK                         _______ _______ _______ _____ _____    ______ ____
ROOT
ATOM      1  C   UNL     1       0.323  -2.388   5.593  0.00  0.00    +0.309 C 
ATOM      2  O   UNL     1       1.518  -2.418   5.766  0.00  0.00    -0.251 OA
ENDROOT
BRANCH   1   3
ATOM      3  O   UNL     1      -0.177  -1.912   4.442  0.00  0.00    -0.455 OA
BRANCH   3   4
ATOM      4  C   UNL     1       0.762  -1.460   3.464  0.00  0.00    +0.328 C 
BRANCH   4  18
ATOM      5  C   UNL     1      -0.019   1.526   0.010  0.00  0.00    +0.029 C 
ATOM      6  C   UNL     1       0.002  -0.004   0.002  0.00  0.00    +0.087 C 
ATOM      7  C   UNL     1       0.715  -0.496  -1.259  0.00  0.00    +0.118 C 
ATOM      8  C   UNL     1       1.097  -1.944  -1.106  0.00  0.00    +0.219 C 
ATOM      9  O   UNL     1       0.459  -2.800  -1.683  0.00  0.00    -0.275 OA
ATOM     10  N   UNL     1       2.146  -2.297  -0.332  0.00  0.00    -0.284 N 
ATOM     11  C   UNL     1       2.832  -1.333   0.416  0.00  0.00    +0.055 A 
ATOM     12  C   UNL     1       4.214  -1.255   0.377  0.00  0.00    +0.025 A 
ATOM     13  C   UNL     1       4.871  -0.309   1.143  0.00  0.00    +0.002 A 
ATOM     14  C   UNL     1       4.154   0.557   1.947  0.00  0.00    +0.002 A 
ATOM     15  C   UNL     1       2.773   0.492   1.984  0.00  0.00    +0.025 A 
ATOM     16  C   UNL     1       2.107  -0.445   1.211  0.00  0.00    +0.058 A 
ATOM     17  N   UNL     1       0.707  -0.488   1.190  0.00  0.00    -0.264 N 
ATOM     18  C   UNL     1       0.022  -0.966   2.248  0.00  0.00    +0.258 C 
ATOM     19  O   UNL     1      -1.190  -0.998   2.221  0.00  0.00    -0.271 OA
ATOM     20  H   UNL     1       2.425  -3.225  -0.293  0.00  0.00    +0.155 HD
ENDBRANCH   4  18
ENDBRANCH   3   4
ENDBRANCH   1   3
BRANCH   1  21
ATOM     21  C   UNL     1      -0.607  -2.883   6.671  0.00  0.00    +0.137 C 
BRANCH  21  22
ATOM     22  C   UNL     1       0.213  -3.366   7.869  0.00  0.00    +0.117 C 
BRANCH  22  23
ATOM     23  N   UNL     1      -0.690  -3.848   8.917  0.00  0.00    -0.189 NA
ATOM     24  H   UNL     1      -1.635  -3.630   8.880  0.00  0.00    +0.148 HD
BRANCH  23  25
ATOM     25  S   UNL     1      -0.099  -4.764  10.163  0.00  0.00    +0.058 S 
ATOM     26  O   UNL     1      -1.200  -5.048  11.016  0.00  0.00    -0.153 OA
ATOM     27  O   UNL     1       0.693  -5.787   9.575  0.00  0.00    -0.153 OA
BRANCH  25  28
ATOM     28  C   UNL     1       1.001  -3.743  11.085  0.00  0.00    +0.106 A 
ATOM     29  C   UNL     1       2.351  -3.700  10.738  0.00  0.00    +0.029 A 
ATOM     30  C   UNL     1       3.227  -2.922  11.430  0.00  0.00    +0.010 A 
ATOM     31  C   UNL     1       2.768  -2.148  12.509  0.00  0.00    -0.018 A 
ATOM     32  C   UNL     1       3.643  -1.332  13.246  0.00  0.00    +0.008 A 
ATOM     33  C   UNL     1       3.163  -0.596  14.286  0.00  0.00    +0.001 A 
ATOM     34  C   UNL     1       1.813  -0.638  14.632  0.00  0.00    +0.001 A 
ATOM     35  C   UNL     1       0.937  -1.417  13.940  0.00  0.00    +0.008 A 
ATOM     36  C   UNL     1       1.396  -2.191  12.861  0.00  0.00    -0.016 A 
ATOM     37  C   UNL     1       0.520  -3.003  12.120  0.00  0.00    +0.037 A 
ENDBRANCH  25  28
ENDBRANCH  23  25
ENDBRANCH  22  23
ENDBRANCH  21  22
ENDBRANCH   1  21
TORSDOF 8
