REMARK  Name = ZINC41760059
REMARK  7 active torsions:
REMARK  status: ('A' for Active; 'I' for Inactive)
REMARK    1  A    between atoms: C_1  and  C_2
REMARK    2  A    between atoms: C_2  and  C_3
REMARK    3  A    between atoms: C_3  and  C_4
REMARK    4  A    between atoms: C_3  and  C_11
REMARK    5  A    between atoms: C_3  and  N_14
REMARK    6  A    between atoms: N_14  and  C_15
REMARK    7  A    between atoms: C_15  and  C_16
REMARK                            x       y       z     vdW  Elec       q    Type
REMARK                         _______ _______ _______ _____ _____    ______ ____
ROOT
ATOM      1  C   UNL     1       0.729  -0.505  -1.257  0.00  0.00    +0.062 C 
ENDROOT
BRANCH   1   2
ATOM      2  C   UNL     1       2.154  -0.056  -1.454  0.00  0.00    -0.048 A 
ATOM      3  C   UNL     1       2.461   0.856  -2.447  0.00  0.00    +0.004 A 
ATOM      4  C   UNL     1       3.768   1.268  -2.627  0.00  0.00    +0.015 A 
ATOM      5  C   UNL     1       4.769   0.768  -1.813  0.00  0.00    +0.018 A 
ATOM      6  C   UNL     1       4.462  -0.144  -0.820  0.00  0.00    +0.015 A 
ATOM      7  C   UNL     1       3.154  -0.552  -0.637  0.00  0.00    +0.004 A 
ATOM      8 BR   UNL     1       6.558   1.331  -2.060  0.00  0.00    -0.050 Br
ENDBRANCH   1   2
BRANCH   1   9
ATOM      9  C   UNL     1       0.643  -1.998  -1.441  0.00  0.00    +0.350 C 
ATOM     10  O   UNL     1       0.031  -2.461  -2.389  0.00  0.00    -0.248 OA
ATOM     11  O   UNL     1       1.184  -2.743  -0.642  0.00  0.00    -0.248 OA
ENDBRANCH   1   9
BRANCH   1  12
ATOM     12  N   UNL     1      -0.134   0.161  -2.242  0.00  0.00    +0.398 N 
ATOM     13  H   UNL     1      -0.006   1.160  -2.181  0.00  0.00    -0.083 HD
ATOM     14  H   UNL     1       0.110  -0.153  -3.170  0.00  0.00    -0.083 HD
BRANCH  12  15
ATOM     15  C   UNL     1      -1.538  -0.170  -1.966  0.00  0.00    +0.017 C 
BRANCH  15  16
ATOM     16  C   UNL     1      -2.412   0.404  -3.051  0.00  0.00    +0.193 C 
ATOM     17  O   UNL     1      -1.915   1.028  -3.964  0.00  0.00    -0.278 OA
ATOM     18  N   UNL     1      -3.747   0.224  -3.006  0.00  0.00    -0.331 N 
ATOM     19  H   UNL     1      -4.145  -0.275  -2.276  0.00  0.00    +0.145 HD
ATOM     20  H   UNL     1      -4.310   0.594  -3.704  0.00  0.00    +0.145 HD
ENDBRANCH  15  16
ENDBRANCH  12  15
ENDBRANCH   1  12
BRANCH   1  22
ATOM     21  C   UNL     1       0.238   1.385   0.301  0.00  0.00    +0.003 C 
ATOM     22  C   UNL     1       0.269  -0.137   0.155  0.00  0.00    +0.000 C 
ENDBRANCH   1  22
TORSDOF 6
