REMARK  Name = ZINC51056809
REMARK  11 active torsions:
REMARK  status: ('A' for Active; 'I' for Inactive)
REMARK    1  A    between atoms: C_1  and  C_2
REMARK    2  A    between atoms: C_2  and  C_3
REMARK    3  A    between atoms: C_3  and  C_4
REMARK    4  A    between atoms: C_4  and  C_6
REMARK    5  A    between atoms: C_4  and  N_7
REMARK    6  A    between atoms: C_8  and  C_10
REMARK    7  A    between atoms: N_15  and  C_17
REMARK    8  A    between atoms: C_17  and  C_19
REMARK    9  A    between atoms: C_17  and  C_20
REMARK   10  A    between atoms: N_22  and  C_23
REMARK   11  A    between atoms: C_26  and  C_29
REMARK                            x       y       z     vdW  Elec       q    Type
REMARK                         _______ _______ _______ _____ _____    ______ ____
ROOT
ATOM      1  C   UNL     1       1.878  -7.334  -3.651  0.00  0.00    +0.016 C 
ATOM      2  C   UNL     1       0.569  -6.639  -4.033  0.00  0.00    -0.004 C 
ENDROOT
BRANCH   1   7
ATOM      3  C   UNL     1       2.848  -4.851  -1.008  0.00  0.00    +0.058 C 
ATOM      4  C   UNL     1       4.152  -5.507  -0.545  0.00  0.00    +0.009 C 
ATOM      5  C   UNL     1       4.874  -6.098  -1.758  0.00  0.00    -0.018 C 
ATOM      6  C   UNL     1       3.946  -7.090  -2.464  0.00  0.00    -0.078 C 
ATOM      7  N   UNL     1       2.730  -6.397  -2.906  0.00  0.00    +0.388 N 
ATOM      8  C   UNL     1       1.994  -5.888  -1.742  0.00  0.00    -0.065 C 
ATOM      9  H   UNL     1       2.982  -5.626  -3.506  0.00  0.00    -0.081 HD
BRANCH   3  11
ATOM     10  N   UNL     1       2.653  -3.406   0.990  0.00  0.00    -0.313 N 
ATOM     11  C   UNL     1       2.092  -4.333   0.188  0.00  0.00    +0.215 C 
ATOM     12  O   UNL     1       0.979  -4.750   0.429  0.00  0.00    -0.276 OA
ATOM     13  H   UNL     1       3.543  -3.072   0.797  0.00  0.00    +0.149 HD
BRANCH  10  14
ATOM     14  C   UNL     1       1.918  -2.902   2.153  0.00  0.00    +0.070 C 
ATOM     15  C   UNL     1       2.132  -3.845   3.339  0.00  0.00    +0.028 C 
BRANCH  14  16
ATOM     16  C   UNL     1       2.428  -1.506   2.513  0.00  0.00    +0.022 C 
BRANCH  16  18
ATOM     17  C   UNL     1       2.613   0.862   1.736  0.00  0.00    +0.004 C 
ATOM     18  C   UNL     1       2.102  -0.535   1.376  0.00  0.00    -0.002 C 
ENDBRANCH  16  18
ENDBRANCH  14  16
ENDBRANCH  10  14
ENDBRANCH   3  11
ENDBRANCH   1   7
BRANCH   1  19
ATOM     19  C   UNL     1       2.593  -7.780  -4.899  0.00  0.00    +0.203 C 
ATOM     20  O   UNL     1       3.403  -7.048  -5.428  0.00  0.00    -0.277 OA
ATOM     21  N   UNL     1       2.333  -8.992  -5.428  0.00  0.00    -0.287 N 
ATOM     22  H   UNL     1       1.637  -9.549  -5.046  0.00  0.00    +0.155 HD
BRANCH  21  23
ATOM     23  C   UNL     1       3.065  -9.446  -6.525  0.00  0.00    +0.033 A 
ATOM     24  C   UNL     1       4.401  -9.083  -6.666  0.00  0.00    +0.024 A 
ATOM     25  C   UNL     1       5.127  -9.529  -7.747  0.00  0.00    +0.015 A 
ATOM     26  C   UNL     1       4.520 -10.348  -8.704  0.00  0.00    +0.037 A 
ATOM     27  C   UNL     1       3.178 -10.710  -8.559  0.00  0.00    +0.015 A 
ATOM     28  C   UNL     1       2.460 -10.265  -7.473  0.00  0.00    +0.024 A 
BRANCH  26  29
ATOM     29  C   UNL     1       5.295 -10.828  -9.865  0.00  0.00    +0.242 C 
ATOM     30  O   UNL     1       6.462 -10.511  -9.990  0.00  0.00    -0.270 OA
ATOM     31  N   UNL     1       4.708 -11.617 -10.787  0.00  0.00    -0.325 N 
ATOM     32  H   UNL     1       3.777 -11.870 -10.687  0.00  0.00    +0.145 HD
ATOM     33  H   UNL     1       5.218 -11.932 -11.550  0.00  0.00    +0.145 HD
ENDBRANCH  26  29
ENDBRANCH  21  23
ENDBRANCH   1  19
TORSDOF 8
