REMARK  Name = ZINC16756056
REMARK  7 active torsions:
REMARK  status: ('A' for Active; 'I' for Inactive)
REMARK    1  A    between atoms: C_1  and  O_2
REMARK    2  A    between atoms: O_2  and  C_3
REMARK    3  A    between atoms: C_8  and  C_9
REMARK    4  A    between atoms: C_12  and  S_15
REMARK    5  A    between atoms: N_13  and  N_14
REMARK    6  A    between atoms: S_15  and  C_16
REMARK    7  A    between atoms: C_16  and  C_17
REMARK                            x       y       z     vdW  Elec       q    Type
REMARK                         _______ _______ _______ _____ _____    ______ ____
ROOT
ATOM      1  C   UNL     1       1.258  -2.159  -0.021  0.00  0.00    +0.185 A 
ATOM      2  N   UNL     1       0.219  -2.962  -0.015  0.00  0.00    -0.127 NA
ATOM      3  N   UNL     1       0.610  -4.186  -0.026  0.00  0.00    -0.121 NA
ATOM      4  C   UNL     1       1.923  -4.241  -0.039  0.00  0.00    +0.209 A 
ATOM      5  N   UNL     1       2.382  -2.954  -0.042  0.00  0.00    -0.224 N 
ENDROOT
BRANCH   1  11
ATOM      6  C   UNL     1       0.002  -0.004   0.002  0.00  0.00    +0.131 A 
ATOM      7  C   UNL     1      -0.017   1.381   0.010  0.00  0.00    +0.046 A 
ATOM      8  C   UNL     1       1.170   2.090   0.002  0.00  0.00    +0.004 A 
ATOM      9  C   UNL     1       2.383   1.424  -0.013  0.00  0.00    +0.001 A 
ATOM     10  C   UNL     1       2.418   0.045  -0.021  0.00  0.00    +0.015 A 
ATOM     11  C   UNL     1       1.227  -0.682  -0.013  0.00  0.00    +0.062 A 
BRANCH   6  13
ATOM     12  C   UNL     1      -2.374   0.057   0.026  0.00  0.00    +0.277 C 
ATOM     13  O   UNL     1      -1.163  -0.702   0.010  0.00  0.00    -0.494 OA
ENDBRANCH   6  13
ENDBRANCH   1  11
BRANCH   5  14
ATOM     14  N   UNL     1       3.684  -2.541  -0.058  0.00  0.00    -0.295 N 
ATOM     15  H   UNL     1       4.042  -2.437   0.879  0.00  0.00    +0.163 HD
ATOM     16  H   UNL     1       4.257  -3.174  -0.596  0.00  0.00    +0.163 HD
ENDBRANCH   5  14
BRANCH   4  17
ATOM     17  S   UNL     1       2.908  -5.701  -0.056  0.00  0.00    -0.080 S 
BRANCH  17  18
ATOM     18  C   UNL     1       1.606  -6.959  -0.050  0.00  0.00    +0.112 C 
BRANCH  18  19
ATOM     19  C   UNL     1       2.232  -8.330  -0.063  0.00  0.00    -0.036 A 
ATOM     20  C   UNL     1       2.502  -8.954  -1.266  0.00  0.00    +0.006 A 
ATOM     21  C   UNL     1       3.081 -10.209  -1.280  0.00  0.00    +0.022 A 
ATOM     22  C   UNL     1       3.380 -10.846  -0.088  0.00  0.00    +0.059 A 
ATOM     23  C   UNL     1       3.104 -10.223   1.117  0.00  0.00    +0.060 A 
ATOM     24  C   UNL     1       2.530  -8.964   1.128  0.00  0.00    +0.026 A 
ATOM     25 CL   UNL     1       3.479 -11.020   2.612  0.00  0.00    -0.082 Cl
ATOM     26 CL   UNL     1       4.101 -12.425  -0.104  0.00  0.00    -0.082 Cl
ENDBRANCH  18  19
ENDBRANCH  17  18
ENDBRANCH   4  17
TORSDOF 6
