REMARK  Name = ZINC31155297
REMARK  12 active torsions:
REMARK  status: ('A' for Active; 'I' for Inactive)
REMARK    1  A    between atoms: C_1  and  C_2
REMARK    2  A    between atoms: C_2  and  C_26
REMARK    3  A    between atoms: C_6  and  C_25
REMARK    4  A    between atoms: C_11  and  C_23
REMARK    5  A    between atoms: C_11  and  O_24
REMARK    6  A    between atoms: C_12  and  C_14
REMARK    7  A    between atoms: C_14  and  C_15
REMARK    8  A    between atoms: C_15  and  C_16
REMARK    9  A    between atoms: C_16  and  C_18
REMARK   10  A    between atoms: C_18  and  C_20
REMARK   11  A    between atoms: C_18  and  O_22
REMARK   12  A    between atoms: C_20  and  O_21
REMARK                            x       y       z     vdW  Elec       q    Type
REMARK                         _______ _______ _______ _____ _____    ______ ____
ROOT
ATOM      1  C   UNL     1       0.665  -4.381   0.287  0.00  0.00    +0.011 C 
ATOM      2  C   UNL     1       1.872  -3.456   0.440  0.00  0.00    -0.032 C 
ATOM      3  C   UNL     1       2.627  -3.792   1.724  0.00  0.00    +0.007 C 
ATOM      4  C   UNL     1       1.937  -3.227   2.960  0.00  0.00    +0.001 C 
ATOM      5  C   UNL     1       1.806  -1.708   2.817  0.00  0.00    +0.007 C 
ATOM      6  C   UNL     1       0.905  -1.389   1.619  0.00  0.00    -0.023 C 
ATOM      7  C   UNL     1       1.500  -1.989   0.356  0.00  0.00    +0.001 C 
ATOM      8  C   UNL     1       0.588  -1.694  -0.836  0.00  0.00    +0.007 C 
ATOM      9  C   UNL     1       0.544  -0.176  -1.040  0.00  0.00    +0.035 C 
ATOM     10  C   UNL     1       0.011   0.525   0.204  0.00  0.00    +0.067 C 
ATOM     11  C   UNL     1       0.769   0.128   1.466  0.00  0.00    +0.027 C 
ATOM     12  C   UNL     1       0.177   2.045   0.006  0.00  0.00    +0.041 C 
ATOM     13  C   UNL     1      -0.491  -1.952   1.920  0.00  0.00    +0.012 C 
ATOM     14  C   UNL     1       2.836  -3.772  -0.731  0.00  0.00    +0.011 C 
ENDROOT
BRANCH  10  15
ATOM     15  O   UNL     1      -1.387   0.259   0.348  0.00  0.00    -0.389 OA
ATOM     16  H   UNL     1      -1.944   0.686   1.194  0.00  0.00    +0.210 HD
ENDBRANCH  10  15
BRANCH  11  17
ATOM     17  C   UNL     1       2.134   0.817   1.477  0.00  0.00    +0.011 C 
BRANCH  17  18
ATOM     18  C   UNL     1       2.699   0.851   0.055  0.00  0.00    +0.033 C 
BRANCH  18  19
ATOM     19  C   UNL     1       4.094   1.420   0.083  0.00  0.00    -0.046 C 
ATOM     20  C   UNL     1       5.128   0.617   0.140  0.00  0.00    +0.010 C 
BRANCH  19  21
ATOM     21  C   UNL     1       4.300   2.912   0.046  0.00  0.00    +0.165 C 
BRANCH  21  22
ATOM     22  O   UNL     1       3.635   3.457  -1.096  0.00  0.00    -0.385 OA
ATOM     23  H   UNL     1       3.674   4.538  -1.291  0.00  0.00    +0.210 HD
ENDBRANCH  21  22
BRANCH  21  24
ATOM     24  C   UNL     1       3.725   3.538   1.318  0.00  0.00    +0.191 C 
BRANCH  24  25
ATOM     25  O   UNL     1       4.023   4.936   1.338  0.00  0.00    -0.392 OA
ATOM     26  H   UNL     1       3.687   5.558   2.181  0.00  0.00    +0.210 HD
ENDBRANCH  24  25
ENDBRANCH  21  24
ENDBRANCH  19  21
ENDBRANCH  18  19
ENDBRANCH  17  18
ENDBRANCH  11  17
TORSDOF 8
