REMARK  Name = ZINC22106793
REMARK  8 active torsions:
REMARK  status: ('A' for Active; 'I' for Inactive)
REMARK    1  A    between atoms: C_1  and  C_2
REMARK    2  A    between atoms: C_8  and  N_10
REMARK    3  A    between atoms: C_11  and  C_13
REMARK    4  A    between atoms: C_13  and  C_15
REMARK    5  A    between atoms: C_13  and  S_16
REMARK    6  A    between atoms: S_16  and  C_17
REMARK    7  A    between atoms: C_20  and  C_23
REMARK    8  A    between atoms: N_21  and  N_22
REMARK                            x       y       z     vdW  Elec       q    Type
REMARK                         _______ _______ _______ _____ _____    ______ ____
ROOT
ATOM      1  C   UNL     1       1.670   1.883  -7.247  0.00  0.00    +0.209 A 
ATOM      2  N   UNL     1       2.164   0.666  -7.189  0.00  0.00    -0.121 NA
ATOM      3  N   UNL     1       2.889   0.434  -8.225  0.00  0.00    -0.127 NA
ATOM      4  C   UNL     1       2.902   1.488  -9.007  0.00  0.00    +0.183 A 
ATOM      5  N   UNL     1       2.118   2.446  -8.408  0.00  0.00    -0.224 N 
ENDROOT
BRANCH   4   6
ATOM      6  C   UNL     1       3.619   1.618 -10.294  0.00  0.00    +0.035 A 
ATOM      7  C   UNL     1       4.389   2.752 -10.555  0.00  0.00    +0.013 A 
ATOM      8  C   UNL     1       5.056   2.868 -11.757  0.00  0.00    +0.001 A 
ATOM      9  C   UNL     1       4.963   1.862 -12.703  0.00  0.00    +0.001 A 
ATOM     10  C   UNL     1       4.201   0.735 -12.451  0.00  0.00    +0.016 A 
ATOM     11  C   UNL     1       3.533   0.604 -11.250  0.00  0.00    +0.029 A 
ATOM     12 BR   UNL     1       2.499  -0.941 -10.904  0.00  0.00    -0.050 Br
ENDBRANCH   4   6
BRANCH   5  13
ATOM     13  N   UNL     1       1.845   3.701  -8.875  0.00  0.00    -0.295 N 
ATOM     14  H   UNL     1       2.271   4.036  -9.832  0.00  0.00    +0.163 HD
ATOM     15  H   UNL     1       1.200   4.376  -8.294  0.00  0.00    +0.163 HD
ENDBRANCH   5  13
BRANCH   1  16
ATOM     16  S   UNL     1       0.620   2.643  -6.053  0.00  0.00    -0.072 S 
BRANCH  16  17
ATOM     17  C   UNL     1       0.483   1.296  -4.852  0.00  0.00    +0.137 C 
ATOM     18  C   UNL     1      -0.244   0.112  -5.494  0.00  0.00    +0.029 C 
BRANCH  17  20
ATOM     19  N   UNL     1      -0.113   1.177  -2.454  0.00  0.00    -0.311 N 
ATOM     20  C   UNL     1      -0.293   1.770  -3.651  0.00  0.00    +0.226 C 
ATOM     21  O   UNL     1      -1.080   2.687  -3.761  0.00  0.00    -0.275 OA
ATOM     22  H   UNL     1       0.601   0.346  -2.355  0.00  0.00    +0.149 HD
BRANCH  19  29
ATOM     23  C   UNL     1       1.271   1.982  -0.041  0.00  0.00    +0.009 C 
ATOM     24  C   UNL     1      -0.095   1.294  -0.012  0.00  0.00    +0.006 C 
ATOM     25  C   UNL     1      -0.883   1.776   1.208  0.00  0.00    +0.005 C 
ATOM     26  C   UNL     1      -2.249   1.088   1.237  0.00  0.00    +0.000 C 
ATOM     27  C   UNL     1      -3.022   1.432  -0.038  0.00  0.00    +0.002 C 
ATOM     28  C   UNL     1      -2.233   0.950  -1.258  0.00  0.00    +0.022 C 
ATOM     29  C   UNL     1      -0.867   1.639  -1.287  0.00  0.00    +0.076 C 
ENDBRANCH  19  29
ENDBRANCH  17  20
ENDBRANCH  16  17
ENDBRANCH   1  16
TORSDOF 6
