REMARK  Name = ZINC12478082
REMARK  13 active torsions:
REMARK  status: ('A' for Active; 'I' for Inactive)
REMARK    1  A    between atoms: C_1  and  C_2
REMARK    2  A    between atoms: C_5  and  N_9
REMARK    3  A    between atoms: C_6  and  C_8
REMARK    4  A    between atoms: N_9  and  C_10
REMARK    5  A    between atoms: C_10  and  C_12
REMARK    6  A    between atoms: C_10  and  C_17
REMARK    7  A    between atoms: N_19  and  C_20
REMARK    8  A    between atoms: C_20  and  C_21
REMARK    9  A    between atoms: C_20  and  C_22
REMARK   10  A    between atoms: C_20  and  C_23
REMARK   11  A    between atoms: C_24  and  C_26
REMARK   12  A    between atoms: C_26  and  N_27
REMARK   13  A    between atoms: C_29  and  C_32
REMARK                            x       y       z     vdW  Elec       q    Type
REMARK                         _______ _______ _______ _____ _____    ______ ____
ROOT
ATOM      1  N   UNL     1      -3.343   2.161   1.090  0.00  0.00    -0.250 N 
ATOM      2  C   UNL     1      -3.727   1.617   2.261  0.00  0.00    +0.244 C 
ATOM      3  O   UNL     1      -3.576   0.429   2.456  0.00  0.00    -0.273 OA
ENDROOT
BRANCH   1   8
ATOM      4  C   UNL     1      -4.047   7.717   0.179  0.00  0.00    +0.044 C 
ATOM      5  C   UNL     1      -3.860   6.241   0.421  0.00  0.00    -0.050 A 
ATOM      6  C   UNL     1      -4.844   5.349   0.038  0.00  0.00    +0.005 A 
ATOM      7  C   UNL     1      -4.674   3.995   0.254  0.00  0.00    +0.024 A 
ATOM      8  C   UNL     1      -3.516   3.532   0.865  0.00  0.00    +0.041 A 
ATOM      9  C   UNL     1      -2.529   4.430   1.248  0.00  0.00    -0.029 A 
ATOM     10  C   UNL     1      -2.704   5.782   1.025  0.00  0.00    +0.008 A 
ATOM     11  C   UNL     1      -1.269   3.931   1.907  0.00  0.00    +0.045 C 
ENDBRANCH   1   8
BRANCH   1  12
ATOM     12  C   UNL     1      -2.743   1.319   0.052  0.00  0.00    +0.233 C 
BRANCH  12  13
ATOM     13  C   UNL     1      -1.433   1.919  -0.388  0.00  0.00    +0.135 A 
ATOM     14  C   UNL     1      -0.261   1.266  -0.483  0.00  0.00    +0.047 A 
ATOM     15  C   UNL     1       0.696   2.204  -0.934  0.00  0.00    +0.041 A 
ATOM     16  C   UNL     1       0.052   3.376  -1.083  0.00  0.00    +0.195 A 
ATOM     17  O   UNL     1      -1.236   3.198  -0.747  0.00  0.00    -0.465 OA
ENDBRANCH  12  13
BRANCH  12  18
ATOM     18  C   UNL     1      -3.678   1.234  -1.128  0.00  0.00    +0.242 C 
ATOM     19  O   UNL     1      -4.739   1.820  -1.104  0.00  0.00    -0.273 OA
ATOM     20  N   UNL     1      -3.333   0.508  -2.209  0.00  0.00    -0.309 N 
ATOM     21  H   UNL     1      -2.484   0.040  -2.229  0.00  0.00    +0.149 HD
BRANCH  20  22
ATOM     22  C   UNL     1      -4.241   0.425  -3.356  0.00  0.00    +0.026 C 
ATOM     23  C   UNL     1      -4.485   1.829  -3.915  0.00  0.00    +0.031 C 
ATOM     24  C   UNL     1      -3.615  -0.454  -4.440  0.00  0.00    +0.031 C 
ATOM     25  C   UNL     1      -5.572  -0.184  -2.910  0.00  0.00    +0.031 C 
ENDBRANCH  20  22
ENDBRANCH  12  18
ENDBRANCH   1  12
BRANCH   2  26
ATOM     26  C   UNL     1      -4.343   2.483   3.329  0.00  0.00    +0.264 C 
BRANCH  26  27
ATOM     27  N   UNL     1      -4.671   1.661   4.496  0.00  0.00    -0.154 N 
ATOM     28  N   UNL     1      -5.794   1.060   4.693  0.00  0.00    -0.130 NA
ATOM     29  C   UNL     1      -5.714   0.421   5.843  0.00  0.00    +0.205 A 
ATOM     30  N   UNL     1      -4.493   0.670   6.337  0.00  0.00    -0.108 NA
ATOM     31  N   UNL     1      -3.885   1.429   5.489  0.00  0.00    -0.045 NA
BRANCH  29  32
ATOM     32  C   UNL     1      -6.772  -0.408   6.473  0.00  0.00    +0.023 A 
ATOM     33  C   UNL     1      -8.002  -0.571   5.838  0.00  0.00    +0.014 A 
ATOM     34  C   UNL     1      -8.981  -1.347   6.424  0.00  0.00    +0.039 A 
ATOM     35  C   UNL     1      -8.746  -1.955   7.647  0.00  0.00    +0.123 A 
ATOM     36  C   UNL     1      -7.527  -1.791   8.284  0.00  0.00    +0.039 A 
ATOM     37  C   UNL     1      -6.541  -1.021   7.702  0.00  0.00    +0.014 A 
ATOM     38  F   UNL     1      -9.710  -2.709   8.220  0.00  0.00    -0.205 F 
ENDBRANCH  29  32
ENDBRANCH  26  27
ENDBRANCH   2  26
TORSDOF 8
