REMARK  Name = ZINC31919708
REMARK  4 active torsions:
REMARK  status: ('A' for Active; 'I' for Inactive)
REMARK    1  A    between atoms: C_1  and  C_2
REMARK    2  A    between atoms: C_8  and  C_11
REMARK    3  A    between atoms: C_11  and  C_13
REMARK    4  A    between atoms: C_11  and  N_17
REMARK                            x       y       z     vdW  Elec       q    Type
REMARK                         _______ _______ _______ _____ _____    ______ ____
ROOT
ATOM      1  C   UNL     1       0.939   5.551  -3.144  0.00  0.00    +0.045 C 
ATOM      2  C   UNL     1       1.684   4.687  -2.160  0.00  0.00    -0.034 A 
ATOM      3  C   UNL     1       3.023   4.976  -1.850  0.00  0.00    +0.008 A 
ATOM      4  C   UNL     1       3.693   4.194  -0.961  0.00  0.00    +0.047 A 
ATOM      5  C   UNL     1       3.030   3.103  -0.364  0.00  0.00    +0.138 A 
ATOM      6  N   UNL     1       3.422   2.192   0.515  0.00  0.00    -0.236 NA
ATOM      7  C   UNL     1       2.409   1.360   0.766  0.00  0.00    +0.136 A 
ATOM      8  C   UNL     1       1.342   1.745   0.032  0.00  0.00    +0.069 A 
ATOM      9  N   UNL     1       1.724   2.843  -0.691  0.00  0.00    -0.302 N 
ATOM     10  C   UNL     1       1.062   3.639  -1.580  0.00  0.00    +0.096 A 
ENDROOT
BRANCH   8  11
ATOM     11  C   UNL     1      -0.013   1.086   0.008  0.00  0.00    +0.205 C 
BRANCH  11  12
ATOM     12  C   UNL     1       0.003  -0.076  -0.987  0.00  0.00    +0.410 C 
ATOM     13  F   UNL     1       0.969  -1.010  -0.599  0.00  0.00    -0.169 F 
ATOM     14  F   UNL     1      -1.255  -0.688  -1.009  0.00  0.00    -0.169 F 
ATOM     15  F   UNL     1       0.308   0.407  -2.264  0.00  0.00    -0.169 F 
ENDBRANCH  11  12
BRANCH  11  16
ATOM     16  N   UNL     1      -0.334   0.578   1.349  0.00  0.00    -0.315 NA
ATOM     17  H   UNL     1      -1.323   0.097   1.331  0.00  0.00    +0.119 HD
ATOM     18  H   UNL     1       0.426  -0.156   1.654  0.00  0.00    +0.119 HD
ENDBRANCH  11  16
ENDBRANCH   8  11
TORSDOF 3
