REMARK  Name = ZINC36354317
REMARK  9 active torsions:
REMARK  status: ('A' for Active; 'I' for Inactive)
REMARK    1  A    between atoms: C_1  and  C_2
REMARK    2  A    between atoms: C_2  and  C_3
REMARK    3  A    between atoms: C_2  and  C_4
REMARK    4  A    between atoms: N_6  and  C_7
REMARK    5  A    between atoms: C_13  and  C_17
REMARK    6  A    between atoms: C_17  and  C_19
REMARK    7  A    between atoms: C_17  and  N_22
REMARK    8  A    between atoms: N_25  and  C_28
REMARK    9  A    between atoms: C_28  and  C_29
REMARK                            x       y       z     vdW  Elec       q    Type
REMARK                         _______ _______ _______ _____ _____    ______ ____
ROOT
ATOM      1  C   UNL     1      -6.669  -0.147  -4.539  0.00  0.00    +0.080 C 
ENDROOT
BRANCH   1   8
ATOM      2  C   UNL     1      -3.550  -0.737  -1.072  0.00  0.00    +0.034 A 
ATOM      3  C   UNL     1      -4.037  -1.543  -0.044  0.00  0.00    +0.025 A 
ATOM      4  C   UNL     1      -5.306  -2.072  -0.110  0.00  0.00    +0.028 A 
ATOM      5  C   UNL     1      -6.115  -1.804  -1.210  0.00  0.00    +0.047 A 
ATOM      6  C   UNL     1      -5.627  -0.991  -2.249  0.00  0.00    +0.004 A 
ATOM      7  C   UNL     1      -4.340  -0.455  -2.169  0.00  0.00    +0.033 A 
ATOM      8  C   UNL     1      -6.704  -0.907  -3.238  0.00  0.00    -0.025 A 
ATOM      9  C   UNL     1      -7.729  -1.636  -2.767  0.00  0.00    +0.086 A 
ATOM     10  N   UNL     1      -7.396  -2.179  -1.556  0.00  0.00    -0.360 N 
ATOM     11  H   UNL     1      -7.975  -2.745  -1.021  0.00  0.00    +0.165 HD
BRANCH   2  14
ATOM     12  C   UNL     1      -1.268  -0.925  -0.420  0.00  0.00    +0.220 C 
ATOM     13  O   UNL     1      -1.515  -1.995   0.094  0.00  0.00    -0.275 OA
ATOM     14  N   UNL     1      -2.256  -0.206  -0.988  0.00  0.00    -0.285 N 
ATOM     15  H   UNL     1      -2.071   0.679  -1.340  0.00  0.00    +0.155 HD
BRANCH  12  17
ATOM     16  C   UNL     1       0.192   0.941   0.314  0.00  0.00    +0.017 C 
ATOM     17  C   UNL     1       0.145  -0.399  -0.423  0.00  0.00    +0.069 C 
ATOM     18  C   UNL     1       1.063  -1.400   0.281  0.00  0.00    +0.017 C 
ENDBRANCH  12  17
ENDBRANCH   2  14
ENDBRANCH   1   8
BRANCH   1  19
ATOM     19  N   UNL     1      -7.699  -0.676  -5.443  0.00  0.00    +0.393 N 
ATOM     20  C   UNL     1      -7.441  -2.099  -5.699  0.00  0.00    -0.062 C 
ATOM     21  C   UNL     1      -8.524  -2.655  -6.626  0.00  0.00    +0.066 C 
ATOM     22  N   UNL     1      -8.517  -1.903  -7.889  0.00  0.00    -0.302 NA
ATOM     23  C   UNL     1      -8.749  -0.472  -7.646  0.00  0.00    +0.066 C 
ATOM     24  C   UNL     1      -7.665   0.066  -6.711  0.00  0.00    -0.062 C 
ATOM     25  H   UNL     1      -8.607  -0.570  -5.017  0.00  0.00    -0.080 HD
BRANCH  22  26
ATOM     26  C   UNL     1      -9.507  -2.445  -8.830  0.00  0.00    +0.119 C 
BRANCH  26  27
ATOM     27  C   UNL     1      -9.306  -1.819 -10.186  0.00  0.00    -0.033 A 
ATOM     28  C   UNL     1      -9.969  -0.651 -10.513  0.00  0.00    +0.005 A 
ATOM     29  C   UNL     1      -9.784  -0.077 -11.757  0.00  0.00    +0.000 A 
ATOM     30  C   UNL     1      -8.937  -0.671 -12.674  0.00  0.00    +0.000 A 
ATOM     31  C   UNL     1      -8.274  -1.839 -12.346  0.00  0.00    +0.000 A 
ATOM     32  C   UNL     1      -8.455  -2.411 -11.101  0.00  0.00    +0.005 A 
ENDBRANCH  26  27
ENDBRANCH  22  26
ENDBRANCH   1  19
BRANCH   1  33
ATOM     33  C   UNL     1      -6.935   1.313  -4.274  0.00  0.00    +0.347 C 
ATOM     34  O   UNL     1      -6.007   2.069  -4.043  0.00  0.00    -0.248 OA
ATOM     35  O   UNL     1      -8.078   1.738  -4.292  0.00  0.00    -0.248 OA
ENDBRANCH   1  33
TORSDOF 7
