REMARK  Name = ZINC62660614
REMARK  8 active torsions:
REMARK  status: ('A' for Active; 'I' for Inactive)
REMARK    1  A    between atoms: C_7  and  C_11
REMARK    2  A    between atoms: C_11  and  C_13
REMARK    3  A    between atoms: C_13  and  N_14
REMARK    4  A    between atoms: N_14  and  C_15
REMARK    5  A    between atoms: C_15  and  C_16
REMARK    6  A    between atoms: C_16  and  C_17
REMARK    7  A    between atoms: C_20  and  S_23
REMARK    8  A    between atoms: S_23  and  N_26
REMARK                            x       y       z     vdW  Elec       q    Type
REMARK                         _______ _______ _______ _____ _____    ______ ____
ROOT
ATOM      1  N   UNL     1       0.197  -5.589  -0.029  0.00  0.00    +0.384 N 
ATOM      2  H   UNL     1      -0.362  -5.460   0.802  0.00  0.00    -0.085 HD
ATOM      3  H   UNL     1      -0.379  -5.451  -0.846  0.00  0.00    -0.085 HD
ENDROOT
BRANCH   1   4
ATOM      4  C   UNL     1       1.298  -4.616  -0.035  0.00  0.00    -0.002 C 
BRANCH   4   5
ATOM      5  C   UNL     1       0.733  -3.219  -0.022  0.00  0.00    +0.148 C 
ATOM      6  O   UNL     1      -0.469  -3.050  -0.008  0.00  0.00    -0.294 OA
BRANCH   5  13
ATOM      7  C   UNL     1      -0.017   1.374   0.010  0.00  0.00    +0.001 A 
ATOM      8  C   UNL     1       1.172   2.089   0.002  0.00  0.00    +0.002 A 
ATOM      9  C   UNL     1       2.385   1.436  -0.013  0.00  0.00    +0.026 A 
ATOM     10  C   UNL     1       2.424   0.045  -0.021  0.00  0.00    +0.047 A 
ATOM     11  C   UNL     1       1.221  -0.677  -0.013  0.00  0.00    +0.010 A 
ATOM     12  C   UNL     1       0.002  -0.004   0.002  0.00  0.00    +0.011 A 
ATOM     13  C   UNL     1       1.605  -2.102  -0.025  0.00  0.00    +0.040 A 
ATOM     14  C   UNL     1       2.983  -2.128  -0.039  0.00  0.00    +0.095 A 
ATOM     15  N   UNL     1       3.459  -0.868  -0.036  0.00  0.00    -0.360 N 
ATOM     16  H   UNL     1       4.401  -0.634  -0.045  0.00  0.00    +0.165 HD
ENDBRANCH   5  13
ENDBRANCH   4   5
ENDBRANCH   1   4
BRANCH   1  17
ATOM     17  C   UNL     1       0.747  -6.951  -0.042  0.00  0.00    -0.077 C 
BRANCH  17  18
ATOM     18  C   UNL     1      -0.399  -7.964  -0.035  0.00  0.00    +0.016 C 
BRANCH  18  19
ATOM     19  C   UNL     1       0.166  -9.361  -0.048  0.00  0.00    -0.049 A 
ATOM     20  C   UNL     1       0.418  -9.994  -1.251  0.00  0.00    +0.005 A 
ATOM     21  C   UNL     1       0.936 -11.275  -1.264  0.00  0.00    +0.029 A 
ATOM     22  C   UNL     1       1.202 -11.924  -0.072  0.00  0.00    +0.105 A 
ATOM     23  C   UNL     1       0.951 -11.292   1.131  0.00  0.00    +0.029 A 
ATOM     24  C   UNL     1       0.437 -10.009   1.143  0.00  0.00    +0.005 A 
BRANCH  22  25
ATOM     25  S   UNL     1       1.862 -13.558  -0.088  0.00  0.00    +0.056 S 
ATOM     26  O   UNL     1       1.511 -14.149   1.156  0.00  0.00    -0.153 OA
ATOM     27  O   UNL     1       1.494 -14.133  -1.335  0.00  0.00    -0.153 OA
BRANCH  25  28
ATOM     28  N   UNL     1       3.512 -13.421  -0.098  0.00  0.00    -0.204 NA
ATOM     29  H   UNL     1       3.925 -12.543  -0.095  0.00  0.00    +0.144 HD
ATOM     30  H   UNL     1       4.065 -14.217  -0.107  0.00  0.00    +0.144 HD
ENDBRANCH  25  28
ENDBRANCH  22  25
ENDBRANCH  18  19
ENDBRANCH  17  18
ENDBRANCH   1  17
TORSDOF 8
