REMARK  Name = ZINC36507443
REMARK  16 active torsions:
REMARK  status: ('A' for Active; 'I' for Inactive)
REMARK    1  A    between atoms: C_1  and  C_2
REMARK    2  A    between atoms: C_2  and  C_3
REMARK    3  A    between atoms: C_3  and  C_4
REMARK    4  A    between atoms: C_4  and  C_5
REMARK    5  A    between atoms: N_7  and  C_8
REMARK    6  A    between atoms: N_7  and  C_14
REMARK    7  A    between atoms: C_8  and  C_9
REMARK    8  A    between atoms: C_14  and  C_16
REMARK    9  A    between atoms: C_14  and  C_25
REMARK   10  A    between atoms: C_19  and  N_22
REMARK   11  A    between atoms: N_22  and  C_23
REMARK   12  A    between atoms: N_22  and  C_24
REMARK   13  A    between atoms: N_27  and  C_28
REMARK   14  A    between atoms: C_28  and  S_29
REMARK   15  A    between atoms: S_29  and  C_32
REMARK   16  A    between atoms: C_35  and  C_38
REMARK                            x       y       z     vdW  Elec       q    Type
REMARK                         _______ _______ _______ _____ _____    ______ ____
ROOT
ATOM      1  C   UNL     1       1.842  -5.079  -2.094  0.00  0.00    +0.193 C 
ENDROOT
BRANCH   1   2
ATOM      2  C   UNL     1       2.378  -4.206  -0.989  0.00  0.00    -0.018 A 
ATOM      3  C   UNL     1       2.188  -2.837  -1.037  0.00  0.00    +0.008 A 
ATOM      4  C   UNL     1       2.678  -2.034  -0.026  0.00  0.00    +0.023 A 
ATOM      5  C   UNL     1       3.363  -2.603   1.040  0.00  0.00    +0.029 A 
ATOM      6  C   UNL     1       3.552  -3.978   1.085  0.00  0.00    +0.023 A 
ATOM      7  C   UNL     1       3.054  -4.776   0.074  0.00  0.00    +0.008 A 
BRANCH   5   8
ATOM      8  N   UNL     1       3.860  -1.794   2.064  0.00  0.00    -0.336 N 
ATOM      9  C   UNL     1       3.660  -0.343   2.014  0.00  0.00    +0.129 C 
ATOM     10  C   UNL     1       4.582  -2.395   3.188  0.00  0.00    +0.129 C 
ENDBRANCH   5   8
ENDBRANCH   1   2
BRANCH   1  11
ATOM     11  C   UNL     1       0.348  -5.212  -1.949  0.00  0.00    +0.239 C 
ATOM     12  O   UNL     1      -0.381  -4.322  -2.334  0.00  0.00    -0.273 OA
ATOM     13  N   UNL     1      -0.179  -6.320  -1.392  0.00  0.00    -0.294 N 
ATOM     14  H   UNL     1       0.403  -6.986  -0.993  0.00  0.00    +0.150 HD
BRANCH  13  15
ATOM     15  C   UNL     1      -1.630  -6.519  -1.387  0.00  0.00    +0.278 C 
BRANCH  15  16
ATOM     16  S   UNL     1      -2.090  -7.651  -2.728  0.00  0.00    +0.013 S 
ATOM     17  O   UNL     1      -3.481  -7.935  -2.674  0.00  0.00    -0.168 OA
ATOM     18  O   UNL     1      -1.481  -7.241  -3.945  0.00  0.00    -0.168 OA
BRANCH  16  19
ATOM     19  C   UNL     1      -1.303  -9.175  -2.324  0.00  0.00    +0.090 A 
ATOM     20  C   UNL     1      -0.023  -9.434  -2.777  0.00  0.00    +0.027 A 
ATOM     21  C   UNL     1       0.594 -10.630  -2.460  0.00  0.00    +0.005 A 
ATOM     22  C   UNL     1      -0.069 -11.566  -1.689  0.00  0.00    -0.050 A 
ATOM     23  C   UNL     1      -1.349 -11.307  -1.236  0.00  0.00    +0.005 A 
ATOM     24  C   UNL     1      -1.964 -10.110  -1.549  0.00  0.00    +0.027 A 
ATOM     25  C   UNL     1       0.603 -12.870  -1.344  0.00  0.00    +0.044 C 
ENDBRANCH  16  19
ENDBRANCH  15  16
ENDBRANCH  13  15
ENDBRANCH   1  11
BRANCH   1  28
ATOM     26  C   UNL     1       3.155  -4.969  -4.144  0.00  0.00    +0.217 C 
ATOM     27  O   UNL     1       3.473  -4.414  -5.174  0.00  0.00    -0.276 OA
ATOM     28  N   UNL     1       2.154  -4.472  -3.391  0.00  0.00    -0.279 N 
BRANCH  26  29
ATOM     29  C   UNL     1       3.880  -6.215  -3.705  0.00  0.00    +0.096 C 
BRANCH  29  30
ATOM     30  C   UNL     1       4.859  -6.648  -4.799  0.00  0.00    +0.009 C 
BRANCH  30  32
ATOM     31  C   UNL     1       6.574  -8.345  -5.448  0.00  0.00    +0.004 C 
ATOM     32  C   UNL     1       5.595  -7.913  -4.354  0.00  0.00    -0.003 C 
ENDBRANCH  30  32
ENDBRANCH  29  30
ENDBRANCH  26  29
BRANCH  28  33
ATOM     33  C   UNL     1       1.378  -3.325  -3.869  0.00  0.00    +0.183 C 
BRANCH  33  34
ATOM     34  C   UNL     1       0.437  -3.774  -4.957  0.00  0.00    +0.122 A 
ATOM     35  C   UNL     1      -0.906  -3.740  -4.899  0.00  0.00    +0.046 A 
ATOM     36  C   UNL     1      -1.383  -4.251  -6.128  0.00  0.00    +0.041 A 
ATOM     37  C   UNL     1      -0.302  -4.567  -6.864  0.00  0.00    +0.195 A 
ATOM     38  O   UNL     1       0.797  -4.270  -6.152  0.00  0.00    -0.466 OA
ENDBRANCH  33  34
ENDBRANCH  28  33
ENDBRANCH   1  28
TORSDOF 12
