REMARK  Name = ZINC06410005
REMARK  9 active torsions:
REMARK  status: ('A' for Active; 'I' for Inactive)
REMARK    1  A    between atoms: C_1  and  C_2
REMARK    2  A    between atoms: C_7  and  C_14
REMARK    3  A    between atoms: C_14  and  C_16
REMARK    4  A    between atoms: C_14  and  N_71
REMARK    5  A    between atoms: N_20  and  C_21
REMARK    6  A    between atoms: C_27  and  C_28
REMARK    7  A    between atoms: C_27  and  N_71
REMARK    8  A    between atoms: C_33  and  C_34
REMARK    9  A    between atoms: C_33  and  N_71
REMARK                            x       y       z     vdW  Elec       q    Type
REMARK                         _______ _______ _______ _____ _____    ______ ____
ROOT
ATOM      1  C   UNL     1      -0.005   4.291   0.688  0.00  0.00    +0.039 C 
ENDROOT
BRANCH   1   8
ATOM      2  C   UNL     1       0.429   2.581   8.467  0.00  0.00    +0.044 C 
ATOM      3  C   UNL     1       0.580   2.884   6.998  0.00  0.00    -0.048 A 
ATOM      4  C   UNL     1       1.845   2.901   6.426  0.00  0.00    +0.004 A 
ATOM      5  C   UNL     1       2.003   3.173   5.097  0.00  0.00    +0.010 A 
ATOM      6  C   UNL     1       0.881   3.437   4.305  0.00  0.00    -0.001 A 
ATOM      7  C   UNL     1       1.015   3.727   2.876  0.00  0.00    +0.017 A 
ATOM      8  C   UNL     1      -0.108   3.982   2.159  0.00  0.00    +0.011 A 
ATOM      9  C   UNL     1      -1.373   3.954   2.785  0.00  0.00    +0.251 A 
ATOM     10  O   UNL     1      -2.369   4.180   2.122  0.00  0.00    -0.268 OA
ATOM     11  N   UNL     1      -1.505   3.682   4.096  0.00  0.00    -0.322 N 
ATOM     12  H   UNL     1      -2.390   3.671   4.494  0.00  0.00    +0.169 HD
ATOM     13  C   UNL     1      -0.403   3.420   4.881  0.00  0.00    +0.049 A 
ATOM     14  C   UNL     1      -0.540   3.140   6.237  0.00  0.00    +0.029 A 
ENDBRANCH   1   8
BRANCH   1  15
ATOM     15  C   UNL     1      -0.411   5.722   0.446  0.00  0.00    +0.143 A 
ATOM     16  N   UNL     1      -1.204   6.448   1.195  0.00  0.00    -0.115 NA
ATOM     17  N   UNL     1      -1.304   7.614   0.656  0.00  0.00    -0.023 NA
ATOM     18  N   UNL     1      -0.595   7.651  -0.418  0.00  0.00    -0.044 NA
ATOM     19  N   UNL     1      -0.024   6.505  -0.579  0.00  0.00    -0.227 N 
BRANCH  19  20
ATOM     20  C   UNL     1       0.873   6.125  -1.673  0.00  0.00    +0.111 C 
ATOM     21  C   UNL     1       2.097   7.043  -1.671  0.00  0.00    +0.027 C 
ATOM     22  C   UNL     1       3.034   6.646  -2.813  0.00  0.00    +0.002 C 
ATOM     23  C   UNL     1       2.297   6.782  -4.147  0.00  0.00    +0.000 C 
ATOM     24  C   UNL     1       1.073   5.865  -4.150  0.00  0.00    +0.002 C 
ATOM     25  C   UNL     1       0.136   6.261  -3.007  0.00  0.00    +0.027 C 
ENDBRANCH  19  20
ENDBRANCH   1  15
BRANCH   1  26
ATOM     26  N   UNL     1      -0.922   3.398  -0.052  0.00  0.00    +0.394 N 
ATOM     27  H   UNL     1      -1.865   3.483   0.346  0.00  0.00    -0.080 HD
BRANCH  26  28
ATOM     28  C   UNL     1      -0.472   1.996   0.074  0.00  0.00    -0.034 C 
BRANCH  28  29
ATOM     29  C   UNL     1      -1.179   1.370   1.248  0.00  0.00    -0.027 A 
ATOM     30  C   UNL     1      -2.456   0.925   1.338  0.00  0.00    +0.009 A 
ATOM     31  C   UNL     1      -2.893   0.377   2.529  0.00  0.00    +0.008 A 
ATOM     32  C   UNL     1      -2.035   0.311   3.576  0.00  0.00    +0.045 A 
ATOM     33  S   UNL     1      -0.554   1.030   2.886  0.00  0.00    -0.103 S 
ENDBRANCH  28  29
ENDBRANCH  26  28
BRANCH  26  34
ATOM     34  C   UNL     1      -0.966   3.789  -1.477  0.00  0.00    -0.045 C 
BRANCH  34  35
ATOM     35  C   UNL     1      -2.380   3.542  -2.005  0.00  0.00    +0.102 C 
ATOM     36  C   UNL     1      -2.452   3.854  -3.517  0.00  0.00    +0.032 C 
ATOM     37  C   UNL     1      -3.846   4.494  -3.702  0.00  0.00    +0.030 C 
ATOM     38  C   UNL     1      -4.452   4.492  -2.281  0.00  0.00    +0.160 C 
ATOM     39  O   UNL     1      -3.312   4.460  -1.394  0.00  0.00    -0.378 OA
ENDBRANCH  34  35
ENDBRANCH  26  34
ENDBRANCH   1  26
TORSDOF 8
