REMARK  Name = ZINC01719216
REMARK  6 active torsions:
REMARK  status: ('A' for Active; 'I' for Inactive)
REMARK    1  A    between atoms: C_3  and  S_8
REMARK    2  A    between atoms: C_6  and  N_7
REMARK    3  A    between atoms: S_8  and  N_11
REMARK    4  A    between atoms: N_11  and  C_12
REMARK    5  A    between atoms: C_12  and  C_14
REMARK    6  A    between atoms: C_12  and  O_18
REMARK                            x       y       z     vdW  Elec       q    Type
REMARK                         _______ _______ _______ _____ _____    ______ ____
ROOT
ATOM      1  S   UNL     1      -2.361   2.164  -1.119  0.00  0.00    +0.061 S 
ATOM      2  O   UNL     1      -2.742   2.652  -2.398  0.00  0.00    -0.153 OA
ATOM      3  O   UNL     1      -2.933   0.995  -0.548  0.00  0.00    -0.153 OA
ENDROOT
BRANCH   1   6
ATOM      4  C   UNL     1      -2.887   5.812   0.477  0.00  0.00    +0.024 A 
ATOM      5  C   UNL     1      -2.664   4.784  -0.417  0.00  0.00    +0.030 A 
ATOM      6  C   UNL     1      -2.645   3.473   0.025  0.00  0.00    +0.105 A 
ATOM      7  C   UNL     1      -2.854   3.188   1.362  0.00  0.00    +0.030 A 
ATOM      8  C   UNL     1      -3.071   4.213   2.262  0.00  0.00    +0.024 A 
ATOM      9  C   UNL     1      -3.091   5.530   1.821  0.00  0.00    +0.025 A 
BRANCH   9  10
ATOM     10  N   UNL     1      -3.316   6.568   2.728  0.00  0.00    -0.358 N 
ATOM     11  H   UNL     1      -3.329   7.488   2.419  0.00  0.00    +0.142 HD
ATOM     12  H   UNL     1      -3.458   6.370   3.667  0.00  0.00    +0.142 HD
ENDBRANCH   9  10
ENDBRANCH   1   6
BRANCH   1  13
ATOM     13  N   UNL     1      -0.726   1.910  -1.177  0.00  0.00    -0.158 NA
ATOM     14  H   UNL     1      -0.237   2.083  -1.997  0.00  0.00    +0.151 HD
BRANCH  13  15
ATOM     15  C   UNL     1      -0.017   1.425   0.010  0.00  0.00    +0.253 C 
BRANCH  15  16
ATOM     16  C   UNL     1       1.418   1.954  -0.001  0.00  0.00    +0.231 C 
ATOM     17 CL   UNL     1       2.262   1.373  -1.484  0.00  0.00    -0.079 Cl
ATOM     18 CL   UNL     1       1.394   3.757   0.009  0.00  0.00    -0.079 Cl
ATOM     19 CL   UNL     1       2.290   1.357   1.460  0.00  0.00    -0.079 Cl
ENDBRANCH  15  16
BRANCH  15  20
ATOM     20  O   UNL     1       0.002  -0.004   0.002  0.00  0.00    -0.372 OA
ATOM     21  H   UNL     1       0.442  -0.387  -0.769  0.00  0.00    +0.212 HD
ENDBRANCH  15  20
ENDBRANCH  13  15
ENDBRANCH   1  13
TORSDOF 6
