REMARK  Name = ZINC19926548
REMARK  10 active torsions:
REMARK  status: ('A' for Active; 'I' for Inactive)
REMARK    1  A    between atoms: C_1  and  O_2
REMARK    2  A    between atoms: O_2  and  C_3
REMARK    3  A    between atoms: C_6  and  C_9
REMARK    4  A    between atoms: N_10  and  N_11
REMARK    5  A    between atoms: C_12  and  C_14
REMARK    6  A    between atoms: C_17  and  C_20
REMARK    7  A    between atoms: C_20  and  N_21
REMARK    8  A    between atoms: N_21  and  C_22
REMARK    9  A    between atoms: N_21  and  S_30
REMARK   10  A    between atoms: S_30  and  C_33
REMARK                            x       y       z     vdW  Elec       q    Type
REMARK                         _______ _______ _______ _____ _____    ______ ____
ROOT
ATOM      1  C   UNL     1       4.014  -6.480   6.588  0.00  0.00    +0.038 A 
ATOM      2  C   UNL     1       4.590  -5.720   7.607  0.00  0.00    +0.013 A 
ATOM      3  C   UNL     1       5.222  -6.350   8.659  0.00  0.00    +0.006 A 
ATOM      4  C   UNL     1       5.286  -7.732   8.705  0.00  0.00    -0.028 A 
ATOM      5  C   UNL     1       4.716  -8.490   7.698  0.00  0.00    +0.006 A 
ATOM      6  C   UNL     1       4.077  -7.873   6.643  0.00  0.00    +0.013 A 
ENDROOT
BRANCH   1   8
ATOM      7  N   UNL     1       3.276  -4.466   5.407  0.00  0.00    -0.203 N 
ATOM      8  C   UNL     1       3.335  -5.812   5.458  0.00  0.00    +0.263 C 
ATOM      9  O   UNL     1       2.829  -6.476   4.574  0.00  0.00    -0.268 OA
ATOM     10  H   UNL     1       3.679  -3.936   6.112  0.00  0.00    +0.178 HD
BRANCH   7  12
ATOM     11  C   UNL     1       2.575  -2.537   4.287  0.00  0.00    +0.138 C 
ATOM     12  N   UNL     1       2.632  -3.833   4.336  0.00  0.00    -0.187 NA
BRANCH  11  16
ATOM     13  C   UNL     1       0.626  -0.618   1.041  0.00  0.00    +0.120 A 
ATOM     14  C   UNL     1       1.202   0.143   2.050  0.00  0.00    +0.046 A 
ATOM     15  C   UNL     1       1.836  -0.476   3.106  0.00  0.00    +0.013 A 
ATOM     16  C   UNL     1       1.898  -1.871   3.160  0.00  0.00    -0.005 A 
ATOM     17  C   UNL     1       1.316  -2.632   2.143  0.00  0.00    +0.013 A 
ATOM     18  C   UNL     1       0.680  -2.005   1.094  0.00  0.00    +0.046 A 
BRANCH  13  20
ATOM     19  C   UNL     1      -0.017   1.425   0.010  0.00  0.00    +0.277 C 
ATOM     20  O   UNL     1       0.002  -0.004   0.002  0.00  0.00    -0.495 OA
ENDBRANCH  13  20
ENDBRANCH  11  16
ENDBRANCH   7  12
ENDBRANCH   1   8
BRANCH   4  21
ATOM     21  C   UNL     1       5.978  -8.413   9.858  0.00  0.00    +0.166 C 
BRANCH  21  22
ATOM     22  N   UNL     1       5.011  -8.665  10.929  0.00  0.00    -0.202 N 
BRANCH  22  23
ATOM     23  C   UNL     1       4.219  -9.816  10.899  0.00  0.00    +0.071 A 
ATOM     24  C   UNL     1       4.706 -11.009  11.416  0.00  0.00    +0.026 A 
ATOM     25  C   UNL     1       3.922 -12.146  11.385  0.00  0.00    +0.003 A 
ATOM     26  C   UNL     1       2.652 -12.097  10.840  0.00  0.00    +0.021 A 
ATOM     27  C   UNL     1       2.163 -10.911  10.322  0.00  0.00    +0.061 A 
ATOM     28  C   UNL     1       2.941  -9.768  10.356  0.00  0.00    +0.082 A 
ATOM     29 CL   UNL     1       2.324  -8.277   9.714  0.00  0.00    -0.080 Cl
ATOM     30 CL   UNL     1       0.568 -10.855   9.638  0.00  0.00    -0.082 Cl
ENDBRANCH  22  23
BRANCH  22  31
ATOM     31  S   UNL     1       4.856  -7.585  12.175  0.00  0.00    +0.043 S 
ATOM     32  O   UNL     1       4.460  -8.373  13.290  0.00  0.00    -0.155 OA
ATOM     33  O   UNL     1       6.085  -6.872  12.192  0.00  0.00    -0.155 OA
ATOM     34  C   UNL     1       3.502  -6.486  11.674  0.00  0.00    +0.218 C 
ENDBRANCH  22  31
ENDBRANCH  21  22
ENDBRANCH   4  21
TORSDOF 8
