REMARK  Name = ZINC35486236
REMARK  13 active torsions:
REMARK  status: ('A' for Active; 'I' for Inactive)
REMARK    1  A    between atoms: C_1  and  C_2
REMARK    2  A    between atoms: C_2  and  C_3
REMARK    3  A    between atoms: C_3  and  C_4
REMARK    4  A    between atoms: C_4  and  O_5
REMARK    5  A    between atoms: O_5  and  C_6
REMARK    6  A    between atoms: C_9  and  C_12
REMARK    7  A    between atoms: N_27  and  C_28
REMARK    8  A    between atoms: C_28  and  C_29
REMARK    9  A    between atoms: C_29  and  N_30
REMARK   10  A    between atoms: N_30  and  C_31
REMARK   11  A    between atoms: N_30  and  C_33
REMARK   12  A    between atoms: C_31  and  C_32
REMARK   13  A    between atoms: C_33  and  C_34
REMARK                            x       y       z     vdW  Elec       q    Type
REMARK                         _______ _______ _______ _____ _____    ______ ____
ROOT
ATOM      1  C   UNL     1       1.186  -8.710  -2.830  0.00  0.00    +0.144 C 
ATOM      2  C   UNL     1       2.379  -9.486  -2.379  0.00  0.00    +0.072 A 
ATOM      3  C   UNL     1       3.078  -9.522  -1.089  0.00  0.00    +0.199 A 
ATOM      4  O   UNL     1       2.642  -8.998  -0.080  0.00  0.00    -0.287 OA
ATOM      5  C   UNL     1       4.366 -10.258  -1.132  0.00  0.00    +0.065 A 
ATOM      6  C   UNL     1       5.240 -10.214  -0.046  0.00  0.00    +0.030 A 
ATOM      7  C   UNL     1       6.434 -10.899  -0.105  0.00  0.00    +0.019 A 
ATOM      8  C   UNL     1       6.763 -11.629  -1.240  0.00  0.00    +0.019 A 
ATOM      9  C   UNL     1       5.907 -11.680  -2.317  0.00  0.00    +0.048 A 
ATOM     10  C   UNL     1       4.691 -10.998  -2.281  0.00  0.00    +0.140 A 
ATOM     11  O   UNL     1       3.864 -11.074  -3.349  0.00  0.00    -0.450 OA
ATOM     12  C   UNL     1       2.803 -10.247  -3.431  0.00  0.00    +0.199 A 
ATOM     13  C   UNL     1       1.915  -9.986  -4.577  0.00  0.00    +0.283 C 
ATOM     14  O   UNL     1       2.022 -10.503  -5.671  0.00  0.00    -0.267 OA
ATOM     15  N   UNL     1       0.965  -9.090  -4.235  0.00  0.00    -0.285 N 
ATOM     16 BR   UNL     1       7.627 -10.847   1.362  0.00  0.00    -0.050 Br
ENDROOT
BRANCH   1  20
ATOM     17  C   UNL     1       1.958  -4.517  -2.540  0.00  0.00    +0.121 A 
ATOM     18  C   UNL     1       1.181  -5.148  -1.580  0.00  0.00    +0.046 A 
ATOM     19  C   UNL     1       0.932  -6.503  -1.676  0.00  0.00    +0.009 A 
ATOM     20  C   UNL     1       1.458  -7.231  -2.728  0.00  0.00    -0.022 A 
ATOM     21  C   UNL     1       2.234  -6.604  -3.685  0.00  0.00    +0.009 A 
ATOM     22  C   UNL     1       2.480  -5.248  -3.597  0.00  0.00    +0.046 A 
BRANCH  17  23
ATOM     23  O   UNL     1       2.204  -3.183  -2.448  0.00  0.00    -0.492 OA
BRANCH  23  24
ATOM     24  C   UNL     1       1.635  -2.494  -1.333  0.00  0.00    +0.229 C 
BRANCH  24  25
ATOM     25  C   UNL     1       2.017  -1.014  -1.399  0.00  0.00    +0.041 C 
BRANCH  25  27
ATOM     26  C   UNL     1       1.789   1.204  -0.271  0.00  0.00    +0.004 C 
ATOM     27  C   UNL     1       1.407  -0.277  -0.205  0.00  0.00    -0.000 C 
ENDBRANCH  25  27
ENDBRANCH  24  25
ENDBRANCH  23  24
ENDBRANCH  17  23
ENDBRANCH   1  20
BRANCH  15  28
ATOM     28  C   UNL     1      -0.098  -8.584  -5.107  0.00  0.00    +0.090 C 
BRANCH  28  29
ATOM     29  C   UNL     1       0.394  -7.332  -5.836  0.00  0.00    -0.060 C 
BRANCH  29  30
ATOM     30  N   UNL     1      -0.672  -6.825  -6.711  0.00  0.00    +0.380 N 
ATOM     31  H   UNL     1      -0.976  -7.559  -7.332  0.00  0.00    -0.082 HD
BRANCH  30  32
ATOM     32  C   UNL     1      -1.806  -6.377  -5.891  0.00  0.00    -0.082 C 
ATOM     33  C   UNL     1      -2.970  -5.983  -6.803  0.00  0.00    -0.017 C 
ENDBRANCH  30  32
BRANCH  30  34
ATOM     34  C   UNL     1      -0.162  -5.695  -7.500  0.00  0.00    -0.082 C 
ATOM     35  C   UNL     1       0.923  -6.191  -8.457  0.00  0.00    -0.017 C 
ENDBRANCH  30  34
ENDBRANCH  29  30
ENDBRANCH  28  29
ENDBRANCH  15  28
TORSDOF 10
