REMARK  Name = ZINC13064790
REMARK  15 active torsions:
REMARK  status: ('A' for Active; 'I' for Inactive)
REMARK    1  A    between atoms: C_1  and  C_2
REMARK    2  A    between atoms: C_2  and  C_3
REMARK    3  A    between atoms: C_3  and  C_5
REMARK    4  A    between atoms: C_3  and  N_74
REMARK    5  A    between atoms: N_9  and  C_10
REMARK    6  A    between atoms: C_10  and  C_11
REMARK    7  A    between atoms: C_10  and  C_12
REMARK    8  A    between atoms: C_10  and  C_13
REMARK    9  A    between atoms: C_13  and  C_14
REMARK   10  A    between atoms: C_15  and  C_16
REMARK   11  A    between atoms: C_15  and  N_74
REMARK   12  A    between atoms: C_25  and  C_26
REMARK   13  A    between atoms: C_25  and  N_74
REMARK   14  A    between atoms: C_29  and  C_39
REMARK   15  A    between atoms: C_31  and  C_38
REMARK                            x       y       z     vdW  Elec       q    Type
REMARK                         _______ _______ _______ _____ _____    ______ ____
ROOT
ATOM      1  N   UNL     1       0.873  -0.219  -0.553  0.00  0.00    +0.392 N 
ATOM      2  H   UNL     1       1.601  -0.392   0.149  0.00  0.00    -0.080 HD
ENDROOT
BRANCH   1   3
ATOM      3  C   UNL     1       0.919  -1.293  -1.567  0.00  0.00    +0.003 C 
BRANCH   3   4
ATOM      4  C   UNL     1       1.260  -2.590  -0.879  0.00  0.00    +0.139 A 
ATOM      5  N   UNL     1       0.752  -3.038   0.243  0.00  0.00    -0.115 NA
ATOM      6  N   UNL     1       1.296  -4.177   0.499  0.00  0.00    -0.023 NA
ATOM      7  N   UNL     1       2.139  -4.468  -0.430  0.00  0.00    -0.043 NA
ATOM      8  N   UNL     1       2.141  -3.516  -1.301  0.00  0.00    -0.225 N 
BRANCH   8   9
ATOM      9  C   UNL     1       2.953  -3.454  -2.519  0.00  0.00    +0.061 C 
ATOM     10  C   UNL     1       2.043  -3.224  -3.728  0.00  0.00    +0.036 C 
ATOM     11  C   UNL     1       3.952  -2.300  -2.407  0.00  0.00    +0.036 C 
BRANCH   9  12
ATOM     12  C   UNL     1       3.712  -4.770  -2.695  0.00  0.00    +0.026 C 
ATOM     13  C   UNL     1       4.559  -4.705  -3.966  0.00  0.00    +0.006 C 
ENDBRANCH   9  12
ENDBRANCH   8   9
ENDBRANCH   3   4
BRANCH   3  15
ATOM     14  C   UNL     1      -0.706  -0.173  -3.099  0.00  0.00    +0.002 C 
ATOM     15  C   UNL     1      -0.436  -1.427  -2.266  0.00  0.00    -0.011 C 
ENDBRANCH   3  15
ENDBRANCH   1   3
BRANCH   1  16
ATOM     16  C   UNL     1       1.122   1.090  -1.192  0.00  0.00    -0.041 C 
BRANCH  16  17
ATOM     17  C   UNL     1       2.586   1.192  -1.532  0.00  0.00    -0.060 A 
ATOM     18  C   UNL     1       3.480   1.678  -0.595  0.00  0.00    +0.005 A 
ATOM     19  C   UNL     1       4.825   1.768  -0.901  0.00  0.00    +0.050 A 
ATOM     20  C   UNL     1       5.279   1.381  -2.151  0.00  0.00    +0.166 A 
ATOM     21  C   UNL     1       4.379   0.897  -3.096  0.00  0.00    +0.166 A 
ATOM     22  C   UNL     1       3.033   0.804  -2.781  0.00  0.00    +0.051 A 
ATOM     23  O   UNL     1       5.065   0.587  -4.235  0.00  0.00    -0.453 OA
ATOM     24  C   UNL     1       6.329   1.268  -4.119  0.00  0.00    +0.466 C 
ATOM     25  O   UNL     1       6.530   1.375  -2.697  0.00  0.00    -0.453 OA
ENDBRANCH  16  17
ENDBRANCH   1  16
BRANCH   1  26
ATOM     26  C   UNL     1      -0.446  -0.212   0.116  0.00  0.00    -0.036 C 
BRANCH  26  27
ATOM     27  C   UNL     1      -0.343   0.601   1.381  0.00  0.00    +0.001 A 
ATOM     28  C   UNL     1      -0.707   1.907   1.376  0.00  0.00    +0.017 A 
ATOM     29  C   UNL     1      -0.595   2.669   2.621  0.00  0.00    +0.002 A 
ATOM     30  C   UNL     1      -0.956   4.019   2.678  0.00  0.00    -0.041 A 
ATOM     31  C   UNL     1      -0.840   4.702   3.855  0.00  0.00    +0.007 A 
ATOM     32  C   UNL     1      -0.366   4.068   4.996  0.00  0.00    -0.048 A 
ATOM     33  C   UNL     1      -0.004   2.739   4.963  0.00  0.00    +0.029 A 
ATOM     34  C   UNL     1      -0.114   2.023   3.775  0.00  0.00    +0.050 A 
ATOM     35  N   UNL     1       0.239   0.692   3.714  0.00  0.00    -0.322 N 
ATOM     36  H   UNL     1       0.571   0.248   4.510  0.00  0.00    +0.169 HD
ATOM     37  C   UNL     1       0.128  -0.002   2.567  0.00  0.00    +0.251 A 
ATOM     38  O   UNL     1       0.446  -1.178   2.551  0.00  0.00    -0.268 OA
ATOM     39  C   UNL     1      -0.247   4.842   6.283  0.00  0.00    +0.044 C 
ATOM     40  C   UNL     1      -1.471   4.717   1.445  0.00  0.00    +0.044 C 
ENDBRANCH  26  27
ENDBRANCH   1  26
TORSDOF 9
