REMARK  Name = ZINC12156489
REMARK  12 active torsions:
REMARK  status: ('A' for Active; 'I' for Inactive)
REMARK    1  A    between atoms: C_1  and  N_57
REMARK    2  A    between atoms: C_2  and  C_3
REMARK    3  A    between atoms: C_2  and  N_57
REMARK    4  A    between atoms: C_7  and  O_10
REMARK    5  A    between atoms: C_8  and  O_9
REMARK    6  A    between atoms: O_10  and  C_11
REMARK    7  A    between atoms: C_12  and  C_13
REMARK    8  A    between atoms: C_12  and  N_57
REMARK    9  A    between atoms: C_16  and  S_25
REMARK   10  A    between atoms: N_17  and  C_18
REMARK   11  A    between atoms: S_25  and  C_26
REMARK   12  A    between atoms: C_26  and  C_27
REMARK                            x       y       z     vdW  Elec       q    Type
REMARK                         _______ _______ _______ _____ _____    ______ ____
ROOT
ATOM      1  C   UNL     1      -1.665  -1.553   0.996  0.00  0.00    +0.122 A 
ATOM      2  N   UNL     1      -2.819  -2.014   0.604  0.00  0.00    -0.135 NA
ATOM      3  N   UNL     1      -3.113  -1.545  -0.555  0.00  0.00    -0.122 NA
ATOM      4  C   UNL     1      -2.157  -0.746  -0.970  0.00  0.00    +0.196 A 
ATOM      5  N   UNL     1      -1.202  -0.723   0.009  0.00  0.00    -0.276 N 
ENDROOT
BRANCH   5   6
ATOM      6  C   UNL     1       0.002  -0.004   0.002  0.00  0.00    +0.052 A 
ATOM      7  C   UNL     1      -0.017   1.384   0.010  0.00  0.00    +0.026 A 
ATOM      8  C   UNL     1       1.170   2.090   0.002  0.00  0.00    +0.003 A 
ATOM      9  C   UNL     1       2.377   1.416  -0.013  0.00  0.00    +0.020 A 
ATOM     10  C   UNL     1       2.400   0.033  -0.021  0.00  0.00    +0.043 A 
ATOM     11  C   UNL     1       1.214  -0.679  -0.013  0.00  0.00    +0.046 A 
ATOM     12 CL   UNL     1       3.917  -0.810  -0.040  0.00  0.00    -0.083 Cl
ENDBRANCH   5   6
BRANCH   1  13
ATOM     13  C   UNL     1      -0.970  -1.871   2.295  0.00  0.00    -0.001 C 
BRANCH  13  15
ATOM     14  C   UNL     1      -0.904   0.448   2.990  0.00  0.00    -0.095 C 
ATOM     15  N   UNL     1      -1.409  -0.901   3.320  0.00  0.00    +0.385 N 
ATOM     16  H   UNL     1      -2.436  -0.878   3.339  0.00  0.00    -0.081 HD
BRANCH  15  17
ATOM     17  C   UNL     1      -0.914  -1.314   4.650  0.00  0.00    -0.039 C 
BRANCH  17  18
ATOM     18  C   UNL     1      -1.554  -0.442   5.699  0.00  0.00    -0.019 A 
ATOM     19  C   UNL     1      -0.847   0.612   6.248  0.00  0.00    +0.005 A 
ATOM     20  C   UNL     1      -1.430   1.414   7.211  0.00  0.00    +0.004 A 
ATOM     21  C   UNL     1      -2.725   1.166   7.629  0.00  0.00    +0.049 A 
ATOM     22  C   UNL     1      -3.440   0.113   7.083  0.00  0.00    +0.161 A 
ATOM     23  C   UNL     1      -2.854  -0.691   6.109  0.00  0.00    +0.160 A 
BRANCH  23  24
ATOM     24  O   UNL     1      -3.553  -1.724   5.566  0.00  0.00    -0.503 OA
ATOM     25  H   UNL     1      -3.453  -2.560   6.042  0.00  0.00    +0.292 HD
ENDBRANCH  23  24
BRANCH  22  26
ATOM     26  O   UNL     1      -4.713  -0.132   7.493  0.00  0.00    -0.491 OA
ATOM     27  C   UNL     1      -5.252   0.737   8.491  0.00  0.00    +0.277 C 
ENDBRANCH  22  26
ENDBRANCH  17  18
ENDBRANCH  15  17
ENDBRANCH  13  15
ENDBRANCH   1  13
BRANCH   4  28
ATOM     28  S   UNL     1      -2.112   0.129  -2.499  0.00  0.00    -0.081 S 
BRANCH  28  29
ATOM     29  C   UNL     1      -3.685  -0.408  -3.215  0.00  0.00    +0.112 C 
BRANCH  29  30
ATOM     30  C   UNL     1      -3.867   0.234  -4.566  0.00  0.00    -0.034 A 
ATOM     31  C   UNL     1      -4.507   1.458  -4.690  0.00  0.00    +0.024 A 
ATOM     32  C   UNL     1      -4.651   2.018  -5.945  0.00  0.00    +0.111 A 
ATOM     33  N   UNL     1      -4.198   1.397  -7.017  0.00  0.00    -0.263 NA
ATOM     34  C   UNL     1      -3.589   0.231  -6.937  0.00  0.00    +0.111 A 
ATOM     35  C   UNL     1      -3.404  -0.388  -5.715  0.00  0.00    +0.024 A 
ENDBRANCH  29  30
ENDBRANCH  28  29
ENDBRANCH   4  28
TORSDOF 10
