REMARK  Name = ZINC16020435
REMARK  9 active torsions:
REMARK  status: ('A' for Active; 'I' for Inactive)
REMARK    1  A    between atoms: C_1  and  C_2
REMARK    2  A    between atoms: C_5  and  C_8
REMARK    3  A    between atoms: C_8  and  N_9
REMARK    4  A    between atoms: C_10  and  C_12
REMARK    5  A    between atoms: C_12  and  C_14
REMARK    6  A    between atoms: C_12  and  N_15
REMARK    7  A    between atoms: C_16  and  C_18
REMARK    8  A    between atoms: C_20  and  C_33
REMARK    9  A    between atoms: C_20  and  C_34
REMARK                            x       y       z     vdW  Elec       q    Type
REMARK                         _______ _______ _______ _____ _____    ______ ____
ROOT
ATOM      1  N   UNL     1      -2.097  -0.574   2.315  0.00  0.00    -0.303 N 
ATOM      2  C   UNL     1      -1.734  -1.284   1.229  0.00  0.00    +0.236 C 
ATOM      3  O   UNL     1      -1.651  -2.492   1.295  0.00  0.00    -0.274 OA
ATOM      4  H   UNL     1      -2.164   0.393   2.262  0.00  0.00    +0.149 HD
ENDROOT
BRANCH   2   5
ATOM      5  C   UNL     1      -1.433  -0.578  -0.068  0.00  0.00    +0.179 C 
ATOM      6  C   UNL     1       0.002  -0.004   0.002  0.00  0.00    +0.040 C 
ATOM      7  S   UNL     1       0.736  -0.647  -1.565  0.00  0.00    -0.125 S 
ATOM      8  C   UNL     1      -0.855  -1.107  -2.378  0.00  0.00    +0.167 C 
ATOM      9  N   UNL     1      -1.631  -1.519  -1.172  0.00  0.00    -0.269 N 
ATOM     10  C   UNL     1      -2.254  -2.670  -1.503  0.00  0.00    +0.249 C 
ATOM     11  O   UNL     1      -3.224  -3.129  -0.933  0.00  0.00    -0.270 OA
ATOM     12  C   UNL     1      -1.580  -3.288  -2.662  0.00  0.00    +0.043 A 
ATOM     13  C   UNL     1      -0.685  -2.355  -3.194  0.00  0.00    -0.005 A 
ATOM     14  C   UNL     1       0.100  -2.687  -4.274  0.00  0.00    +0.007 A 
ATOM     15  C   UNL     1      -0.009  -3.942  -4.849  0.00  0.00    +0.000 A 
ATOM     16  C   UNL     1      -0.904  -4.866  -4.341  0.00  0.00    +0.001 A 
ATOM     17  C   UNL     1      -1.690  -4.547  -3.253  0.00  0.00    +0.013 A 
ATOM     18  C   UNL     1      -0.019   1.526   0.010  0.00  0.00    +0.025 C 
ATOM     19  C   UNL     1       0.751  -0.546   1.221  0.00  0.00    +0.025 C 
ENDBRANCH   2   5
BRANCH   1  20
ATOM     20  C   UNL     1      -2.390  -1.260   3.575  0.00  0.00    +0.156 C 
ATOM     21  C   UNL     1      -1.088  -1.493   4.344  0.00  0.00    +0.038 C 
BRANCH  20  23
ATOM     22  N   UNL     1      -3.728  -0.846   5.615  0.00  0.00    -0.310 N 
ATOM     23  C   UNL     1      -3.319  -0.412   4.406  0.00  0.00    +0.233 C 
ATOM     24  O   UNL     1      -3.699   0.660   3.986  0.00  0.00    -0.274 OA
ATOM     25  H   UNL     1      -3.424  -1.703   5.950  0.00  0.00    +0.149 HD
BRANCH  22  26
ATOM     26  C   UNL     1      -4.630  -0.021   6.422  0.00  0.00    +0.139 C 
BRANCH  26  31
ATOM     27  C   UNL     1      -5.787  -2.729  11.394  0.00  0.00    +0.044 C 
ATOM     28  C   UNL     1      -5.485  -2.023  10.097  0.00  0.00    -0.050 A 
ATOM     29  C   UNL     1      -4.404  -1.166  10.012  0.00  0.00    +0.003 A 
ATOM     30  C   UNL     1      -4.127  -0.518   8.823  0.00  0.00    +0.005 A 
ATOM     31  C   UNL     1      -4.932  -0.727   7.718  0.00  0.00    -0.030 A 
ATOM     32  C   UNL     1      -6.016  -1.580   7.805  0.00  0.00    +0.005 A 
ATOM     33  C   UNL     1      -6.290  -2.231   8.993  0.00  0.00    +0.003 A 
ENDBRANCH  26  31
ENDBRANCH  22  26
ENDBRANCH  20  23
ENDBRANCH   1  20
TORSDOF 5
