REMARK  Name = ZINC36694367
REMARK  11 active torsions:
REMARK  status: ('A' for Active; 'I' for Inactive)
REMARK    1  A    between atoms: C_1  and  C_2
REMARK    2  A    between atoms: C_2  and  N_3
REMARK    3  A    between atoms: N_3  and  C_4
REMARK    4  A    between atoms: N_3  and  C_6
REMARK    5  A    between atoms: C_4  and  C_5
REMARK    6  A    between atoms: C_6  and  C_7
REMARK    7  A    between atoms: C_7  and  N_8
REMARK    8  A    between atoms: C_19  and  C_21
REMARK    9  A    between atoms: C_26  and  S_27
REMARK   10  A    between atoms: S_27  and  C_30
REMARK   11  A    between atoms: C_30  and  C_31
REMARK                            x       y       z     vdW  Elec       q    Type
REMARK                         _______ _______ _______ _____ _____    ______ ____
ROOT
ATOM      1  N   UNL     1      -1.077  -3.782   1.927  0.00  0.00    -0.248 N 
ATOM      2  C   UNL     1      -0.091  -4.651   1.490  0.00  0.00    +0.168 A 
ATOM      3  N   UNL     1       0.994  -4.385   0.801  0.00  0.00    -0.224 NA
ATOM      4  C   UNL     1       1.877  -5.341   0.440  0.00  0.00    +0.080 A 
ATOM      5  C   UNL     1       3.075  -5.189  -0.296  0.00  0.00    +0.030 A 
ATOM      6  C   UNL     1       3.864  -6.273  -0.581  0.00  0.00    +0.017 A 
ATOM      7  C   UNL     1       3.520  -7.550  -0.161  0.00  0.00    +0.019 A 
ATOM      8  C   UNL     1       2.355  -7.735   0.563  0.00  0.00    +0.032 A 
ATOM      9  C   UNL     1       1.559  -6.655   0.852  0.00  0.00    +0.042 A 
ATOM     10  S   UNL     1       0.032  -6.418   1.728  0.00  0.00    -0.052 S 
ATOM     11 BR   UNL     1       4.632  -9.023  -0.573  0.00  0.00    -0.050 Br
ATOM     12  C   UNL     1      -2.123  -4.252   2.636  0.00  0.00    +0.254 C 
ATOM     13  O   UNL     1      -2.155  -5.420   2.970  0.00  0.00    -0.270 OA
ENDROOT
BRANCH  12  14
ATOM     14  C   UNL     1      -3.232  -3.347   3.005  0.00  0.00    +0.062 A 
ATOM     15  C   UNL     1      -2.982  -2.213   3.781  0.00  0.00    +0.015 A 
ATOM     16  C   UNL     1      -4.021  -1.372   4.122  0.00  0.00    +0.001 A 
ATOM     17  C   UNL     1      -5.308  -1.650   3.697  0.00  0.00    +0.002 A 
ATOM     18  C   UNL     1      -5.562  -2.772   2.928  0.00  0.00    +0.028 A 
ATOM     19  C   UNL     1      -4.532  -3.618   2.575  0.00  0.00    +0.100 A 
BRANCH  19  20
ATOM     20  S   UNL     1      -4.856  -5.042   1.590  0.00  0.00    -0.003 S 
ATOM     21  O   UNL     1      -4.258  -6.119   2.299  0.00  0.00    -0.169 OA
ATOM     22  O   UNL     1      -6.259  -5.014   1.363  0.00  0.00    -0.169 OA
BRANCH  20  23
ATOM     23  C   UNL     1      -3.967  -4.747   0.037  0.00  0.00    +0.168 C 
ATOM     24  C   UNL     1      -4.180  -5.933  -0.907  0.00  0.00    +0.028 C 
ENDBRANCH  20  23
ENDBRANCH  19  20
ENDBRANCH  12  14
BRANCH   1  25
ATOM     25  C   UNL     1      -0.983  -2.353   1.620  0.00  0.00    +0.097 C 
BRANCH  25  26
ATOM     26  C   UNL     1      -1.800  -2.047   0.363  0.00  0.00    -0.059 C 
BRANCH  26  27
ATOM     27  N   UNL     1      -1.706  -0.614   0.055  0.00  0.00    +0.380 N 
ATOM     28  H   UNL     1      -1.991  -0.077   0.860  0.00  0.00    -0.082 HD
BRANCH  27  30
ATOM     29  C   UNL     1      -0.192   1.235  -0.481  0.00  0.00    -0.017 C 
ATOM     30  C   UNL     1      -0.318  -0.278  -0.291  0.00  0.00    -0.082 C 
ENDBRANCH  27  30
BRANCH  27  31
ATOM     31  C   UNL     1      -2.584  -0.298  -1.080  0.00  0.00    -0.082 C 
ATOM     32  C   UNL     1      -4.042  -0.518  -0.672  0.00  0.00    -0.017 C 
ENDBRANCH  27  31
ENDBRANCH  26  27
ENDBRANCH  25  26
ENDBRANCH   1  25
TORSDOF 8
