REMARK  Name = ZINC41023563
REMARK  5 active torsions:
REMARK  status: ('A' for Active; 'I' for Inactive)
REMARK    1  A    between atoms: C_3  and  C_9
REMARK    2  A    between atoms: C_6  and  N_7
REMARK    3  A    between atoms: C_9  and  S_10
REMARK    4  A    between atoms: S_10  and  C_11
REMARK    5  A    between atoms: C_15  and  N_17
REMARK                            x       y       z     vdW  Elec       q    Type
REMARK                         _______ _______ _______ _____ _____    ______ ____
ROOT
ATOM      1  S   UNL     1       4.206   2.491   1.686  0.00  0.00    -0.081 S 
ENDROOT
BRANCH   1   2
ATOM      2  C   UNL     1       5.710   3.392   1.508  0.00  0.00    +0.192 A 
ATOM      3  N   UNL     1       6.152   3.676   0.292  0.00  0.00    -0.207 NA
ATOM      4  C   UNL     1       7.284   4.355   0.119  0.00  0.00    +0.122 A 
ATOM      5  C   UNL     1       8.003   4.767   1.237  0.00  0.00    +0.086 A 
ATOM      6  C   UNL     1       7.508   4.450   2.499  0.00  0.00    +0.122 A 
ATOM      7  N   UNL     1       6.366   3.772   2.595  0.00  0.00    -0.207 NA
ATOM      8  N   UNL     1       7.739   4.648  -1.156  0.00  0.00    -0.343 N 
ATOM      9  H   UNL     1       7.233   4.358  -1.931  0.00  0.00    +0.144 HD
ATOM     10  H   UNL     1       8.565   5.144  -1.275  0.00  0.00    +0.144 HD
BRANCH   6  11
ATOM     11  N   UNL     1       8.191   4.840   3.640  0.00  0.00    -0.343 N 
ATOM     12  H   UNL     1       9.021   5.336   3.563  0.00  0.00    +0.144 HD
ATOM     13  H   UNL     1       7.840   4.615   4.516  0.00  0.00    +0.144 HD
ENDBRANCH   6  11
ENDBRANCH   1   2
BRANCH   1  14
ATOM     14  C   UNL     1       3.671   2.190  -0.021  0.00  0.00    +0.113 C 
BRANCH  14  17
ATOM     15  C   UNL     1      -0.017   1.385   0.010  0.00  0.00    +0.023 A 
ATOM     16  C   UNL     1       1.171   2.091   0.002  0.00  0.00    +0.007 A 
ATOM     17  C   UNL     1       2.377   1.416  -0.013  0.00  0.00    -0.023 A 
ATOM     18  C   UNL     1       2.400   0.033  -0.021  0.00  0.00    +0.024 A 
ATOM     19  C   UNL     1       1.216  -0.679  -0.014  0.00  0.00    +0.038 A 
ATOM     20  C   UNL     1       0.002  -0.004   0.002  0.00  0.00    +0.026 A 
ATOM     21 BR   UNL     1       4.054  -0.885  -0.043  0.00  0.00    -0.050 Br
BRANCH  20  22
ATOM     22  N   UNL     1      -1.197  -0.720   0.010  0.00  0.00    -0.358 N 
ATOM     23  H   UNL     1      -2.044  -0.248   0.020  0.00  0.00    +0.142 HD
ATOM     24  H   UNL     1      -1.183  -1.690   0.004  0.00  0.00    +0.142 HD
ENDBRANCH  20  22
ENDBRANCH  14  17
ENDBRANCH   1  14
TORSDOF 5
