REMARK  Name = ZINC38980891
REMARK  8 active torsions:
REMARK  status: ('A' for Active; 'I' for Inactive)
REMARK    1  A    between atoms: C_1  and  C_2
REMARK    2  A    between atoms: C_5  and  S_9
REMARK    3  A    between atoms: C_6  and  C_8
REMARK    4  A    between atoms: S_9  and  N_12
REMARK    5  A    between atoms: C_14  and  N_24
REMARK    6  A    between atoms: N_24  and  C_25
REMARK    7  A    between atoms: C_28  and  O_31
REMARK    8  A    between atoms: O_31  and  C_32
REMARK                            x       y       z     vdW  Elec       q    Type
REMARK                         _______ _______ _______ _____ _____    ______ ____
ROOT
ATOM      1  N   UNL     1       1.468  -5.121   0.346  0.00  0.00    -0.110 NA
ATOM      2  C   UNL     1       1.784  -6.353   0.619  0.00  0.00    +0.192 C 
ATOM      3  C   UNL     1       3.070  -6.671   1.349  0.00  0.00    +0.237 C 
ATOM      4  N   UNL     1       3.369  -8.084   1.628  0.00  0.00    -0.359 N 
ATOM      5  C   UNL     1       2.518  -8.990   1.236  0.00  0.00    +0.063 A 
ATOM      6  C   UNL     1       2.771 -10.416   1.491  0.00  0.00    +0.027 A 
ATOM      7  C   UNL     1       1.865 -11.325   1.069  0.00  0.00    +0.002 A 
ATOM      8  C   UNL     1       0.692 -10.943   0.397  0.00  0.00    +0.002 A 
ATOM      9  C   UNL     1       0.392  -9.654   0.127  0.00  0.00    +0.030 A 
ATOM     10  C   UNL     1       1.271  -8.615   0.523  0.00  0.00    +0.089 A 
ATOM     11  N   UNL     1       0.971  -7.360   0.262  0.00  0.00    -0.226 NA
ATOM     12  H   UNL     1       4.182  -8.336   2.093  0.00  0.00    +0.162 HD
ENDROOT
BRANCH   1  13
ATOM     13  S   UNL     1       0.054  -4.786  -0.448  0.00  0.00    +0.101 S 
ATOM     14  O   UNL     1      -1.002  -5.152   0.431  0.00  0.00    -0.146 OA
ATOM     15  O   UNL     1       0.181  -5.332  -1.754  0.00  0.00    -0.146 OA
BRANCH  13  20
ATOM     16  C   UNL     1      -0.250   1.204  -1.106  0.00  0.00    +0.044 C 
ATOM     17  C   UNL     1      -0.174  -0.292  -0.942  0.00  0.00    -0.050 A 
ATOM     18  C   UNL     1      -0.067  -1.105  -2.055  0.00  0.00    +0.005 A 
ATOM     19  C   UNL     1       0.002  -2.478  -1.904  0.00  0.00    +0.029 A 
ATOM     20  C   UNL     1      -0.034  -3.037  -0.640  0.00  0.00    +0.115 A 
ATOM     21  C   UNL     1      -0.140  -2.224   0.473  0.00  0.00    -0.023 A 
ATOM     22  C   UNL     1      -0.205  -0.851   0.322  0.00  0.00    +0.008 A 
ATOM     23  C   UNL     1      -0.180  -2.833   1.850  0.00  0.00    +0.046 C 
ENDBRANCH  13  20
ENDBRANCH   1  13
BRANCH   3  24
ATOM     24  N   UNL     1       4.178  -6.127   0.560  0.00  0.00    -0.318 N 
ATOM     25  H   UNL     1       4.190  -6.242  -0.403  0.00  0.00    +0.148 HD
BRANCH  24  26
ATOM     26  C   UNL     1       5.219  -5.441   1.195  0.00  0.00    +0.029 A 
ATOM     27  C   UNL     1       6.185  -4.789   0.440  0.00  0.00    +0.026 A 
ATOM     28  C   UNL     1       7.211  -4.112   1.068  0.00  0.00    +0.048 A 
ATOM     29  C   UNL     1       7.278  -4.083   2.453  0.00  0.00    +0.130 A 
ATOM     30  C   UNL     1       6.314  -4.734   3.209  0.00  0.00    +0.048 A 
ATOM     31  C   UNL     1       5.283  -5.407   2.582  0.00  0.00    +0.026 A 
BRANCH  29  32
ATOM     32  O   UNL     1       8.289  -3.416   3.071  0.00  0.00    -0.406 OA
BRANCH  32  33
ATOM     33  C   UNL     1       8.296  -3.427   4.500  0.00  0.00    +0.575 C 
ATOM     34  F   UNL     1       8.383  -4.747   4.956  0.00  0.00    -0.133 F 
ATOM     35  F   UNL     1       9.396  -2.700   4.967  0.00  0.00    -0.133 F 
ATOM     36  F   UNL     1       7.116  -2.846   4.977  0.00  0.00    -0.133 F 
ENDBRANCH  32  33
ENDBRANCH  29  32
ENDBRANCH  24  26
ENDBRANCH   3  24
TORSDOF 6
