REMARK  Name = ZINC34756485
REMARK  7 active torsions:
REMARK  status: ('A' for Active; 'I' for Inactive)
REMARK    1  A    between atoms: C_4  and  C_7
REMARK    2  A    between atoms: C_7  and  C_8
REMARK    3  A    between atoms: C_8  and  C_9
REMARK    4  A    between atoms: C_9  and  N_10
REMARK    5  A    between atoms: C_23  and  S_25
REMARK    6  A    between atoms: S_25  and  C_26
REMARK    7  A    between atoms: C_26  and  C_27
REMARK                            x       y       z     vdW  Elec       q    Type
REMARK                         _______ _______ _______ _____ _____    ______ ____
ROOT
ATOM      1  N   UNL     1       5.958  -1.955   2.758  0.00  0.00    +0.382 N 
ATOM      2  C   UNL     1       5.006  -2.862   3.411  0.00  0.00    -0.060 C 
ATOM      3  C   UNL     1       5.391  -3.030   4.884  0.00  0.00    +0.088 C 
ATOM      4  N   UNL     1       6.794  -3.469   4.953  0.00  0.00    -0.318 N 
ATOM      5  C   UNL     1       7.796  -2.709   4.191  0.00  0.00    +0.088 C 
ATOM      6  C   UNL     1       7.298  -2.556   2.750  0.00  0.00    -0.060 C 
ATOM      7  C   UNL     1       7.159  -4.565   5.713  0.00  0.00    +0.134 A 
ATOM      8  C   UNL     1       7.645  -4.392   7.039  0.00  0.00    +0.051 A 
ATOM      9  C   UNL     1       7.837  -3.148   7.788  0.00  0.00    -0.025 A 
ATOM     10  C   UNL     1       8.316  -3.257   9.043  0.00  0.00    -0.004 A 
ATOM     11  S   UNL     1       8.537  -4.997   9.304  0.00  0.00    -0.073 S 
ATOM     12  C   UNL     1       7.986  -5.577   7.721  0.00  0.00    +0.115 A 
ATOM     13  N   UNL     1       7.860  -6.761   7.154  0.00  0.00    -0.214 NA
ATOM     14  C   UNL     1       7.402  -6.863   5.914  0.00  0.00    +0.191 A 
ATOM     15  N   UNL     1       7.057  -5.787   5.217  0.00  0.00    -0.206 NA
ATOM     16  C   UNL     1       8.600  -2.145  10.007  0.00  0.00    +0.043 C 
ATOM     17  C   UNL     1       8.617  -0.822   9.228  0.00  0.00    +0.005 C 
ATOM     18  C   UNL     1       7.379  -0.766   8.328  0.00  0.00    +0.005 C 
ATOM     19  C   UNL     1       7.517  -1.780   7.192  0.00  0.00    +0.037 C 
ATOM     20  H   UNL     1       5.986  -1.081   3.261  0.00  0.00    -0.082 HD
ENDROOT
BRANCH   1  21
ATOM     21  C   UNL     1       5.527  -1.708   1.375  0.00  0.00    -0.078 C 
BRANCH  21  22
ATOM     22  C   UNL     1       4.187  -0.969   1.384  0.00  0.00    -0.014 C 
BRANCH  22  23
ATOM     23  C   UNL     1       3.737  -0.711  -0.056  0.00  0.00    +0.033 C 
BRANCH  23  27
ATOM     24  C   UNL     1      -0.003   1.352  -0.034  0.00  0.00    +0.000 A 
ATOM     25  C   UNL     1       1.180   2.067  -0.030  0.00  0.00    +0.000 A 
ATOM     26  C   UNL     1       2.391   1.399  -0.037  0.00  0.00    +0.003 A 
ATOM     27  C   UNL     1       2.418   0.017  -0.047  0.00  0.00    -0.047 A 
ATOM     28  C   UNL     1       1.234  -0.698  -0.051  0.00  0.00    +0.003 A 
ATOM     29  C   UNL     1       0.024  -0.030  -0.046  0.00  0.00    +0.000 A 
ENDBRANCH  23  27
ENDBRANCH  22  23
ENDBRANCH  21  22
ENDBRANCH   1  21
BRANCH  14  30
ATOM     30  S   UNL     1       7.243  -8.457   5.179  0.00  0.00    -0.077 S 
BRANCH  30  31
ATOM     31  C   UNL     1       7.811  -9.595   6.473  0.00  0.00    +0.172 C 
BRANCH  31  32
ATOM     32  C   UNL     1       7.725 -11.012   5.968  0.00  0.00    +0.221 C 
ATOM     33  O   UNL     1       7.321 -11.233   4.846  0.00  0.00    -0.275 OA
ATOM     34  N   UNL     1       8.098 -12.034   6.763  0.00  0.00    -0.329 N 
ATOM     35  H   UNL     1       8.421 -11.858   7.660  0.00  0.00    +0.145 HD
ATOM     36  H   UNL     1       8.043 -12.947   6.438  0.00  0.00    +0.145 HD
ENDBRANCH  31  32
ENDBRANCH  30  31
ENDBRANCH  14  30
TORSDOF 7
