REMARK  Name = ZINC32796268
REMARK  6 active torsions:
REMARK  status: ('A' for Active; 'I' for Inactive)
REMARK    1  A    between atoms: C_4  and  C_7
REMARK    2  A    between atoms: C_7  and  N_8
REMARK    3  A    between atoms: C_9  and  C_11
REMARK    4  A    between atoms: C_11  and  C_12
REMARK    5  A    between atoms: C_12  and  C_14
REMARK    6  A    between atoms: C_12  and  N_21
REMARK                            x       y       z     vdW  Elec       q    Type
REMARK                         _______ _______ _______ _____ _____    ______ ____
ROOT
ATOM      1  C   UNL     1      -0.188   1.215   4.919  0.00  0.00    +0.113 C 
ENDROOT
BRANCH   1   2
ATOM      2  C   UNL     1      -1.008   1.634   6.111  0.00  0.00    -0.027 A 
ATOM      3  C   UNL     1      -1.012   2.955   6.518  0.00  0.00    +0.006 A 
ATOM      4  C   UNL     1      -1.769   3.340   7.609  0.00  0.00    +0.015 A 
ATOM      5  C   UNL     1      -2.514   2.402   8.300  0.00  0.00    +0.018 A 
ATOM      6  C   UNL     1      -2.505   1.079   7.896  0.00  0.00    +0.015 A 
ATOM      7  C   UNL     1      -1.753   0.696   6.802  0.00  0.00    +0.006 A 
ATOM      8 BR   UNL     1      -3.543   2.927   9.797  0.00  0.00    -0.050 Br
ENDBRANCH   1   2
BRANCH   1   9
ATOM      9  N   UNL     1       1.144   1.819   5.007  0.00  0.00    -0.292 N 
ATOM     10  C   UNL     1       2.099   1.238   5.760  0.00  0.00    +0.298 C 
ATOM     11  O   UNL     1       1.887   0.163   6.287  0.00  0.00    -0.253 OA
ATOM     12  N   UNL     1       3.289   1.848   5.929  0.00  0.00    -0.313 N 
ATOM     13  H   UNL     1       1.365   2.746   4.458  0.00  0.00    +0.151 HD
ATOM     14  H   UNL     1       4.068   1.374   6.544  0.00  0.00    +0.146 HD
ATOM     15  H   UNL     1       3.481   2.820   5.452  0.00  0.00    +0.146 HD
ENDBRANCH   1   9
BRANCH   1  16
ATOM     16  C   UNL     1      -0.876   1.685   3.636  0.00  0.00    +0.123 C 
BRANCH  16  18
ATOM     17  N   UNL     1      -0.549   1.450   1.195  0.00  0.00    -0.311 N 
ATOM     18  C   UNL     1      -0.122   1.161   2.440  0.00  0.00    +0.215 C 
ATOM     19  O   UNL     1       0.869   0.480   2.599  0.00  0.00    -0.276 OA
ATOM     20  H   UNL     1      -1.448   2.068   1.051  0.00  0.00    +0.149 HD
BRANCH  17  21
ATOM     21  C   UNL     1       0.184   0.942   0.033  0.00  0.00    +0.139 C 
BRANCH  21  25
ATOM     22  C   UNL     1      -1.738   2.252  -3.549  0.00  0.00    +0.000 A 
ATOM     23  C   UNL     1      -0.749   3.026  -2.973  0.00  0.00    +0.000 A 
ATOM     24  C   UNL     1      -0.127   2.602  -1.814  0.00  0.00    +0.005 A 
ATOM     25  C   UNL     1      -0.494   1.404  -1.231  0.00  0.00    -0.030 A 
ATOM     26  C   UNL     1      -1.480   0.627  -1.810  0.00  0.00    +0.005 A 
ATOM     27  C   UNL     1      -2.105   1.053  -2.966  0.00  0.00    +0.000 A 
ENDBRANCH  21  25
ENDBRANCH  17  21
ENDBRANCH  16  18
ENDBRANCH   1  16
TORSDOF 6
