REMARK  Name = ZINC02911995
REMARK  10 active torsions:
REMARK  status: ('A' for Active; 'I' for Inactive)
REMARK    1  A    between atoms: C_1  and  C_2
REMARK    2  A    between atoms: C_2  and  C_3
REMARK    3  A    between atoms: C_3  and  S_4
REMARK    4  A    between atoms: S_4  and  C_5
REMARK    5  A    between atoms: C_18  and  C_21
REMARK    6  A    between atoms: C_24  and  N_27
REMARK    7  A    between atoms: N_27  and  C_28
REMARK    8  A    between atoms: N_27  and  C_30
REMARK    9  A    between atoms: C_28  and  C_29
REMARK   10  A    between atoms: C_30  and  C_31
REMARK                            x       y       z     vdW  Elec       q    Type
REMARK                         _______ _______ _______ _____ _____    ______ ____
ROOT
ATOM      1  C   UNL     1       4.691  -0.076   0.057  0.00  0.00    +0.212 A 
ATOM      2  N   UNL     1       3.752  -0.427  -0.816  0.00  0.00    -0.184 NA
ATOM      3  C   UNL     1       2.615   0.247  -0.849  0.00  0.00    +0.248 A 
ATOM      4  C   UNL     1       2.436   1.321   0.053  0.00  0.00    +0.156 A 
ATOM      5  N   UNL     1       3.413   1.620   0.896  0.00  0.00    -0.141 NA
ATOM      6  N   UNL     1       4.505   0.938   0.892  0.00  0.00    -0.122 NA
ATOM      7  C   UNL     1       1.168   2.081   0.042  0.00  0.00    +0.028 A 
ATOM      8  C   UNL     1       1.152   3.470   0.044  0.00  0.00    +0.012 A 
ATOM      9  C   UNL     1      -0.054   4.142   0.058  0.00  0.00    +0.001 A 
ATOM     10  C   UNL     1      -1.247   3.439   0.069  0.00  0.00    +0.002 A 
ATOM     11  C   UNL     1      -1.246   2.057   0.058  0.00  0.00    +0.024 A 
ATOM     12  C   UNL     1      -0.046   1.369   0.039  0.00  0.00    +0.039 A 
ATOM     13  N   UNL     1      -0.008  -0.028   0.011  0.00  0.00    -0.305 N 
ATOM     14  C   UNL     1       0.464  -0.693  -1.199  0.00  0.00    +0.294 C 
ATOM     15  O   UNL     1       1.631  -0.070  -1.724  0.00  0.00    -0.449 OA
ATOM     16  H   UNL     1      -0.289  -0.545   0.782  0.00  0.00    +0.150 HD
ENDROOT
BRANCH  14  17
ATOM     17  C   UNL     1      -0.626  -0.648  -2.240  0.00  0.00    +0.011 A 
ATOM     18  C   UNL     1      -1.945  -0.829  -1.865  0.00  0.00    +0.011 A 
ATOM     19  C   UNL     1      -2.946  -0.783  -2.816  0.00  0.00    +0.023 A 
ATOM     20  C   UNL     1      -2.626  -0.567  -4.150  0.00  0.00    +0.030 A 
ATOM     21  C   UNL     1      -1.300  -0.391  -4.523  0.00  0.00    +0.023 A 
ATOM     22  C   UNL     1      -0.304  -0.432  -3.567  0.00  0.00    +0.011 A 
BRANCH  20  23
ATOM     23  N   UNL     1      -3.636  -0.525  -5.114  0.00  0.00    -0.330 N 
BRANCH  23  24
ATOM     24  C   UNL     1      -5.034  -0.710  -4.719  0.00  0.00    +0.102 C 
ATOM     25  C   UNL     1      -5.653   0.648  -4.381  0.00  0.00    +0.024 C 
ENDBRANCH  23  24
BRANCH  23  26
ATOM     26  C   UNL     1      -3.296  -0.296  -6.521  0.00  0.00    +0.102 C 
ATOM     27  C   UNL     1      -3.046  -1.639  -7.210  0.00  0.00    +0.024 C 
ENDBRANCH  23  26
ENDBRANCH  20  23
ENDBRANCH  14  17
BRANCH   1  28
ATOM     28  S   UNL     1       6.208  -0.972   0.106  0.00  0.00    -0.084 S 
BRANCH  28  29
ATOM     29  C   UNL     1       7.058  -0.080   1.431  0.00  0.00    +0.077 C 
BRANCH  29  31
ATOM     30  C   UNL     1       9.157   0.056   2.779  0.00  0.00    +0.004 C 
ATOM     31  C   UNL     1       8.438  -0.699   1.659  0.00  0.00    +0.008 C 
ENDBRANCH  29  31
ENDBRANCH  28  29
ENDBRANCH   1  28
TORSDOF 7
