REMARK  Name = ZINC37944033
REMARK  4 active torsions:
REMARK  status: ('A' for Active; 'I' for Inactive)
REMARK    1  A    between atoms: C_5  and  N_7
REMARK    2  A    between atoms: N_7  and  C_8
REMARK    3  A    between atoms: C_8  and  C_18
REMARK    4  A    between atoms: C_15  and  O_17
REMARK                            x       y       z     vdW  Elec       q    Type
REMARK                         _______ _______ _______ _____ _____    ______ ____
ROOT
ATOM      1  C   UNL     1      -0.068  -2.744  -0.064  0.00  0.00    +0.172 C 
ATOM      2  C   UNL     1      -0.813  -2.367   1.238  0.00  0.00    +0.269 C 
ATOM      3  O   UNL     1      -0.523  -3.477   2.105  0.00  0.00    -0.489 OA
ATOM      4  C   UNL     1      -0.303  -4.590   1.352  0.00  0.00    +0.130 A 
ATOM      5  C   UNL     1      -0.012  -4.256   0.034  0.00  0.00    +0.030 A 
ATOM      6  C   UNL     1       0.256  -5.233  -0.899  0.00  0.00    +0.013 A 
ATOM      7  C   UNL     1       0.232  -6.566  -0.533  0.00  0.00    +0.046 A 
ATOM      8  C   UNL     1      -0.064  -6.914   0.777  0.00  0.00    +0.120 A 
ATOM      9  C   UNL     1      -0.331  -5.932   1.716  0.00  0.00    +0.091 A 
ENDROOT
BRANCH   1  10
ATOM     10  C   UNL     1      -0.850  -2.311  -1.277  0.00  0.00    +0.242 C 
ATOM     11  O   UNL     1      -1.648  -3.069  -1.786  0.00  0.00    -0.273 OA
ATOM     12  N   UNL     1      -0.662  -1.082  -1.797  0.00  0.00    -0.327 N 
ATOM     13  H   UNL     1      -0.077  -0.451  -1.349  0.00  0.00    +0.145 HD
ATOM     14  H   UNL     1      -1.111  -0.829  -2.618  0.00  0.00    +0.145 HD
ENDBRANCH   1  10
BRANCH   1  15
ATOM     15  N   UNL     1       1.280  -2.170  -0.080  0.00  0.00    -0.323 N 
ATOM     16  H   UNL     1       1.576  -1.605   0.651  0.00  0.00    +0.148 HD
BRANCH  15  21
ATOM     17  C   UNL     1       2.527  -3.390  -3.315  0.00  0.00    +0.002 A 
ATOM     18  C   UNL     1       3.842  -2.964  -3.266  0.00  0.00    +0.001 A 
ATOM     19  C   UNL     1       4.308  -2.276  -2.162  0.00  0.00    +0.017 A 
ATOM     20  C   UNL     1       3.461  -2.010  -1.103  0.00  0.00    +0.039 A 
ATOM     21  C   UNL     1       2.139  -2.436  -1.149  0.00  0.00    +0.042 A 
ATOM     22  C   UNL     1       1.675  -3.128  -2.260  0.00  0.00    +0.024 A 
ATOM     23 BR   UNL     1       4.100  -1.069   0.407  0.00  0.00    -0.048 Br
ENDBRANCH  15  21
ENDBRANCH   1  15
BRANCH   8  24
ATOM     24  O   UNL     1      -0.092  -8.224   1.140  0.00  0.00    -0.507 OA
ATOM     25  H   UNL     1       0.758  -8.565   1.449  0.00  0.00    +0.292 HD
ENDBRANCH   8  24
TORSDOF 4
