REMARK  Name = ZINC63547657
REMARK  8 active torsions:
REMARK  status: ('A' for Active; 'I' for Inactive)
REMARK    1  A    between atoms: C_1  and  C_2
REMARK    2  A    between atoms: C_4  and  S_15
REMARK    3  A    between atoms: C_5  and  C_14
REMARK    4  A    between atoms: N_7  and  C_8
REMARK    5  A    between atoms: S_15  and  N_18
REMARK    6  A    between atoms: N_18  and  C_19
REMARK    7  A    between atoms: C_19  and  C_20
REMARK    8  A    between atoms: C_20  and  C_21
REMARK                            x       y       z     vdW  Elec       q    Type
REMARK                         _______ _______ _______ _____ _____    ______ ____
ROOT
ATOM      1  S   UNL     1      -2.673  -0.284  -1.142  0.00  0.00    +0.058 S 
ATOM      2  O   UNL     1      -3.873  -0.805  -0.587  0.00  0.00    -0.153 OA
ATOM      3  O   UNL     1      -2.553   1.067  -1.566  0.00  0.00    -0.153 OA
ENDROOT
BRANCH   1   6
ATOM      4  C   UNL     1      -0.019   1.526   0.010  0.00  0.00    +0.036 C 
ATOM      5  C   UNL     1       0.002  -0.004   0.002  0.00  0.00    +0.142 C 
ATOM      6  C   UNL     1      -1.407  -0.551   0.054  0.00  0.00    +0.122 C 
ATOM      7  C   UNL     1      -1.515  -1.263   1.156  0.00  0.00    +0.043 C 
ATOM      8  N   UNL     1      -0.338  -1.274   1.879  0.00  0.00    -0.266 N 
ATOM      9  N   UNL     1       0.645  -0.516   1.224  0.00  0.00    -0.245 N 
ATOM     10  C   UNL     1      -2.772  -1.979   1.578  0.00  0.00    +0.064 C 
ATOM     11  H   UNL     1      -0.210  -1.740   2.721  0.00  0.00    +0.170 HD
BRANCH   9  12
ATOM     12  C   UNL     1       1.960  -0.293   1.641  0.00  0.00    +0.048 A 
ATOM     13  C   UNL     1       2.811   0.491   0.873  0.00  0.00    +0.025 A 
ATOM     14  C   UNL     1       4.109   0.710   1.289  0.00  0.00    +0.002 A 
ATOM     15  C   UNL     1       4.563   0.148   2.469  0.00  0.00    +0.000 A 
ATOM     16  C   UNL     1       3.719  -0.634   3.235  0.00  0.00    +0.002 A 
ATOM     17  C   UNL     1       2.417  -0.852   2.828  0.00  0.00    +0.025 A 
ENDBRANCH   9  12
ENDBRANCH   1   6
BRANCH   1  18
ATOM     18  N   UNL     1      -2.312  -1.226  -2.455  0.00  0.00    -0.190 NA
ATOM     19  H   UNL     1      -2.094  -0.811  -3.305  0.00  0.00    +0.148 HD
BRANCH  18  20
ATOM     20  C   UNL     1      -2.322  -2.686  -2.335  0.00  0.00    +0.110 C 
BRANCH  20  21
ATOM     21  C   UNL     1      -2.330  -3.313  -3.731  0.00  0.00    +0.050 C 
BRANCH  21  22
ATOM     22  C   UNL     1      -2.341  -4.815  -3.607  0.00  0.00    -0.040 C 
ATOM     23  C   UNL     1      -3.423  -5.626  -3.636  0.00  0.00    +0.000 A 
ATOM     24  C   UNL     1      -4.859  -5.362  -3.786  0.00  0.00    +0.030 A 
ATOM     25  C   UNL     1      -5.722  -6.404  -3.776  0.00  0.00    +0.042 A 
ATOM     26  C   UNL     1      -5.279  -7.727  -3.626  0.00  0.00    +0.022 A 
ATOM     27  C   UNL     1      -3.976  -8.047  -3.483  0.00  0.00    +0.027 A 
ATOM     28  C   UNL     1      -2.982  -7.030  -3.480  0.00  0.00    +0.043 A 
ATOM     29  N   UNL     1      -1.677  -7.086  -3.358  0.00  0.00    -0.380 N 
ATOM     30  C   UNL     1      -1.143  -5.721  -3.430  0.00  0.00    +0.144 C 
ATOM     31 CL   UNL     1      -7.421  -6.096  -3.953  0.00  0.00    -0.084 Cl
ATOM     32  H   UNL     1      -1.153  -7.894  -3.243  0.00  0.00    +0.160 HD
ENDBRANCH  21  22
ENDBRANCH  20  21
ENDBRANCH  18  20
ENDBRANCH   1  18
TORSDOF 6
