REMARK  Name = ZINC13305788
REMARK  7 active torsions:
REMARK  status: ('A' for Active; 'I' for Inactive)
REMARK    1  A    between atoms: C_4  and  C_7
REMARK    2  A    between atoms: C_8  and  C_9
REMARK    3  A    between atoms: N_11  and  C_12
REMARK    4  A    between atoms: C_12  and  C_14
REMARK    5  A    between atoms: C_12  and  O_18
REMARK    6  A    between atoms: O_18  and  C_19
REMARK    7  A    between atoms: C_22  and  N_25
REMARK                            x       y       z     vdW  Elec       q    Type
REMARK                         _______ _______ _______ _____ _____    ______ ____
ROOT
ATOM      1  C   UNL     1       0.225   1.972  -2.071  0.00  0.00    +0.314 C 
ENDROOT
BRANCH   1   4
ATOM      2  C   UNL     1       2.390   1.001  -1.517  0.00  0.00    +0.240 C 
ATOM      3  O   UNL     1       2.135   0.074  -2.263  0.00  0.00    -0.271 OA
ATOM      4  N   UNL     1       1.523   2.025  -1.393  0.00  0.00    -0.274 N 
ATOM      5  H   UNL     1       1.758   2.797  -0.856  0.00  0.00    +0.153 HD
BRANCH   2   7
ATOM      6  C   UNL     1       4.439  -0.082  -0.765  0.00  0.00    +0.013 C 
ATOM      7  C   UNL     1       3.640   1.003  -0.753  0.00  0.00    +0.068 C 
BRANCH   6  11
ATOM      8  C   UNL     1       3.033  -3.735  -2.401  0.00  0.00    +0.000 A 
ATOM      9  C   UNL     1       4.315  -3.301  -2.688  0.00  0.00    +0.001 A 
ATOM     10  C   UNL     1       4.780  -2.114  -2.160  0.00  0.00    +0.008 A 
ATOM     11  C   UNL     1       3.951  -1.350  -1.333  0.00  0.00    -0.025 A 
ATOM     12  C   UNL     1       2.658  -1.798  -1.044  0.00  0.00    +0.008 A 
ATOM     13  C   UNL     1       2.207  -2.983  -1.584  0.00  0.00    +0.001 A 
ENDBRANCH   6  11
ENDBRANCH   2   7
ENDBRANCH   1   4
BRANCH   1  14
ATOM     14  C   UNL     1      -0.852   2.560  -1.157  0.00  0.00    +0.244 C 
ATOM     15 CL   UNL     1      -2.449   2.495  -1.991  0.00  0.00    -0.078 Cl
ATOM     16 CL   UNL     1      -0.931   1.605   0.370  0.00  0.00    -0.078 Cl
ATOM     17 CL   UNL     1      -0.444   4.274  -0.774  0.00  0.00    -0.078 Cl
ENDBRANCH   1  14
BRANCH   1  18
ATOM     18  O   UNL     1       0.288   2.728  -3.281  0.00  0.00    -0.467 OA
BRANCH  18  19
ATOM     19  C   UNL     1      -0.411   2.252  -4.344  0.00  0.00    +0.123 A 
ATOM     20  C   UNL     1      -1.189   1.111  -4.209  0.00  0.00    +0.048 A 
ATOM     21  C   UNL     1      -1.903   0.631  -5.290  0.00  0.00    +0.036 A 
ATOM     22  C   UNL     1      -1.835   1.281  -6.508  0.00  0.00    +0.126 A 
ATOM     23  C   UNL     1      -1.057   2.415  -6.647  0.00  0.00    +0.036 A 
ATOM     24  C   UNL     1      -0.345   2.902  -5.568  0.00  0.00    +0.048 A 
BRANCH  22  25
ATOM     25  N   UNL     1      -2.597   0.761  -7.666  0.00  0.00    +0.056 N 
ATOM     26  O   UNL     1      -2.538   1.332  -8.740  0.00  0.00    -0.126 OA
ATOM     27  O   UNL     1      -3.282  -0.239  -7.545  0.00  0.00    -0.126 OA
ENDBRANCH  22  25
ENDBRANCH  18  19
ENDBRANCH   1  18
TORSDOF 7
