REMARK  Name = ZINC08933393
REMARK  9 active torsions:
REMARK  status: ('A' for Active; 'I' for Inactive)
REMARK    1  A    between atoms: C_1  and  C_2
REMARK    2  A    between atoms: C_8  and  C_9
REMARK    3  A    between atoms: C_8  and  N_68
REMARK    4  A    between atoms: C_9  and  C_10
REMARK    5  A    between atoms: C_10  and  N_11
REMARK    6  A    between atoms: C_12  and  C_14
REMARK    7  A    between atoms: C_14  and  N_15
REMARK    8  A    between atoms: N_28  and  C_29
REMARK    9  A    between atoms: C_29  and  C_30
REMARK                            x       y       z     vdW  Elec       q    Type
REMARK                         _______ _______ _______ _____ _____    ______ ____
ROOT
ATOM      1  N   UNL     1       1.877  11.396   0.355  0.00  0.00    -0.219 N 
ATOM      2  C   UNL     1       1.714  12.037   1.530  0.00  0.00    +0.292 A 
ATOM      3  O   UNL     1       1.738  11.415   2.580  0.00  0.00    -0.264 OA
ATOM      4  C   UNL     1       1.513  13.438   1.534  0.00  0.00    +0.119 A 
ATOM      5  C   UNL     1       1.492  14.111   0.313  0.00  0.00    +0.033 A 
ATOM      6  C   UNL     1       1.670  13.388  -0.886  0.00  0.00    +0.143 A 
ATOM      7  N   UNL     1       1.857  12.098  -0.854  0.00  0.00    -0.175 NA
ATOM      8  C   UNL     1       1.271  15.530   0.622  0.00  0.00    +0.009 A 
ATOM      9  C   UNL     1       1.155  16.681  -0.159  0.00  0.00    +0.010 A 
ATOM     10  C   UNL     1       0.945  17.891   0.440  0.00  0.00    +0.001 A 
ATOM     11  C   UNL     1       0.847  17.986   1.821  0.00  0.00    +0.002 A 
ATOM     12  C   UNL     1       0.958  16.863   2.610  0.00  0.00    +0.026 A 
ATOM     13  C   UNL     1       1.172  15.619   2.021  0.00  0.00    +0.051 A 
ATOM     14  N   UNL     1       1.321  14.353   2.545  0.00  0.00    -0.331 N 
ENDROOT
BRANCH   1  15
ATOM     15  C   UNL     1       2.085   9.946   0.345  0.00  0.00    +0.243 C 
BRANCH  15  17
ATOM     16  N   UNL     1       0.697   7.902   0.232  0.00  0.00    -0.314 N 
ATOM     17  C   UNL     1       0.753   9.248   0.256  0.00  0.00    +0.235 C 
ATOM     18  O   UNL     1      -0.270   9.898   0.205  0.00  0.00    -0.274 OA
ATOM     19  H   UNL     1       1.516   7.382   0.273  0.00  0.00    +0.149 HD
BRANCH  16  20
ATOM     20  C   UNL     1      -0.598   7.223   0.145  0.00  0.00    +0.102 C 
BRANCH  20  21
ATOM     21  C   UNL     1      -0.381   5.708   0.135  0.00  0.00    +0.000 C 
BRANCH  21  22
ATOM     22  C   UNL     1      -1.734   5.000   0.044  0.00  0.00    -0.077 C 
BRANCH  22  29
ATOM     23  C   UNL     1      -1.542   3.608   2.482  0.00  0.00    -0.013 C 
ATOM     24  C   UNL     1      -0.804   3.109   1.238  0.00  0.00    -0.072 C 
ATOM     25  C   UNL     1      -0.732   1.581   1.266  0.00  0.00    -0.016 C 
ATOM     26  C   UNL     1      -0.013   1.086   0.008  0.00  0.00    -0.003 C 
ATOM     27  C   UNL     1      -0.756   1.594  -1.230  0.00  0.00    -0.019 C 
ATOM     28  C   UNL     1      -0.826   3.122  -1.185  0.00  0.00    -0.078 C 
ATOM     29  N   UNL     1      -1.552   3.533   0.035  0.00  0.00    +0.381 N 
ATOM     30  H   UNL     1      -2.475   3.083   0.041  0.00  0.00    -0.081 HD
ENDBRANCH  22  29
ENDBRANCH  21  22
ENDBRANCH  20  21
ENDBRANCH  16  20
ENDBRANCH  15  17
ENDBRANCH   1  15
BRANCH  14  31
ATOM     31  C   UNL     1       1.280  14.027   3.973  0.00  0.00    +0.157 C 
BRANCH  31  32
ATOM     32  C   UNL     1       2.670  14.116   4.548  0.00  0.00    -0.028 A 
ATOM     33  C   UNL     1       3.486  13.001   4.559  0.00  0.00    +0.008 A 
ATOM     34  C   UNL     1       4.763  13.082   5.082  0.00  0.00    +0.038 A 
ATOM     35  C   UNL     1       5.220  14.280   5.605  0.00  0.00    +0.123 A 
ATOM     36  C   UNL     1       4.400  15.395   5.599  0.00  0.00    +0.038 A 
ATOM     37  C   UNL     1       3.126  15.312   5.071  0.00  0.00    +0.008 A 
ATOM     38  F   UNL     1       6.466  14.360   6.121  0.00  0.00    -0.205 F 
ENDBRANCH  31  32
ENDBRANCH  14  31
TORSDOF 8
