REMARK  Name = ZINC17072258
REMARK  4 active torsions:
REMARK  status: ('A' for Active; 'I' for Inactive)
REMARK    1  A    between atoms: N_9  and  C_13
REMARK    2  A    between atoms: C_13  and  C_14
REMARK    3  A    between atoms: C_17  and  S_20
REMARK    4  A    between atoms: S_20  and  N_23
REMARK                            x       y       z     vdW  Elec       q    Type
REMARK                         _______ _______ _______ _____ _____    ______ ____
ROOT
ATOM      1  C   UNL     1       2.640  -4.121  -0.044  0.00  0.00    +0.162 C 
ENDROOT
BRANCH   1  10
ATOM      2  C   UNL     1      -0.016   1.359   0.009  0.00  0.00    +0.001 A 
ATOM      3  C   UNL     1       1.168   2.091   0.002  0.00  0.00    +0.002 A 
ATOM      4  C   UNL     1       2.381   1.467  -0.013  0.00  0.00    +0.028 A 
ATOM      5  C   UNL     1       2.440   0.067  -0.021  0.00  0.00    +0.079 A 
ATOM      6  C   UNL     1       1.231  -0.678  -0.013  0.00  0.00    +0.065 A 
ATOM      7  C   UNL     1       0.002  -0.004   0.002  0.00  0.00    +0.015 A 
ATOM      8  C   UNL     1       1.307  -2.084  -0.021  0.00  0.00    +0.263 A 
ATOM      9  O   UNL     1       0.191  -2.835  -0.015  0.00  0.00    -0.267 OA
ATOM     10  N   UNL     1       2.530  -2.660  -0.036  0.00  0.00    -0.282 N 
ATOM     11  C   UNL     1       3.645  -1.911  -0.043  0.00  0.00    +0.183 A 
ATOM     12  N   UNL     1       3.611  -0.587  -0.036  0.00  0.00    -0.222 NA
ATOM     13  S   UNL     1       5.166  -2.697  -0.061  0.00  0.00    -0.011 S 
ENDBRANCH   1  10
BRANCH   1  14
ATOM     14  C   UNL     1       2.665  -4.615  -1.468  0.00  0.00    -0.027 A 
ATOM     15  C   UNL     1       1.482  -4.926  -2.112  0.00  0.00    +0.007 A 
ATOM     16  C   UNL     1       1.504  -5.379  -3.417  0.00  0.00    +0.029 A 
ATOM     17  C   UNL     1       2.709  -5.520  -4.080  0.00  0.00    +0.105 A 
ATOM     18  C   UNL     1       3.892  -5.207  -3.437  0.00  0.00    +0.029 A 
ATOM     19  C   UNL     1       3.869  -4.750  -2.132  0.00  0.00    +0.007 A 
BRANCH  17  20
ATOM     20  S   UNL     1       2.737  -6.098  -5.744  0.00  0.00    +0.056 S 
ATOM     21  O   UNL     1       4.025  -6.661  -5.957  0.00  0.00    -0.153 OA
ATOM     22  O   UNL     1       1.541  -6.840  -5.936  0.00  0.00    -0.153 OA
BRANCH  20  23
ATOM     23  N   UNL     1       2.634  -4.769  -6.726  0.00  0.00    -0.204 NA
ATOM     24  H   UNL     1       2.573  -3.883  -6.338  0.00  0.00    +0.144 HD
ATOM     25  H   UNL     1       2.634  -4.877  -7.690  0.00  0.00    +0.144 HD
ENDBRANCH  20  23
ENDBRANCH  17  20
ENDBRANCH   1  14
TORSDOF 4
