REMARK  Name = ZINC30978102
REMARK  12 active torsions:
REMARK  status: ('A' for Active; 'I' for Inactive)
REMARK    1  A    between atoms: C_1  and  C_2
REMARK    2  A    between atoms: C_2  and  C_3
REMARK    3  A    between atoms: C_2  and  C_4
REMARK    4  A    between atoms: C_2  and  C_5
REMARK    5  A    between atoms: C_8  and  C_11
REMARK    6  A    between atoms: C_13  and  C_16
REMARK    7  A    between atoms: C_16  and  N_17
REMARK    8  A    between atoms: C_20  and  C_23
REMARK    9  A    between atoms: N_25  and  C_26
REMARK   10  A    between atoms: C_26  and  C_27
REMARK   11  A    between atoms: C_31  and  C_33
REMARK   12  A    between atoms: C_33  and  N_34
REMARK                            x       y       z     vdW  Elec       q    Type
REMARK                         _______ _______ _______ _____ _____    ______ ____
ROOT
ATOM      1  N   UNL     1       0.706  -0.479  -1.196  0.00  0.00    +0.386 N 
ATOM      2  C   UNL     1       0.002  -0.004   0.002  0.00  0.00    -0.077 C 
ATOM      3  C   UNL     1      -0.019   1.526   0.010  0.00  0.00    -0.006 C 
ATOM      4  C   UNL     1       1.420   2.051  -0.001  0.00  0.00    +0.071 C 
ATOM      5  C   UNL     1       2.145   1.503  -1.232  0.00  0.00    -0.006 C 
ATOM      6  C   UNL     1       2.103  -0.026  -1.205  0.00  0.00    -0.077 C 
ATOM      7  H   UNL     1       0.207  -0.042  -2.073  0.00  0.00    -0.081 HD
ENDROOT
BRANCH   4   8
ATOM      8  C   UNL     1       1.405   3.557  -0.053  0.00  0.00    +0.216 C 
ATOM      9  O   UNL     1       0.349   4.153  -0.079  0.00  0.00    -0.276 OA
ATOM     10  N   UNL     1       2.566   4.242  -0.071  0.00  0.00    -0.311 N 
ATOM     11  H   UNL     1       3.524   3.701  -0.047  0.00  0.00    +0.149 HD
BRANCH  10  12
ATOM     12  C   UNL     1       2.553   5.706  -0.121  0.00  0.00    +0.139 C 
BRANCH  12  13
ATOM     13  C   UNL     1       3.969   6.222  -0.132  0.00  0.00    -0.030 A 
ATOM     14  C   UNL     1       4.624   6.417  -1.334  0.00  0.00    +0.005 A 
ATOM     15  C   UNL     1       5.923   6.890  -1.343  0.00  0.00    +0.001 A 
ATOM     16  C   UNL     1       6.566   7.168  -0.152  0.00  0.00    +0.005 A 
ATOM     17  C   UNL     1       5.911   6.973   1.049  0.00  0.00    -0.027 A 
ATOM     18  C   UNL     1       4.610   6.505   1.059  0.00  0.00    +0.010 A 
BRANCH  17  19
ATOM     19  C   UNL     1       6.612   7.277   2.348  0.00  0.00    +0.157 C 
BRANCH  19  20
ATOM     20  N   UNL     1       6.367   8.672   2.721  0.00  0.00    -0.332 N 
ATOM     21  C   UNL     1       7.133   9.752   2.375  0.00  0.00    +0.107 A 
ATOM     22  C   UNL     1       6.549  10.835   2.922  0.00  0.00    +0.130 A 
ATOM     23  N   UNL     1       5.461  10.427   3.591  0.00  0.00    -0.244 NA
ATOM     24  C   UNL     1       5.345   9.132   3.476  0.00  0.00    +0.199 A 
ENDBRANCH  19  20
ENDBRANCH  17  19
ENDBRANCH  12  13
ENDBRANCH  10  12
ENDBRANCH   4   8
BRANCH   1  25
ATOM     25  C   UNL     1       0.626  -1.941  -1.309  0.00  0.00    +0.022 C 
BRANCH  25  28
ATOM     26  C   UNL     1       2.362  -2.995  -4.275  0.00  0.00    +0.202 A 
ATOM     27  N   UNL     1       2.376  -2.675  -2.961  0.00  0.00    -0.193 NA
ATOM     28  C   UNL     1       1.139  -2.369  -2.660  0.00  0.00    +0.211 A 
ATOM     29  O   UNL     1       0.415  -2.515  -3.774  0.00  0.00    -0.340 OA
ATOM     30  N   UNL     1       1.128  -2.867  -4.690  0.00  0.00    -0.056 NA
BRANCH  26  34
ATOM     31  C   UNL     1       5.702  -4.192  -6.619  0.00  0.00    -0.042 A 
ATOM     32  C   UNL     1       4.450  -4.103  -7.199  0.00  0.00    +0.005 A 
ATOM     33  C   UNL     1       3.362  -3.715  -6.443  0.00  0.00    +0.012 A 
ATOM     34  C   UNL     1       3.527  -3.413  -5.093  0.00  0.00    +0.022 A 
ATOM     35  C   UNL     1       4.792  -3.500  -4.514  0.00  0.00    +0.012 A 
ATOM     36  C   UNL     1       5.872  -3.893  -5.279  0.00  0.00    +0.005 A 
BRANCH  31  38
ATOM     37  C   UNL     1       7.080  -3.628  -8.602  0.00  0.00    +0.015 C 
ATOM     38  C   UNL     1       6.886  -4.616  -7.449  0.00  0.00    -0.013 C 
ATOM     39  C   UNL     1       8.142  -4.633  -6.576  0.00  0.00    +0.015 C 
ATOM     40  C   UNL     1       6.638  -6.016  -8.014  0.00  0.00    +0.015 C 
ENDBRANCH  31  38
ENDBRANCH  26  34
ENDBRANCH  25  28
ENDBRANCH   1  25
TORSDOF 9
