REMARK  Name = ZINC01563397
REMARK  5 active torsions:
REMARK  status: ('A' for Active; 'I' for Inactive)
REMARK    1  A    between atoms: C_1  and  C_2
REMARK    2  A    between atoms: C_9  and  N_21
REMARK    3  A    between atoms: C_10  and  S_12
REMARK    4  A    between atoms: S_12  and  C_13
REMARK    5  A    between atoms: C_13  and  C_14
REMARK                            x       y       z     vdW  Elec       q    Type
REMARK                         _______ _______ _______ _____ _____    ______ ____
ROOT
ATOM      1  C   UNL     1      -0.017   5.528   0.031  0.00  0.00    +0.088 C 
ATOM      2  C   UNL     1      -0.011   4.021   0.024  0.00  0.00    +0.131 A 
ATOM      3  N   UNL     1      -1.170   3.384   0.031  0.00  0.00    -0.216 NA
ATOM      4  C   UNL     1      -1.230   2.059   0.019  0.00  0.00    +0.148 A 
ATOM      5  C   UNL     1      -0.016   1.332   0.009  0.00  0.00    +0.149 A 
ATOM      6  C   UNL     1       1.197   2.059   0.002  0.00  0.00    +0.185 A 
ATOM      7  N   UNL     1       1.145   3.398   0.009  0.00  0.00    -0.211 NA
ATOM      8  N   UNL     1       2.363   1.404  -0.012  0.00  0.00    -0.209 NA
ATOM      9  C   UNL     1       2.372   0.085  -0.019  0.00  0.00    +0.151 A 
ATOM     10  C   UNL     1       1.157  -0.640  -0.012  0.00  0.00    +0.138 A 
ATOM     11  N   UNL     1       0.002  -0.004   0.002  0.00  0.00    -0.230 NA
ATOM     12  N   UNL     1      -2.446   1.406   0.021  0.00  0.00    -0.341 N 
ATOM     13  H   UNL     1      -2.476   0.437   0.016  0.00  0.00    +0.144 HD
ATOM     14  H   UNL     1      -3.271   1.917   0.028  0.00  0.00    +0.144 HD
ENDROOT
BRANCH   9  15
ATOM     15  N   UNL     1       3.578  -0.594  -0.035  0.00  0.00    -0.341 N 
ATOM     16  H   UNL     1       3.588  -1.564  -0.040  0.00  0.00    +0.144 HD
ATOM     17  H   UNL     1       4.413  -0.100  -0.040  0.00  0.00    +0.144 HD
ENDBRANCH   9  15
BRANCH  10  18
ATOM     18  S   UNL     1       1.187  -2.402  -0.022  0.00  0.00    -0.098 S 
BRANCH  18  19
ATOM     19  C   UNL     1      -0.589  -2.747  -0.007  0.00  0.00    +0.111 C 
BRANCH  19  20
ATOM     20  C   UNL     1      -0.812  -4.238  -0.013  0.00  0.00    -0.037 A 
ATOM     21  C   UNL     1      -0.930  -4.914  -1.213  0.00  0.00    +0.006 A 
ATOM     22  C   UNL     1      -1.129  -6.282  -1.219  0.00  0.00    +0.020 A 
ATOM     23  C   UNL     1      -1.220  -6.973  -0.024  0.00  0.00    +0.041 A 
ATOM     24  C   UNL     1      -1.106  -6.295   1.177  0.00  0.00    +0.020 A 
ATOM     25  C   UNL     1      -0.902  -4.927   1.181  0.00  0.00    +0.006 A 
ATOM     26 CL   UNL     1      -1.475  -8.690  -0.031  0.00  0.00    -0.084 Cl
ENDBRANCH  19  20
ENDBRANCH  18  19
ENDBRANCH  10  18
TORSDOF 4
