REMARK  Name = ZINC30976969
REMARK  12 active torsions:
REMARK  status: ('A' for Active; 'I' for Inactive)
REMARK    1  A    between atoms: C_1  and  C_2
REMARK    2  A    between atoms: C_2  and  C_3
REMARK    3  A    between atoms: C_2  and  C_4
REMARK    4  A    between atoms: C_2  and  C_5
REMARK    5  A    between atoms: C_8  and  C_11
REMARK    6  A    between atoms: C_13  and  C_16
REMARK    7  A    between atoms: C_16  and  N_17
REMARK    8  A    between atoms: C_20  and  C_23
REMARK    9  A    between atoms: N_25  and  C_26
REMARK   10  A    between atoms: C_31  and  C_32
REMARK   11  A    between atoms: C_32  and  O_34
REMARK   12  A    between atoms: O_34  and  C_35
REMARK                            x       y       z     vdW  Elec       q    Type
REMARK                         _______ _______ _______ _____ _____    ______ ____
ROOT
ATOM      1  N   UNL     1       4.967   0.091   1.718  0.00  0.00    +0.386 N 
ATOM      2  C   UNL     1       5.035   0.859   0.468  0.00  0.00    -0.077 C 
ATOM      3  C   UNL     1       3.735   1.643   0.278  0.00  0.00    -0.006 C 
ATOM      4  C   UNL     1       2.557   0.666   0.235  0.00  0.00    +0.072 C 
ATOM      5  C   UNL     1       2.537  -0.154   1.528  0.00  0.00    -0.006 C 
ATOM      6  C   UNL     1       3.872  -0.887   1.682  0.00  0.00    -0.077 C 
ATOM      7  H   UNL     1       4.758   0.799   2.535  0.00  0.00    -0.081 HD
ENDROOT
BRANCH   4   8
ATOM      8  C   UNL     1       1.268   1.436   0.107  0.00  0.00    +0.220 C 
ATOM      9  O   UNL     1       1.288   2.648   0.056  0.00  0.00    -0.275 OA
ATOM     10  N   UNL     1       0.093   0.779   0.051  0.00  0.00    -0.285 N 
ATOM     11  H   UNL     1       0.078  -0.321   0.027  0.00  0.00    +0.155 HD
BRANCH  10  12
ATOM     12  C   UNL     1      -1.103   1.492   0.023  0.00  0.00    +0.047 A 
ATOM     13  C   UNL     1      -1.176   2.706  -0.646  0.00  0.00    +0.024 A 
ATOM     14  C   UNL     1      -2.362   3.411  -0.673  0.00  0.00    +0.002 A 
ATOM     15  C   UNL     1      -3.487   2.915  -0.034  0.00  0.00    +0.001 A 
ATOM     16  C   UNL     1      -3.434   1.712   0.634  0.00  0.00    +0.017 A 
ATOM     17  C   UNL     1      -2.242   0.984   0.665  0.00  0.00    +0.080 A 
BRANCH  17  18
ATOM     18  C   UNL     1      -2.180  -0.307   1.374  0.00  0.00    +0.341 C 
ATOM     19  O   UNL     1      -1.119  -0.889   1.485  0.00  0.00    -0.245 OA
BRANCH  18  20
ATOM     20  O   UNL     1      -3.300  -0.842   1.899  0.00  0.00    -0.464 OA
ATOM     21  C   UNL     1      -3.164  -2.116   2.583  0.00  0.00    +0.280 C 
ENDBRANCH  18  20
ENDBRANCH  17  18
ENDBRANCH  10  12
ENDBRANCH   4   8
BRANCH   1  22
ATOM     22  C   UNL     1       6.250  -0.565   2.004  0.00  0.00    +0.022 C 
BRANCH  22  25
ATOM     23  C   UNL     1       5.981  -2.396   5.085  0.00  0.00    +0.202 A 
ATOM     24  N   UNL     1       5.830  -2.334   3.743  0.00  0.00    -0.193 NA
ATOM     25  C   UNL     1       6.223  -1.133   3.400  0.00  0.00    +0.211 A 
ATOM     26  O   UNL     1       6.603  -0.509   4.519  0.00  0.00    -0.340 OA
ATOM     27  N   UNL     1       6.453  -1.241   5.474  0.00  0.00    -0.056 NA
BRANCH  23  31
ATOM     28  C   UNL     1       5.085  -5.725   7.576  0.00  0.00    -0.042 A 
ATOM     29  C   UNL     1       5.584  -4.562   8.133  0.00  0.00    +0.005 A 
ATOM     30  C   UNL     1       5.876  -3.478   7.330  0.00  0.00    +0.012 A 
ATOM     31  C   UNL     1       5.669  -3.558   5.955  0.00  0.00    +0.022 A 
ATOM     32  C   UNL     1       5.162  -4.731   5.399  0.00  0.00    +0.012 A 
ATOM     33  C   UNL     1       4.877  -5.810   6.211  0.00  0.00    +0.005 A 
BRANCH  28  35
ATOM     34  C   UNL     1       3.708  -6.502   9.486  0.00  0.00    +0.015 C 
ATOM     35  C   UNL     1       4.767  -6.904   8.458  0.00  0.00    -0.013 C 
ATOM     36  C   UNL     1       4.234  -8.054   7.601  0.00  0.00    +0.015 C 
ATOM     37  C   UNL     1       6.036  -7.355   9.184  0.00  0.00    +0.015 C 
ENDBRANCH  28  35
ENDBRANCH  23  31
ENDBRANCH  22  25
ENDBRANCH   1  22
TORSDOF 8
