REMARK  Name = ZINC16613188
REMARK  11 active torsions:
REMARK  status: ('A' for Active; 'I' for Inactive)
REMARK    1  A    between atoms: C_1  and  C_2
REMARK    2  A    between atoms: C_2  and  C_3
REMARK    3  A    between atoms: C_8  and  N_9
REMARK    4  A    between atoms: N_20  and  C_29
REMARK    5  A    between atoms: N_22  and  C_23
REMARK    6  A    between atoms: C_29  and  C_30
REMARK    7  A    between atoms: N_32  and  C_33
REMARK    8  A    between atoms: C_33  and  C_34
REMARK    9  A    between atoms: C_34  and  C_35
REMARK   10  A    between atoms: C_35  and  O_36
REMARK   11  A    between atoms: O_36  and  C_37
REMARK                            x       y       z     vdW  Elec       q    Type
REMARK                         _______ _______ _______ _____ _____    ______ ____
ROOT
ATOM      1  N   UNL     1      -1.344   8.717  -1.038  0.00  0.00    -0.269 N 
ATOM      2  C   UNL     1      -0.375   8.053  -1.699  0.00  0.00    +0.306 C 
ATOM      3  O   UNL     1      -0.374   8.029  -2.914  0.00  0.00    -0.252 OA
ATOM      4  N   UNL     1       0.594   7.416  -1.012  0.00  0.00    -0.285 N 
ATOM      5  C   UNL     1       1.705   6.763  -1.717  0.00  0.00    +0.112 C 
ATOM      6  C   UNL     1       1.788   5.303  -1.260  0.00  0.00    +0.054 C 
ATOM      7  C   UNL     1       1.879   5.252   0.262  0.00  0.00    +0.115 C 
ATOM      8  C   UNL     1       0.650   5.896   0.896  0.00  0.00    +0.054 C 
ATOM      9  C   UNL     1       0.559   7.362   0.456  0.00  0.00    +0.112 C 
ATOM     10  C   UNL     1       3.137   5.937   0.738  0.00  0.00    +0.241 C 
ATOM     11  O   UNL     1       3.557   7.004   0.342  0.00  0.00    -0.273 OA
ATOM     12  N   UNL     1       3.715   5.160   1.677  0.00  0.00    -0.275 N 
ATOM     13  C   UNL     1       2.900   3.958   1.892  0.00  0.00    +0.217 C 
ATOM     14  N   UNL     1       2.006   3.850   0.715  0.00  0.00    -0.300 N 
ATOM     15  H   UNL     1      -1.331   8.755  -0.069  0.00  0.00    +0.156 HD
ENDROOT
BRANCH   1  21
ATOM     16  C   UNL     1      -3.567   9.657  -1.121  0.00  0.00    -0.026 A 
ATOM     17  C   UNL     1      -4.576  10.284  -1.826  0.00  0.00    +0.005 A 
ATOM     18  C   UNL     1      -4.393  10.606  -3.158  0.00  0.00    +0.000 A 
ATOM     19  C   UNL     1      -3.199  10.303  -3.788  0.00  0.00    +0.002 A 
ATOM     20  C   UNL     1      -2.185   9.681  -3.087  0.00  0.00    +0.023 A 
ATOM     21  C   UNL     1      -2.368   9.351  -1.750  0.00  0.00    +0.038 A 
BRANCH  16  23
ATOM     22  C   UNL     1      -3.192  10.420   1.209  0.00  0.00    +0.009 C 
ATOM     23  C   UNL     1      -3.767   9.307   0.331  0.00  0.00    +0.033 C 
ENDBRANCH  16  23
ENDBRANCH   1  21
BRANCH  14  24
ATOM     24  C   UNL     1       0.763   3.327   1.077  0.00  0.00    +0.032 A 
ATOM     25  C   UNL     1      -0.264   3.263   0.144  0.00  0.00    +0.023 A 
ATOM     26  C   UNL     1      -1.492   2.746   0.506  0.00  0.00    +0.002 A 
ATOM     27  C   UNL     1      -1.702   2.296   1.796  0.00  0.00    +0.000 A 
ATOM     28  C   UNL     1      -0.680   2.353   2.726  0.00  0.00    +0.002 A 
ATOM     29  C   UNL     1       0.550   2.869   2.372  0.00  0.00    +0.023 A 
ENDBRANCH  14  24
BRANCH  12  30
ATOM     30  C   UNL     1       4.965   5.469   2.376  0.00  0.00    +0.205 C 
BRANCH  30  31
ATOM     31  C   UNL     1       4.662   6.253   3.627  0.00  0.00    +0.230 C 
ATOM     32  O   UNL     1       3.514   6.527   3.907  0.00  0.00    -0.274 OA
ATOM     33  N   UNL     1       5.665   6.650   4.434  0.00  0.00    -0.314 N 
ATOM     34  H   UNL     1       6.583   6.431   4.210  0.00  0.00    +0.149 HD
BRANCH  33  35
ATOM     35  C   UNL     1       5.370   7.412   5.649  0.00  0.00    +0.106 C 
BRANCH  35  36
ATOM     36  C   UNL     1       6.676   7.734   6.379  0.00  0.00    +0.047 C 
BRANCH  36  37
ATOM     37  C   UNL     1       6.367   8.531   7.649  0.00  0.00    +0.161 C 
BRANCH  37  38
ATOM     38  O   UNL     1       7.586   8.832   8.331  0.00  0.00    -0.383 OA
ATOM     39  C   UNL     1       7.409   9.577   9.537  0.00  0.00    +0.193 C 
ENDBRANCH  37  38
ENDBRANCH  36  37
ENDBRANCH  35  36
ENDBRANCH  33  35
ENDBRANCH  30  31
ENDBRANCH  12  30
TORSDOF 9
