REMARK  Name = ZINC09397832
REMARK  10 active torsions:
REMARK  status: ('A' for Active; 'I' for Inactive)
REMARK    1  A    between atoms: C_1  and  C_2
REMARK    2  A    between atoms: C_5  and  C_8
REMARK    3  A    between atoms: C_10  and  C_18
REMARK    4  A    between atoms: C_21  and  S_26
REMARK    5  A    between atoms: N_22  and  C_23
REMARK    6  A    between atoms: C_23  and  C_24
REMARK    7  A    between atoms: S_26  and  C_27
REMARK    8  A    between atoms: C_27  and  C_28
REMARK    9  A    between atoms: N_30  and  C_31
REMARK   10  A    between atoms: C_31  and  C_32
REMARK                            x       y       z     vdW  Elec       q    Type
REMARK                         _______ _______ _______ _____ _____    ______ ____
ROOT
ATOM      1  C   UNL     1      -3.802   3.199  -0.074  0.00  0.00    +0.166 A 
ATOM      2  N   UNL     1      -3.995   1.900  -0.125  0.00  0.00    -0.128 NA
ATOM      3  N   UNL     1      -5.237   1.634   0.072  0.00  0.00    -0.122 NA
ATOM      4  C   UNL     1      -5.915   2.748   0.253  0.00  0.00    +0.193 A 
ATOM      5  N   UNL     1      -5.027   3.780   0.166  0.00  0.00    -0.298 N 
ENDROOT
BRANCH   1   8
ATOM      6  C   UNL     1      -0.878   5.526   0.440  0.00  0.00    +0.072 A 
ATOM      7  C   UNL     1      -2.104   4.886   0.643  0.00  0.00    +0.040 A 
ATOM      8  C   UNL     1      -2.517   3.901  -0.248  0.00  0.00    +0.030 A 
ATOM      9  C   UNL     1      -1.625   3.591  -1.367  0.00  0.00    +0.011 A 
ATOM     10  C   UNL     1      -1.955   2.621  -2.319  0.00  0.00    +0.011 A 
ATOM     11  C   UNL     1      -1.093   2.359  -3.342  0.00  0.00    +0.001 A 
ATOM     12  C   UNL     1       0.108   3.055  -3.458  0.00  0.00    +0.002 A 
ATOM     13  C   UNL     1       0.457   4.009  -2.551  0.00  0.00    +0.028 A 
ATOM     14  C   UNL     1      -0.405   4.301  -1.480  0.00  0.00    +0.072 A 
ATOM     15  N   UNL     1      -0.089   5.232  -0.575  0.00  0.00    -0.247 NA
BRANCH   6  20
ATOM     16  C   UNL     1       0.784   9.593   4.162  0.00  0.00    +0.044 C 
ATOM     17  C   UNL     1       0.349   8.529   3.188  0.00  0.00    -0.050 A 
ATOM     18  C   UNL     1       1.160   8.204   2.116  0.00  0.00    +0.004 A 
ATOM     19  C   UNL     1       0.767   7.230   1.220  0.00  0.00    +0.010 A 
ATOM     20  C   UNL     1      -0.450   6.574   1.398  0.00  0.00    +0.000 A 
ATOM     21  C   UNL     1      -1.266   6.910   2.477  0.00  0.00    +0.010 A 
ATOM     22  C   UNL     1      -0.860   7.882   3.369  0.00  0.00    +0.004 A 
ENDBRANCH   6  20
ENDBRANCH   1   8
BRANCH   5  23
ATOM     23  C   UNL     1      -5.317   5.210   0.299  0.00  0.00    +0.152 C 
BRANCH  23  24
ATOM     24  C   UNL     1      -5.608   5.793  -1.059  0.00  0.00    -0.013 C 
ATOM     25  C   UNL     1      -6.729   6.438  -1.269  0.00  0.00    +0.005 C 
ENDBRANCH  23  24
ENDBRANCH   5  23
BRANCH   4  26
ATOM     26  S   UNL     1      -7.646   2.881   0.551  0.00  0.00    -0.077 S 
BRANCH  26  27
ATOM     27  C   UNL     1      -8.105   1.130   0.523  0.00  0.00    +0.173 C 
BRANCH  27  28
ATOM     28  C   UNL     1      -9.587   0.996   0.763  0.00  0.00    +0.224 C 
ATOM     29  O   UNL     1     -10.265   1.986   0.936  0.00  0.00    -0.275 OA
ATOM     30  N   UNL     1     -10.158  -0.225   0.786  0.00  0.00    -0.308 N 
ATOM     31  H   UNL     1      -9.615  -1.017   0.648  0.00  0.00    +0.149 HD
BRANCH  30  32
ATOM     32  C   UNL     1     -11.598  -0.356   1.020  0.00  0.00    +0.178 C 
BRANCH  32  33
ATOM     33  C   UNL     1     -11.980  -1.813   0.997  0.00  0.00    +0.122 A 
ATOM     34  C   UNL     1     -12.000  -2.638   2.059  0.00  0.00    +0.046 A 
ATOM     35  C   UNL     1     -12.415  -3.905   1.587  0.00  0.00    +0.041 A 
ATOM     36  C   UNL     1     -12.624  -3.778   0.264  0.00  0.00    +0.195 A 
ATOM     37  O   UNL     1     -12.364  -2.508  -0.087  0.00  0.00    -0.466 OA
ENDBRANCH  32  33
ENDBRANCH  30  32
ENDBRANCH  27  28
ENDBRANCH  26  27
ENDBRANCH   4  26
TORSDOF 9
