REMARK  Name = ZINC49171447
REMARK  9 active torsions:
REMARK  status: ('A' for Active; 'I' for Inactive)
REMARK    1  A    between atoms: C_1  and  C_2
REMARK    2  A    between atoms: C_2  and  C_3
REMARK    3  A    between atoms: C_2  and  C_4
REMARK    4  A    between atoms: C_4  and  C_5
REMARK    5  A    between atoms: C_18  and  C_21
REMARK    6  A    between atoms: N_23  and  C_24
REMARK    7  A    between atoms: C_24  and  C_25
REMARK    8  A    between atoms: C_25  and  C_26
REMARK    9  A    between atoms: C_26  and  N_27
REMARK                            x       y       z     vdW  Elec       q    Type
REMARK                         _______ _______ _______ _____ _____    ______ ____
ROOT
ATOM      1  C   UNL     1      -0.161  -0.344   2.472  0.00  0.00    +0.085 C 
ATOM      2  C   UNL     1       0.516  -0.938   3.691  0.00  0.00    -0.021 A 
ATOM      3  C   UNL     1       1.495  -1.887   3.581  0.00  0.00    +0.006 A 
ATOM      4  C   UNL     1       2.151  -2.328   4.727  0.00  0.00    +0.002 A 
ATOM      5  C   UNL     1       1.860  -1.829   5.981  0.00  0.00    +0.026 A 
ATOM      6  C   UNL     1       0.848  -0.884   6.119  0.00  0.00    +0.047 A 
ATOM      7  C   UNL     1       0.173  -0.508   4.956  0.00  0.00    +0.008 A 
ATOM      8  C   UNL     1      -0.999   0.276   5.385  0.00  0.00    -0.020 A 
ATOM      9  C   UNL     1      -0.864   0.471   6.688  0.00  0.00    +0.087 A 
ATOM     10  N   UNL     1       0.274  -0.164   7.141  0.00  0.00    -0.360 N 
ATOM     11  H   UNL     1       0.619  -0.111   8.046  0.00  0.00    +0.165 HD
ATOM     12  C   UNL     1      -2.075   0.637   4.392  0.00  0.00    +0.065 C 
ATOM     13  C   UNL     1      -1.504   1.576   3.347  0.00  0.00    +0.145 C 
ATOM     14  N   UNL     1      -0.281   1.110   2.679  0.00  0.00    -0.299 NA
ATOM     15  H   UNL     1       0.541   1.480   3.131  0.00  0.00    +0.123 HD
ENDROOT
BRANCH  13  16
ATOM     16  C   UNL     1      -1.202   2.895   4.012  0.00  0.00    +0.230 C 
ATOM     17  O   UNL     1      -0.067   3.160   4.344  0.00  0.00    -0.274 OA
ATOM     18  N   UNL     1      -2.195   3.779   4.237  0.00  0.00    -0.314 N 
ATOM     19  H   UNL     1      -3.103   3.566   3.971  0.00  0.00    +0.149 HD
BRANCH  18  20
ATOM     20  C   UNL     1      -1.901   5.060   4.883  0.00  0.00    +0.106 C 
BRANCH  20  21
ATOM     21  C   UNL     1      -3.192   5.870   5.019  0.00  0.00    +0.040 C 
BRANCH  21  22
ATOM     22  C   UNL     1      -2.886   7.209   5.694  0.00  0.00    +0.124 C 
BRANCH  22  23
ATOM     23  N   UNL     1      -4.122   7.984   5.824  0.00  0.00    -0.338 N 
ATOM     24  C   UNL     1      -4.628   8.865   4.907  0.00  0.00    +0.104 A 
ATOM     25  C   UNL     1      -5.772   9.352   5.424  0.00  0.00    +0.101 A 
ATOM     26  N   UNL     1      -5.960   8.783   6.625  0.00  0.00    -0.352 N 
ATOM     27  C   UNL     1      -4.978   7.959   6.868  0.00  0.00    +0.173 A 
ATOM     28  H   UNL     1      -6.709   8.954   7.216  0.00  0.00    +0.166 HD
ENDBRANCH  22  23
ENDBRANCH  21  22
ENDBRANCH  20  21
ENDBRANCH  18  20
ENDBRANCH  13  16
BRANCH   1  29
ATOM     29  C   UNL     1       0.683  -0.621   1.226  0.00  0.00    +0.026 C 
BRANCH  29  31
ATOM     30  C   UNL     1       0.880  -0.203  -1.230  0.00  0.00    +0.007 C 
ATOM     31  C   UNL     1      -0.026  -0.054  -0.006  0.00  0.00    -0.015 C 
ATOM     32  C   UNL     1      -1.330  -0.819  -0.241  0.00  0.00    +0.007 C 
ENDBRANCH  29  31
ENDBRANCH   1  29
TORSDOF 7
