REMARK  Name = ZINC11909647
REMARK  11 active torsions:
REMARK  status: ('A' for Active; 'I' for Inactive)
REMARK    1  A    between atoms: C_1  and  N_54
REMARK    2  A    between atoms: C_2  and  C_3
REMARK    3  A    between atoms: C_2  and  N_54
REMARK    4  A    between atoms: C_7  and  N_16
REMARK    5  A    between atoms: C_8  and  C_12
REMARK    6  A    between atoms: C_12  and  O_14
REMARK    7  A    between atoms: O_14  and  C_15
REMARK    8  A    between atoms: C_17  and  C_19
REMARK    9  A    between atoms: C_19  and  C_20
REMARK   10  A    between atoms: C_27  and  C_28
REMARK   11  A    between atoms: C_27  and  N_54
REMARK                            x       y       z     vdW  Elec       q    Type
REMARK                         _______ _______ _______ _____ _____    ______ ____
ROOT
ATOM      1  C   UNL     1       1.937   1.616  -1.426  0.00  0.00    +0.026 A 
ATOM      2  C   UNL     1       2.035   0.238  -1.555  0.00  0.00    +0.022 A 
ATOM      3  C   UNL     1       1.020  -0.576  -1.111  0.00  0.00    +0.014 A 
ATOM      4  C   UNL     1      -0.127   0.014  -0.522  0.00  0.00    +0.030 A 
ATOM      5  C   UNL     1      -1.311  -0.639   0.013  0.00  0.00    +0.064 A 
ATOM      6  C   UNL     1      -2.309   0.149   0.542  0.00  0.00    +0.120 A 
ATOM      7  S   UNL     1      -1.679   1.804   0.342  0.00  0.00    -0.060 S 
ATOM      8  C   UNL     1      -0.129   1.425  -0.438  0.00  0.00    +0.111 A 
ATOM      9  N   UNL     1       0.869   2.162  -0.878  0.00  0.00    -0.246 NA
ENDROOT
BRANCH   5  10
ATOM     10  N   UNL     1      -1.432  -2.024  -0.010  0.00  0.00    -0.284 N 
ATOM     11  C   UNL     1      -0.344  -2.799   0.172  0.00  0.00    +0.222 C 
ATOM     12  O   UNL     1       0.725  -2.291   0.437  0.00  0.00    -0.275 OA
ATOM     13  H   UNL     1      -2.299  -2.433  -0.156  0.00  0.00    +0.155 HD
BRANCH  11  14
ATOM     14  C   UNL     1      -0.456  -4.296   0.045  0.00  0.00    +0.131 C 
BRANCH  14  15
ATOM     15  C   UNL     1       0.892  -4.924   0.293  0.00  0.00    -0.036 A 
ATOM     16  C   UNL     1       1.760  -5.136  -0.763  0.00  0.00    +0.004 A 
ATOM     17  C   UNL     1       2.998  -5.707  -0.536  0.00  0.00    +0.003 A 
ATOM     18  C   UNL     1       3.366  -6.075   0.744  0.00  0.00    +0.038 A 
ATOM     19  C   UNL     1       2.496  -5.868   1.801  0.00  0.00    +0.124 A 
ATOM     20  C   UNL     1       1.258  -5.291   1.573  0.00  0.00    +0.042 A 
ATOM     21  F   UNL     1       2.855  -6.228   3.052  0.00  0.00    -0.205 F 
ENDBRANCH  14  15
ENDBRANCH  11  14
ENDBRANCH   5  10
BRANCH   6  22
ATOM     22  C   UNL     1      -3.540  -0.259   1.114  0.00  0.00    +0.348 C 
ATOM     23  O   UNL     1      -3.776  -1.443   1.269  0.00  0.00    -0.244 OA
BRANCH  22  24
ATOM     24  O   UNL     1      -4.450   0.665   1.487  0.00  0.00    -0.464 OA
ATOM     25  C   UNL     1      -5.669   0.182   2.056  0.00  0.00    +0.280 C 
ENDBRANCH  22  24
ENDBRANCH   6  22
BRANCH   1  26
ATOM     26  C   UNL     1       3.058   2.495  -1.917  0.00  0.00    -0.022 C 
BRANCH  26  28
ATOM     27  C   UNL     1       1.590   3.838  -3.297  0.00  0.00    -0.095 C 
ATOM     28  N   UNL     1       2.755   2.929  -3.297  0.00  0.00    +0.385 N 
ATOM     29  H   UNL     1       2.533   2.103  -3.865  0.00  0.00    -0.081 HD
BRANCH  28  30
ATOM     30  C   UNL     1       3.928   3.612  -3.881  0.00  0.00    -0.022 C 
BRANCH  30  31
ATOM     31  C   UNL     1       3.675   3.845  -5.348  0.00  0.00    +0.032 A 
ATOM     32  C   UNL     1       3.183   5.031  -5.789  0.00  0.00    +0.068 A 
ATOM     33  S   UNL     1       3.102   4.720  -7.547  0.00  0.00    -0.084 S 
ATOM     34  C   UNL     1       3.702   3.091  -7.514  0.00  0.00    +0.156 A 
ATOM     35  N   UNL     1       3.918   2.901  -6.233  0.00  0.00    -0.254 NA
ENDBRANCH  30  31
ENDBRANCH  28  30
ENDBRANCH  26  28
ENDBRANCH   1  26
TORSDOF 9
