REMARK  Name = ZINC10155296
REMARK  12 active torsions:
REMARK  status: ('A' for Active; 'I' for Inactive)
REMARK    1  A    between atoms: C_1  and  S_2
REMARK    2  A    between atoms: S_2  and  C_3
REMARK    3  A    between atoms: C_7  and  N_9
REMARK    4  A    between atoms: C_10  and  C_12
REMARK    5  A    between atoms: C_12  and  O_13
REMARK    6  A    between atoms: O_13  and  C_14
REMARK    7  A    between atoms: C_14  and  C_16
REMARK    8  A    between atoms: C_21  and  C_22
REMARK    9  A    between atoms: C_22  and  C_24
REMARK   10  A    between atoms: C_27  and  S_33
REMARK   11  A    between atoms: C_28  and  N_30
REMARK   12  A    between atoms: S_33  and  C_34
REMARK                            x       y       z     vdW  Elec       q    Type
REMARK                         _______ _______ _______ _____ _____    ______ ____
ROOT
ATOM      1  C   UNL     1       4.964   1.339  -0.061  0.00  0.00    +0.070 A 
ATOM      2  C   UNL     1       6.094   2.153  -0.066  0.00  0.00    +0.016 A 
ATOM      3  C   UNL     1       5.957   3.527   0.002  0.00  0.00    +0.001 A 
ATOM      4  C   UNL     1       4.700   4.103   0.074  0.00  0.00    +0.001 A 
ATOM      5  C   UNL     1       3.567   3.312   0.074  0.00  0.00    +0.012 A 
ATOM      6  C   UNL     1       3.686   1.925   0.013  0.00  0.00    +0.036 A 
ENDROOT
BRANCH   1   7
ATOM      7  C   UNL     1       5.106  -0.130  -0.132  0.00  0.00    +0.340 C 
ATOM      8  O   UNL     1       4.119  -0.831  -0.230  0.00  0.00    -0.245 OA
BRANCH   7   9
ATOM      9  O   UNL     1       6.329  -0.692  -0.087  0.00  0.00    -0.452 OA
BRANCH   9  10
ATOM     10  C   UNL     1       6.392  -2.141  -0.162  0.00  0.00    +0.328 C 
BRANCH  10  12
ATOM     11  N   UNL     1       8.134  -3.897  -0.151  0.00  0.00    -0.283 N 
ATOM     12  C   UNL     1       7.831  -2.585  -0.098  0.00  0.00    +0.255 C 
ATOM     13  O   UNL     1       8.716  -1.761   0.001  0.00  0.00    -0.272 OA
ATOM     14  H   UNL     1       7.425  -4.558  -0.160  0.00  0.00    +0.155 HD
BRANCH  11  19
ATOM     15  C   UNL     1      11.763  -4.002   0.466  0.00  0.00    +0.009 A 
ATOM     16  C   UNL     1      12.120  -5.121  -0.278  0.00  0.00    +0.015 A 
ATOM     17  C   UNL     1      11.158  -5.826  -0.973  0.00  0.00    +0.003 A 
ATOM     18  C   UNL     1       9.836  -5.425  -0.928  0.00  0.00    +0.023 A 
ATOM     19  C   UNL     1       9.472  -4.304  -0.191  0.00  0.00    +0.035 A 
ATOM     20  C   UNL     1      10.437  -3.593   0.509  0.00  0.00    +0.038 A 
BRANCH  15  22
ATOM     21  C   UNL     1      14.530  -3.996   0.999  0.00  0.00    +0.090 C 
ATOM     22  S   UNL     1      12.991  -3.103   1.353  0.00  0.00    -0.129 S 
ENDBRANCH  15  22
ENDBRANCH  11  19
ENDBRANCH  10  12
ENDBRANCH   9  10
ENDBRANCH   7   9
ENDBRANCH   1   7
BRANCH   6  23
ATOM     23  C   UNL     1       2.477   1.074   0.019  0.00  0.00    +0.194 C 
ATOM     24  O   UNL     1       1.802   0.969  -0.987  0.00  0.00    -0.287 OA
BRANCH  23  25
ATOM     25  C   UNL     1       2.089   0.354   1.244  0.00  0.00    +0.024 A 
ATOM     26  C   UNL     1       2.916   0.395   2.373  0.00  0.00    +0.013 A 
ATOM     27  C   UNL     1       2.554  -0.273   3.507  0.00  0.00    +0.017 A 
ATOM     28  C   UNL     1       1.361  -0.995   3.542  0.00  0.00    +0.038 A 
ATOM     29  C   UNL     1       0.533  -1.032   2.422  0.00  0.00    +0.140 A 
ATOM     30  C   UNL     1       0.892  -0.371   1.283  0.00  0.00    +0.045 A 
BRANCH  29  31
ATOM     31  N   UNL     1      -0.736  -1.794   2.466  0.00  0.00    +0.058 N 
ATOM     32  O   UNL     1      -1.458  -1.831   1.486  0.00  0.00    -0.126 OA
ATOM     33  O   UNL     1      -1.057  -2.384   3.482  0.00  0.00    -0.126 OA
ENDBRANCH  29  31
BRANCH  28  34
ATOM     34  S   UNL     1       0.897  -1.855   5.008  0.00  0.00    -0.126 S 
ATOM     35  C   UNL     1       2.251  -1.513   6.166  0.00  0.00    +0.090 C 
ENDBRANCH  28  34
ENDBRANCH  23  25
ENDBRANCH   6  23
TORSDOF 10
