REMARK  Name = ZINC26224774
REMARK  5 active torsions:
REMARK  status: ('A' for Active; 'I' for Inactive)
REMARK    1  A    between atoms: C_3  and  C_6
REMARK    2  A    between atoms: C_9  and  S_14
REMARK    3  A    between atoms: N_10  and  C_11
REMARK    4  A    between atoms: S_14  and  C_15
REMARK    5  A    between atoms: C_15  and  C_16
REMARK                            x       y       z     vdW  Elec       q    Type
REMARK                         _______ _______ _______ _____ _____    ______ ____
ROOT
ATOM      1  C   UNL     1       3.744   1.882   0.217  0.00  0.00    +0.172 A 
ATOM      2  N   UNL     1       4.133   3.083  -0.148  0.00  0.00    -0.128 NA
ATOM      3  N   UNL     1       5.402   3.091  -0.350  0.00  0.00    -0.122 NA
ATOM      4  C   UNL     1       5.903   1.897  -0.126  0.00  0.00    +0.193 A 
ATOM      5  N   UNL     1       4.867   1.086   0.248  0.00  0.00    -0.299 N 
ENDROOT
BRANCH   1   8
ATOM      6  C   UNL     1       0.071   1.625   1.075  0.00  0.00    +0.008 A 
ATOM      7  C   UNL     1       1.268   2.245   0.796  0.00  0.00    +0.019 A 
ATOM      8  C   UNL     1       2.369   1.467   0.538  0.00  0.00    +0.056 A 
ATOM      9  S   UNL     1       1.697  -0.180   0.694  0.00  0.00    -0.094 S 
ATOM     10  C   UNL     1       0.015   0.269   1.087  0.00  0.00    +0.046 A 
ENDBRANCH   1   8
BRANCH   5  11
ATOM     11  C   UNL     1       4.938  -0.333   0.603  0.00  0.00    +0.091 C 
ATOM     12  C   UNL     1       6.315  -0.908   0.944  0.00  0.00    +0.027 C 
ATOM     13  C   UNL     1       5.639  -1.274  -0.379  0.00  0.00    +0.027 C 
ENDBRANCH   5  11
BRANCH   4  14
ATOM     14  S   UNL     1       7.595   1.430  -0.274  0.00  0.00    -0.077 S 
BRANCH  14  15
ATOM     15  C   UNL     1       8.428   2.957  -0.790  0.00  0.00    +0.173 C 
BRANCH  15  16
ATOM     16  C   UNL     1       9.903   2.693  -0.955  0.00  0.00    +0.229 C 
ATOM     17  O   UNL     1      10.348   1.585  -0.745  0.00  0.00    -0.275 OA
ATOM     18  N   UNL     1      10.727   3.689  -1.336  0.00  0.00    -0.264 N 
ATOM     19  C   UNL     1      12.087   3.446  -1.488  0.00  0.00    +0.164 A 
ATOM     20  N   UNL     1      12.741   2.318  -1.311  0.00  0.00    -0.233 NA
ATOM     21  C   UNL     1      14.046   2.249  -1.498  0.00  0.00    +0.120 A 
ATOM     22  C   UNL     1      14.675   3.389  -1.877  0.00  0.00    +0.068 A 
ATOM     23  S   UNL     1      13.297   4.521  -1.950  0.00  0.00    -0.061 S 
ATOM     24  H   UNL     1      10.371   4.576  -1.504  0.00  0.00    +0.157 HD
ENDBRANCH  15  16
ENDBRANCH  14  15
ENDBRANCH   4  14
TORSDOF 5
