REMARK  Name = ZINC60199514
REMARK  9 active torsions:
REMARK  status: ('A' for Active; 'I' for Inactive)
REMARK    1  A    between atoms: C_1  and  C_2
REMARK    2  A    between atoms: C_7  and  C_9
REMARK    3  A    between atoms: C_7  and  C_10
REMARK    4  A    between atoms: N_13  and  C_17
REMARK    5  A    between atoms: C_17  and  C_18
REMARK    6  A    between atoms: N_20  and  C_21
REMARK    7  A    between atoms: C_21  and  C_23
REMARK    8  A    between atoms: C_21  and  C_24
REMARK    9  A    between atoms: C_28  and  C_30
REMARK                            x       y       z     vdW  Elec       q    Type
REMARK                         _______ _______ _______ _____ _____    ______ ____
ROOT
ATOM      1  C   UNL     1      -1.431  -5.488  -2.763  0.00  0.00    +0.232 C 
ATOM      2  O   UNL     1      -1.057  -5.765  -1.643  0.00  0.00    -0.274 OA
ATOM      3  N   UNL     1      -1.311  -6.390  -3.757  0.00  0.00    -0.305 N 
ATOM      4  H   UNL     1      -1.611  -6.169  -4.652  0.00  0.00    +0.149 HD
ENDROOT
BRANCH   3   5
ATOM      5  C   UNL     1      -0.728  -7.706  -3.484  0.00  0.00    +0.134 C 
ATOM      6  C   UNL     1      -1.815  -8.647  -2.959  0.00  0.00    +0.036 C 
BRANCH   5   7
ATOM      7  C   UNL     1      -0.146  -8.271  -4.755  0.00  0.00    +0.105 A 
ATOM      8  N   UNL     1      -0.594  -8.016  -6.004  0.00  0.00    -0.348 N 
ATOM      9  H   UNL     1      -1.339  -7.443  -6.240  0.00  0.00    +0.167 HD
ATOM     10  C   UNL     1       0.198  -8.714  -6.872  0.00  0.00    +0.110 A 
ATOM     11  C   UNL     1       1.112  -9.379  -6.119  0.00  0.00    +0.064 A 
ATOM     12  N   UNL     1       0.875  -9.079  -4.826  0.00  0.00    -0.342 N 
ATOM     13  H   UNL     1       1.381  -9.413  -4.069  0.00  0.00    +0.167 HD
BRANCH  11  14
ATOM     14  C   UNL     1       2.184 -10.270  -6.628  0.00  0.00    -0.000 A 
ATOM     15  C   UNL     1       3.054 -10.897  -5.738  0.00  0.00    +0.010 A 
ATOM     16  C   UNL     1       4.049 -11.725  -6.217  0.00  0.00    +0.001 A 
ATOM     17  C   UNL     1       4.184 -11.933  -7.578  0.00  0.00    +0.000 A 
ATOM     18  C   UNL     1       3.323 -11.313  -8.466  0.00  0.00    +0.001 A 
ATOM     19  C   UNL     1       2.320 -10.488  -7.998  0.00  0.00    +0.010 A 
ENDBRANCH  11  14
ENDBRANCH   5   7
ENDBRANCH   3   5
BRANCH   1  20
ATOM     20  C   UNL     1      -2.031  -4.134  -3.043  0.00  0.00    +0.213 C 
BRANCH  20  32
ATOM     21  C   UNL     1      -0.019   1.528   0.010  0.00  0.00    +0.007 C 
ATOM     22  C   UNL     1       0.002  -0.004   0.002  0.00  0.00    -0.011 C 
ATOM     23  C   UNL     1      -1.435  -0.529   0.021  0.00  0.00    +0.038 C 
ATOM     24  C   UNL     1      -1.427  -2.050  -0.036  0.00  0.00    +0.113 C 
ATOM     25  C   UNL     1      -0.575  -2.676   1.049  0.00  0.00    +0.041 C 
ATOM     26  C   UNL     1       0.782  -2.031   1.270  0.00  0.00    -0.032 C 
ATOM     27  C   UNL     1       0.719  -0.508   1.253  0.00  0.00    +0.009 C 
ATOM     28  C   UNL     1       1.296  -2.464   2.661  0.00  0.00    +0.011 C 
ATOM     29  C   UNL     1       1.795  -2.526   0.234  0.00  0.00    +0.011 C 
ATOM     30  C   UNL     1      -1.044  -2.534  -1.413  0.00  0.00    +0.247 C 
ATOM     31  O   UNL     1      -0.058  -2.253  -2.060  0.00  0.00    -0.273 OA
ATOM     32  N   UNL     1      -2.050  -3.344  -1.810  0.00  0.00    -0.215 N 
ATOM     33  C   UNL     1      -3.063  -3.331  -0.937  0.00  0.00    +0.310 C 
ATOM     34  O   UNL     1      -4.088  -3.969  -1.082  0.00  0.00    -0.252 OA
ATOM     35  N   UNL     1      -2.817  -2.537   0.119  0.00  0.00    -0.285 N 
ATOM     36  H   UNL     1      -3.418  -2.318   0.845  0.00  0.00    +0.151 HD
ENDBRANCH  20  32
ENDBRANCH   1  20
TORSDOF 5
