REMARK  Name = ZINC12499336
REMARK  11 active torsions:
REMARK  status: ('A' for Active; 'I' for Inactive)
REMARK    1  A    between atoms: C_1  and  C_2
REMARK    2  A    between atoms: N_4  and  S_5
REMARK    3  A    between atoms: S_5  and  C_8
REMARK    4  A    between atoms: C_11  and  N_14
REMARK    5  A    between atoms: N_14  and  C_15
REMARK    6  A    between atoms: C_15  and  N_17
REMARK    7  A    between atoms: C_18  and  C_20
REMARK    8  A    between atoms: C_23  and  C_26
REMARK    9  A    between atoms: C_26  and  C_27
REMARK   10  A    between atoms: C_26  and  C_28
REMARK   11  A    between atoms: C_26  and  C_29
REMARK                            x       y       z     vdW  Elec       q    Type
REMARK                         _______ _______ _______ _____ _____    ______ ____
ROOT
ATOM      1  N   UNL     1      -3.076   3.043   4.820  0.00  0.00    -0.297 N 
ATOM      2  H   UNL     1      -3.778   2.469   5.165  0.00  0.00    +0.154 HD
ENDROOT
BRANCH   1   6
ATOM      3  C   UNL     1      -0.903   1.884   1.460  0.00  0.00    +0.109 A 
ATOM      4  C   UNL     1      -2.273   1.694   1.495  0.00  0.00    +0.030 A 
ATOM      5  C   UNL     1      -2.995   2.073   2.610  0.00  0.00    +0.025 A 
ATOM      6  C   UNL     1      -2.347   2.654   3.692  0.00  0.00    +0.033 A 
ATOM      7  C   UNL     1      -0.972   2.847   3.651  0.00  0.00    +0.025 A 
ATOM      8  C   UNL     1      -0.255   2.462   2.536  0.00  0.00    +0.030 A 
BRANCH   3   9
ATOM      9  S   UNL     1       0.016   1.394   0.039  0.00  0.00    +0.074 S 
ATOM     10  O   UNL     1       1.199   2.180   0.029  0.00  0.00    -0.150 OA
ATOM     11  O   UNL     1      -0.897   1.378  -1.050  0.00  0.00    -0.150 OA
BRANCH   9  15
ATOM     12  C   UNL     1       0.003  -2.580   0.579  0.00  0.00    +0.111 C 
ATOM     13  C   UNL     1      -0.430  -1.154   0.359  0.00  0.00    +0.229 C 
ATOM     14  O   UNL     1      -1.609  -0.887   0.253  0.00  0.00    -0.275 OA
ATOM     15  N   UNL     1       0.492  -0.174   0.280  0.00  0.00    -0.186 N 
ATOM     16  H   UNL     1       1.435  -0.387   0.365  0.00  0.00    +0.177 HD
ENDBRANCH   9  15
ENDBRANCH   3   9
ENDBRANCH   1   6
BRANCH   1  17
ATOM     17  C   UNL     1      -2.805   4.215   5.426  0.00  0.00    +0.141 C 
ATOM     18  S   UNL     1      -1.667   5.293   4.737  0.00  0.00    -0.018 S 
BRANCH  17  19
ATOM     19  N   UNL     1      -3.429   4.539   6.576  0.00  0.00    -0.264 N 
ATOM     20  C   UNL     1      -3.158   5.712   7.183  0.00  0.00    +0.250 C 
ATOM     21  O   UNL     1      -2.350   6.477   6.693  0.00  0.00    -0.270 OA
ATOM     22  H   UNL     1      -4.074   3.929   6.967  0.00  0.00    +0.157 HD
BRANCH  20  23
ATOM     23  C   UNL     1      -3.842   6.067   8.444  0.00  0.00    +0.037 A 
ATOM     24  C   UNL     1      -4.775   5.193   9.006  0.00  0.00    +0.013 A 
ATOM     25  C   UNL     1      -5.406   5.529  10.185  0.00  0.00    +0.005 A 
ATOM     26  C   UNL     1      -5.125   6.734  10.805  0.00  0.00    -0.042 A 
ATOM     27  C   UNL     1      -4.206   7.607  10.251  0.00  0.00    +0.005 A 
ATOM     28  C   UNL     1      -3.563   7.281   9.075  0.00  0.00    +0.013 A 
BRANCH  26  29
ATOM     29  C   UNL     1      -5.824   7.096  12.091  0.00  0.00    -0.013 C 
ATOM     30  C   UNL     1      -6.613   8.392  11.894  0.00  0.00    +0.015 C 
ATOM     31  C   UNL     1      -6.781   5.970  12.486  0.00  0.00    +0.015 C 
ATOM     32  C   UNL     1      -4.785   7.295  13.197  0.00  0.00    +0.015 C 
ENDBRANCH  26  29
ENDBRANCH  20  23
ENDBRANCH  17  19
ENDBRANCH   1  17
TORSDOF 7
