REMARK  Name = ZINC35358614
REMARK  4 active torsions:
REMARK  status: ('A' for Active; 'I' for Inactive)
REMARK    1  A    between atoms: C_3  and  S_9
REMARK    2  A    between atoms: N_7  and  N_8
REMARK    3  A    between atoms: S_9  and  N_12
REMARK    4  A    between atoms: N_12  and  C_13
REMARK                            x       y       z     vdW  Elec       q    Type
REMARK                         _______ _______ _______ _____ _____    ______ ____
ROOT
ATOM      1  S   UNL     1       3.967   2.067  -0.073  0.00  0.00    +0.095 S 
ATOM      2  O   UNL     1       4.763   1.381  -1.030  0.00  0.00    -0.148 OA
ATOM      3  O   UNL     1       3.696   3.459  -0.164  0.00  0.00    -0.148 OA
ENDROOT
BRANCH   1   6
ATOM      4  C   UNL     1       0.024   1.296  -0.095  0.00  0.00    +0.022 A 
ATOM      5  C   UNL     1       1.232   1.980  -0.124  0.00  0.00    +0.034 A 
ATOM      6  C   UNL     1       2.405   1.252  -0.041  0.00  0.00    +0.151 A 
ATOM      7  C   UNL     1       2.335  -0.134   0.070  0.00  0.00    +0.159 A 
ATOM      8  N   UNL     1       1.163  -0.749   0.094  0.00  0.00    -0.237 NA
ATOM      9  C   UNL     1       0.028  -0.080   0.016  0.00  0.00    +0.113 A 
ATOM     10  N   UNL     1       3.506  -0.878   0.154  0.00  0.00    -0.266 N 
ATOM     11  H   UNL     1       4.367  -0.432   0.136  0.00  0.00    +0.167 HD
BRANCH  10  12
ATOM     12  N   UNL     1       3.444  -2.238   0.262  0.00  0.00    -0.255 NA
ATOM     13  H   UNL     1       2.918  -2.638  -0.501  0.00  0.00    +0.140 HD
ATOM     14  H   UNL     1       4.368  -2.639   0.313  0.00  0.00    +0.140 HD
ENDBRANCH  10  12
ENDBRANCH   1   6
BRANCH   1  15
ATOM     15  N   UNL     1       4.680   1.819   1.400  0.00  0.00    -0.096 NA
BRANCH  15  16
ATOM     16  C   UNL     1       5.987   2.259   1.627  0.00  0.00    +0.102 A 
ATOM     17  C   UNL     1       6.257   3.618   1.731  0.00  0.00    +0.044 A 
ATOM     18  C   UNL     1       7.550   4.050   1.955  0.00  0.00    +0.032 A 
ATOM     19  C   UNL     1       8.576   3.130   2.077  0.00  0.00    +0.020 A 
ATOM     20  C   UNL     1       8.312   1.776   1.974  0.00  0.00    +0.032 A 
ATOM     21  C   UNL     1       7.020   1.337   1.756  0.00  0.00    +0.044 A 
ATOM     22 BR   UNL     1       6.658  -0.514   1.623  0.00  0.00    -0.048 Br
ATOM     23 BR   UNL     1      10.345   3.725   2.384  0.00  0.00    -0.050 Br
ATOM     24 BR   UNL     1       4.855   4.876   1.563  0.00  0.00    -0.048 Br
ENDBRANCH  15  16
ENDBRANCH   1  15
TORSDOF 4
