REMARK  Name = ZINC55952928
REMARK  3 active torsions:
REMARK  status: ('A' for Active; 'I' for Inactive)
REMARK    1  A    between atoms: C_3  and  N_11
REMARK    2  A    between atoms: C_12  and  C_14
REMARK    3  A    between atoms: C_20  and  C_22
REMARK                            x       y       z     vdW  Elec       q    Type
REMARK                         _______ _______ _______ _____ _____    ______ ____
ROOT
ATOM      1  N   UNL     1       3.707   2.091  -0.041  0.00  0.00    -0.282 N 
ATOM      2  C   UNL     1       3.644   3.437  -0.100  0.00  0.00    +0.221 C 
ATOM      3  O   UNL     1       2.571   3.997  -0.034  0.00  0.00    -0.275 OA
ATOM      4  H   UNL     1       4.568   1.645  -0.043  0.00  0.00    +0.155 HD
ENDROOT
BRANCH   1   7
ATOM      5  C   UNL     1       0.259   1.089   0.763  0.00  0.00    +0.006 A 
ATOM      6  C   UNL     1       1.423   1.832   0.702  0.00  0.00    +0.027 A 
ATOM      7  C   UNL     1       2.527   1.337   0.022  0.00  0.00    +0.079 A 
ATOM      8  C   UNL     1       2.462   0.092  -0.597  0.00  0.00    +0.183 A 
ATOM      9  C   UNL     1       1.292  -0.651  -0.530  0.00  0.00    +0.164 A 
ATOM     10  C   UNL     1       0.192  -0.148   0.150  0.00  0.00    +0.049 A 
ATOM     11  O   UNL     1       1.210  -1.875  -1.121  0.00  0.00    -0.485 OA
ATOM     12  C   UNL     1       2.202  -2.183  -2.106  0.00  0.00    +0.270 C 
ATOM     13  C   UNL     1       3.574  -1.784  -1.546  0.00  0.00    +0.270 C 
ATOM     14  O   UNL     1       3.552  -0.381  -1.263  0.00  0.00    -0.483 OA
ENDBRANCH   1   7
BRANCH   2  15
ATOM     15  C   UNL     1       4.908   4.244  -0.247  0.00  0.00    +0.087 C 
ATOM     16  C   UNL     1       5.102   5.119   0.993  0.00  0.00    +0.013 C 
ATOM     17  C   UNL     1       3.908   6.064   1.143  0.00  0.00    +0.001 C 
ATOM     18  C   UNL     1       3.803   6.953  -0.098  0.00  0.00    +0.001 C 
ATOM     19  C   UNL     1       3.610   6.078  -1.338  0.00  0.00    +0.013 C 
ATOM     20  C   UNL     1       4.804   5.133  -1.487  0.00  0.00    +0.105 C 
BRANCH  20  21
ATOM     21  C   UNL     1       4.610   4.258  -2.727  0.00  0.00    +0.394 C 
ATOM     22  F   UNL     1       3.472   3.462  -2.563  0.00  0.00    -0.170 F 
ATOM     23  F   UNL     1       4.450   5.074  -3.853  0.00  0.00    -0.170 F 
ATOM     24  F   UNL     1       5.731   3.439  -2.900  0.00  0.00    -0.170 F 
ENDBRANCH  20  21
ENDBRANCH   2  15
TORSDOF 3
