REMARK  Name = ZINC13640501
REMARK  6 active torsions:
REMARK  status: ('A' for Active; 'I' for Inactive)
REMARK    1  A    between atoms: C_1  and  C_2
REMARK    2  A    between atoms: C_2  and  C_3
REMARK    3  A    between atoms: N_5  and  C_6
REMARK    4  A    between atoms: C_19  and  C_22
REMARK    5  A    between atoms: C_25  and  O_29
REMARK    6  A    between atoms: C_27  and  O_28
REMARK                            x       y       z     vdW  Elec       q    Type
REMARK                         _______ _______ _______ _____ _____    ______ ____
ROOT
ATOM      1  C   UNL     1      -4.262   4.297   1.554  0.00  0.00    +0.034 A 
ATOM      2  C   UNL     1      -3.915   4.631   2.856  0.00  0.00    +0.025 A 
ATOM      3  C   UNL     1      -2.593   4.569   3.247  0.00  0.00    +0.025 A 
ATOM      4  C   UNL     1      -1.616   4.174   2.341  0.00  0.00    +0.031 A 
ATOM      5  C   UNL     1      -1.955   3.840   1.039  0.00  0.00    -0.018 A 
ATOM      6  C   UNL     1      -3.286   3.904   0.652  0.00  0.00    +0.029 A 
ATOM      7  C   UNL     1      -0.936   3.410   0.032  0.00  0.00    +0.049 C 
ATOM      8  C   UNL     1      -0.999   1.919  -0.197  0.00  0.00    -0.023 C 
ATOM      9  C   UNL     1       0.206   1.436  -0.378  0.00  0.00    -0.030 C 
ATOM     10  C   UNL     1       1.238   2.546  -0.311  0.00  0.00    +0.033 C 
ATOM     11  C   UNL     1       0.512   3.664   0.495  0.00  0.00    +0.029 C 
ATOM     12  C   UNL     1       0.654   3.319   1.980  0.00  0.00    +0.108 C 
ATOM     13  N   UNL     1      -0.279   4.115   2.758  0.00  0.00    -0.336 N 
ATOM     14  H   UNL     1       0.019   4.599   3.544  0.00  0.00    +0.147 HD
ENDROOT
BRANCH  12  15
ATOM     15  C   UNL     1       0.335   1.862   2.193  0.00  0.00    +0.015 A 
ATOM     16  C   UNL     1      -0.966   1.470   2.446  0.00  0.00    +0.012 A 
ATOM     17  C   UNL     1      -1.262   0.134   2.641  0.00  0.00    +0.046 A 
ATOM     18  C   UNL     1      -0.253  -0.817   2.583  0.00  0.00    +0.120 A 
ATOM     19  C   UNL     1       1.052  -0.426   2.328  0.00  0.00    +0.091 A 
ATOM     20  C   UNL     1       1.346   0.914   2.127  0.00  0.00    +0.125 A 
BRANCH  20  21
ATOM     21  O   UNL     1       2.624   1.299   1.872  0.00  0.00    -0.506 OA
ATOM     22  H   UNL     1       3.138   1.506   2.665  0.00  0.00    +0.292 HD
ENDBRANCH  20  21
BRANCH  18  23
ATOM     23  O   UNL     1      -0.545  -2.130   2.775  0.00  0.00    -0.507 OA
ATOM     24  H   UNL     1      -0.770  -2.606   1.963  0.00  0.00    +0.292 HD
ENDBRANCH  18  23
ENDBRANCH  12  15
BRANCH   1  27
ATOM     25  C   UNL     1      -6.423   5.289   1.674  0.00  0.00    +0.217 C 
ATOM     26  O   UNL     1      -5.981   6.135   2.422  0.00  0.00    -0.275 OA
ATOM     27  N   UNL     1      -5.603   4.357   1.150  0.00  0.00    -0.285 N 
ATOM     28  H   UNL     1      -5.941   3.728   0.494  0.00  0.00    +0.155 HD
BRANCH  25  30
ATOM     29  C   UNL     1      -8.590   6.435   2.052  0.00  0.00    +0.013 C 
ATOM     30  C   UNL     1      -7.891   5.281   1.331  0.00  0.00    +0.093 C 
ENDBRANCH  25  30
ENDBRANCH   1  27
TORSDOF 5
