REMARK  Name = ZINC49542242
REMARK  9 active torsions:
REMARK  status: ('A' for Active; 'I' for Inactive)
REMARK    1  A    between atoms: C_1  and  C_2
REMARK    2  A    between atoms: C_2  and  C_4
REMARK    3  A    between atoms: C_2  and  O_22
REMARK    4  A    between atoms: C_9  and  N_10
REMARK    5  A    between atoms: N_10  and  C_11
REMARK    6  A    between atoms: C_11  and  C_13
REMARK    7  A    between atoms: C_11  and  C_14
REMARK    8  A    between atoms: C_16  and  O_21
REMARK    9  A    between atoms: C_19  and  O_20
REMARK                            x       y       z     vdW  Elec       q    Type
REMARK                         _______ _______ _______ _____ _____    ______ ____
ROOT
ATOM      1  N   UNL     1       2.882  -0.058   0.253  0.00  0.00    -0.337 N 
ATOM      2  H   UNL     1       2.364   0.325  -0.472  0.00  0.00    +0.147 HD
ENDROOT
BRANCH   1   8
ATOM      3  C   UNL     1       0.944   0.024   1.689  0.00  0.00    +0.001 A 
ATOM      4  C   UNL     1       0.352  -0.213   2.914  0.00  0.00    +0.008 A 
ATOM      5  C   UNL     1       1.092  -0.758   3.947  0.00  0.00    +0.000 A 
ATOM      6  C   UNL     1       2.427  -1.068   3.757  0.00  0.00    +0.002 A 
ATOM      7  C   UNL     1       3.024  -0.834   2.534  0.00  0.00    +0.023 A 
ATOM      8  C   UNL     1       2.282  -0.291   1.493  0.00  0.00    +0.033 A 
BRANCH   3  10
ATOM      9  C   UNL     1       0.338   2.135   0.537  0.00  0.00    +0.043 C 
ATOM     10  C   UNL     1       0.136   0.619   0.564  0.00  0.00    +0.143 C 
BRANCH  10  11
ATOM     11  O   UNL     1      -1.248   0.326   0.764  0.00  0.00    -0.387 OA
ATOM     12  H   UNL     1      -1.828   0.679   0.076  0.00  0.00    +0.210 HD
ENDBRANCH  10  11
ENDBRANCH   3  10
ENDBRANCH   1   8
BRANCH   1  13
ATOM     13  C   UNL     1       4.294  -0.391   0.048  0.00  0.00    +0.101 C 
ATOM     14  C   UNL     1       4.418  -1.864  -0.344  0.00  0.00    +0.033 C 
BRANCH  13  15
ATOM     15  C   UNL     1       4.859   0.471  -1.051  0.00  0.00    +0.017 A 
ATOM     16  C   UNL     1       4.028   0.964  -2.039  0.00  0.00    +0.054 A 
ATOM     17  C   UNL     1       4.548   1.757  -3.050  0.00  0.00    +0.117 A 
ATOM     18  C   UNL     1       5.902   2.057  -3.070  0.00  0.00    +0.049 A 
ATOM     19  C   UNL     1       6.733   1.564  -2.083  0.00  0.00    +0.049 A 
ATOM     20  C   UNL     1       6.212   0.775  -1.068  0.00  0.00    +0.122 A 
BRANCH  20  21
ATOM     21  O   UNL     1       7.029   0.295  -0.093  0.00  0.00    -0.506 OA
ATOM     22  H   UNL     1       7.421  -0.566  -0.296  0.00  0.00    +0.292 HD
ENDBRANCH  20  21
BRANCH  17  23
ATOM     23  O   UNL     1       3.730   2.241  -4.023  0.00  0.00    -0.507 OA
ATOM     24  H   UNL     1       3.341   3.102  -3.817  0.00  0.00    +0.292 HD
ENDBRANCH  17  23
ENDBRANCH  13  15
ENDBRANCH   1  13
TORSDOF 7
