REMARK  Name = ZINC31164725
REMARK  5 active torsions:
REMARK  status: ('A' for Active; 'I' for Inactive)
REMARK    1  A    between atoms: C_1  and  C_2
REMARK    2  A    between atoms: C_10  and  O_27
REMARK    3  A    between atoms: C_17  and  O_26
REMARK    4  A    between atoms: C_19  and  O_25
REMARK    5  A    between atoms: C_21  and  O_24
REMARK                            x       y       z     vdW  Elec       q    Type
REMARK                         _______ _______ _______ _____ _____    ______ ____
ROOT
ATOM      1  C   UNL     1       3.770  -0.744   0.303  0.00  0.00    +0.008 C 
ATOM      2  C   UNL     1       2.467   0.033   0.498  0.00  0.00    -0.003 C 
ATOM      3  C   UNL     1       1.299  -0.780  -0.049  0.00  0.00    +0.035 C 
ATOM      4  C   UNL     1       0.002  -0.004   0.002  0.00  0.00    -0.059 C 
ATOM      5  C   UNL     1      -0.016   1.324   0.009  0.00  0.00    +0.036 C 
ATOM      6  C   UNL     1       1.242   2.090   0.001  0.00  0.00    +0.163 C 
ATOM      7  O   UNL     1       1.239   3.286   0.209  0.00  0.00    -0.292 OA
ATOM      8  C   UNL     1       2.537   1.361  -0.271  0.00  0.00    +0.083 C 
ATOM      9  C   UNL     1      -1.292   2.119   0.009  0.00  0.00    +0.188 C 
ATOM     10  C   UNL     1      -1.153   3.364   0.845  0.00  0.00    +0.202 C 
ATOM     11  O   UNL     1      -0.879   4.428   0.332  0.00  0.00    -0.288 OA
ATOM     12  C   UNL     1      -1.356   3.260   2.302  0.00  0.00    +0.030 A 
ATOM     13  C   UNL     1      -1.047   4.345   3.127  0.00  0.00    +0.012 A 
ATOM     14  C   UNL     1      -1.247   4.252   4.489  0.00  0.00    +0.004 A 
ATOM     15  C   UNL     1      -1.752   3.086   5.035  0.00  0.00    +0.046 A 
ATOM     16  C   UNL     1      -2.058   2.004   4.223  0.00  0.00    +0.123 A 
ATOM     17  C   UNL     1      -1.859   2.080   2.851  0.00  0.00    +0.036 A 
ATOM     18  C   UNL     1      -2.178   0.887   1.997  0.00  0.00    +0.184 C 
ATOM     19  C   UNL     1      -2.455   1.282   0.546  0.00  0.00    +0.136 C 
ATOM     20  C   UNL     1      -2.492  -0.004  -0.300  0.00  0.00    +0.046 C 
ATOM     21  C   UNL     1      -1.262  -0.831   0.058  0.00  0.00    +0.034 C 
ENDROOT
BRANCH  19  22
ATOM     22  O   UNL     1      -3.686   1.998   0.432  0.00  0.00    -0.382 OA
ATOM     23  H   UNL     1      -4.624   1.536   0.774  0.00  0.00    +0.210 HD
ENDBRANCH  19  22
BRANCH  18  24
ATOM     24  O   UNL     1      -1.073  -0.018   2.030  0.00  0.00    -0.384 OA
ATOM     25  H   UNL     1      -1.116  -0.959   1.462  0.00  0.00    +0.210 HD
ENDBRANCH  18  24
BRANCH  16  26
ATOM     26  O   UNL     1      -2.554   0.864   4.772  0.00  0.00    -0.506 OA
ATOM     27  H   UNL     1      -2.797   0.004   4.130  0.00  0.00    +0.292 HD
ENDBRANCH  16  26
BRANCH   9  28
ATOM     28  O   UNL     1      -1.589   2.513  -1.332  0.00  0.00    -0.373 OA
ATOM     29  H   UNL     1      -2.490   3.108  -1.544  0.00  0.00    +0.211 HD
ENDBRANCH   9  28
TORSDOF 4
