REMARK  Name = ZINC35865720
REMARK  6 active torsions:
REMARK  status: ('A' for Active; 'I' for Inactive)
REMARK    1  A    between atoms: C_1  and  C_2
REMARK    2  A    between atoms: C_2  and  C_3
REMARK    3  A    between atoms: C_18  and  C_20
REMARK    4  A    between atoms: C_20  and  C_21
REMARK    5  A    between atoms: C_20  and  C_22
REMARK    6  A    between atoms: C_24  and  C_28
REMARK                            x       y       z     vdW  Elec       q    Type
REMARK                         _______ _______ _______ _____ _____    ______ ____
ROOT
ATOM      1  C   UNL     1      -0.229  -0.734   1.218  0.00  0.00    +0.215 C 
ATOM      2  O   UNL     1      -0.121  -0.133   0.169  0.00  0.00    -0.276 OA
ATOM      3  N   UNL     1      -0.457  -2.062   1.213  0.00  0.00    -0.298 N 
ATOM      4  C   UNL     1      -0.595  -2.802   2.475  0.00  0.00    +0.126 C 
ATOM      5  C   UNL     1      -1.935  -3.548   2.461  0.00  0.00    +0.125 C 
ATOM      6  N   UNL     1      -2.050  -4.282   1.193  0.00  0.00    -0.312 N 
ATOM      7  C   UNL     1      -1.912  -3.542  -0.069  0.00  0.00    +0.125 C 
ATOM      8  C   UNL     1      -0.578  -2.795  -0.055  0.00  0.00    +0.126 C 
ATOM      9  C   UNL     1      -2.285  -5.646   1.188  0.00  0.00    +0.133 A 
ATOM     10  C   UNL     1      -3.611  -6.149   1.294  0.00  0.00    +0.051 A 
ATOM     11  C   UNL     1      -4.867  -5.407   1.418  0.00  0.00    -0.025 A 
ATOM     12  C   UNL     1      -6.000  -6.132   1.502  0.00  0.00    -0.004 A 
ATOM     13  S   UNL     1      -5.475  -7.824   1.422  0.00  0.00    -0.073 S 
ATOM     14  C   UNL     1      -3.728  -7.554   1.277  0.00  0.00    +0.114 A 
ATOM     15  N   UNL     1      -2.668  -8.332   1.171  0.00  0.00    -0.224 NA
ATOM     16  C   UNL     1      -1.462  -7.807   1.077  0.00  0.00    +0.135 A 
ATOM     17  N   UNL     1      -1.279  -6.498   1.080  0.00  0.00    -0.216 NA
ATOM     18  C   UNL     1      -7.400  -5.616   1.636  0.00  0.00    +0.046 C 
ATOM     19  C   UNL     1      -7.335  -4.136   2.039  0.00  0.00    -0.009 C 
ATOM     20  C   UNL     1      -6.333  -3.423   1.125  0.00  0.00    +0.008 C 
ATOM     21  C   UNL     1      -4.912  -3.882   1.454  0.00  0.00    +0.037 C 
ATOM     22  C   UNL     1      -8.718  -3.500   1.886  0.00  0.00    +0.008 C 
ENDROOT
BRANCH  16  23
ATOM     23  C   UNL     1      -0.268  -8.718   0.958  0.00  0.00    +0.051 C 
ATOM     24  C   UNL     1      -0.193  -9.624   2.189  0.00  0.00    +0.015 C 
ATOM     25  C   UNL     1      -0.407  -9.578  -0.300  0.00  0.00    +0.015 C 
ENDBRANCH  16  23
BRANCH   1  27
ATOM     26  C   UNL     1       0.149   1.489   2.251  0.00  0.00    +0.013 C 
ATOM     27  C   UNL     1      -0.107   0.005   2.525  0.00  0.00    +0.092 C 
ENDBRANCH   1  27
TORSDOF 2
