REMARK  Name = ZINC09154561
REMARK  5 active torsions:
REMARK  status: ('A' for Active; 'I' for Inactive)
REMARK    1  A    between atoms: C_1  and  C_2
REMARK    2  A    between atoms: C_2  and  C_4
REMARK    3  A    between atoms: C_2  and  S_16
REMARK    4  A    between atoms: S_16  and  C_17
REMARK    5  A    between atoms: C_21  and  N_23
REMARK                            x       y       z     vdW  Elec       q    Type
REMARK                         _______ _______ _______ _____ _____    ______ ____
ROOT
ATOM      1  C   UNL     1       2.287   1.993   4.339  0.00  0.00    +0.029 C 
ATOM      2  C   UNL     1       3.398   1.999   3.288  0.00  0.00    +0.137 C 
ENDROOT
BRANCH   2   3
ATOM      3  C   UNL     1       2.833   2.438   1.962  0.00  0.00    +0.233 C 
ATOM      4  O   UNL     1       3.004   3.575   1.576  0.00  0.00    -0.274 OA
ATOM      5  N   UNL     1       2.138   1.567   1.204  0.00  0.00    -0.270 N 
ATOM      6  C   UNL     1       2.034   0.154   1.595  0.00  0.00    +0.114 C 
ATOM      7  C   UNL     1       2.272  -0.698   0.341  0.00  0.00    +0.024 C 
ATOM      8  C   UNL     1       1.163  -0.408  -0.670  0.00  0.00    +0.038 C 
ATOM      9  C   UNL     1       1.027   1.075  -0.893  0.00  0.00    -0.026 A 
ATOM     10  C   UNL     1       1.502   1.993   0.030  0.00  0.00    +0.039 A 
ATOM     11  C   UNL     1       1.355   3.355  -0.204  0.00  0.00    +0.024 A 
ATOM     12  C   UNL     1       0.739   3.795  -1.359  0.00  0.00    +0.002 A 
ATOM     13  C   UNL     1       0.267   2.879  -2.281  0.00  0.00    +0.000 A 
ATOM     14  C   UNL     1       0.410   1.525  -2.049  0.00  0.00    +0.005 A 
ENDBRANCH   2   3
BRANCH   2  15
ATOM     15  S   UNL     1       4.703   3.146   3.797  0.00  0.00    -0.073 S 
BRANCH  15  16
ATOM     16  C   UNL     1       5.273   2.334   5.253  0.00  0.00    +0.192 A 
ATOM     17  N   UNL     1       4.697   1.201   5.628  0.00  0.00    -0.207 NA
ATOM     18  C   UNL     1       5.105   0.557   6.719  0.00  0.00    +0.122 A 
ATOM     19  C   UNL     1       6.143   1.095   7.474  0.00  0.00    +0.086 A 
ATOM     20  C   UNL     1       6.720   2.289   7.053  0.00  0.00    +0.122 A 
ATOM     21  N   UNL     1       6.263   2.875   5.948  0.00  0.00    -0.207 NA
ATOM     22  N   UNL     1       4.501  -0.631   7.101  0.00  0.00    -0.343 N 
ATOM     23  H   UNL     1       4.801  -1.092   7.899  0.00  0.00    +0.144 HD
ATOM     24  H   UNL     1       3.778  -1.000   6.569  0.00  0.00    +0.144 HD
BRANCH  20  25
ATOM     25  N   UNL     1       7.756   2.862   7.774  0.00  0.00    -0.343 N 
ATOM     26  H   UNL     1       8.153   3.694   7.474  0.00  0.00    +0.144 HD
ATOM     27  H   UNL     1       8.084   2.430   8.578  0.00  0.00    +0.144 HD
ENDBRANCH  20  25
ENDBRANCH  15  16
ENDBRANCH   2  15
TORSDOF 4
