REMARK  Name = ZINC16032929
REMARK  6 active torsions:
REMARK  status: ('A' for Active; 'I' for Inactive)
REMARK    1  A    between atoms: C_1  and  C_2
REMARK    2  A    between atoms: C_2  and  C_4
REMARK    3  A    between atoms: C_2  and  O_35
REMARK    4  A    between atoms: N_12  and  C_15
REMARK    5  A    between atoms: C_15  and  C_16
REMARK    6  A    between atoms: C_16  and  C_17
REMARK                            x       y       z     vdW  Elec       q    Type
REMARK                         _______ _______ _______ _____ _____    ______ ____
ROOT
ATOM      1  C   UNL     1       0.718  -0.497  -1.257  0.00  0.00    +0.096 C 
ATOM      2  C   UNL     1       0.609  -2.033  -1.370  0.00  0.00    +0.109 C 
ATOM      3  C   UNL     1       0.440  -2.309  -2.890  0.00  0.00    +0.122 C 
ATOM      4  C   UNL     1       1.710  -3.043  -3.255  0.00  0.00    +0.228 C 
ATOM      5  O   UNL     1       1.992  -3.445  -4.363  0.00  0.00    -0.275 OA
ATOM      6  N   UNL     1       2.473  -3.180  -2.165  0.00  0.00    -0.241 N 
ATOM      7  C   UNL     1       1.948  -2.652  -1.035  0.00  0.00    +0.227 C 
ATOM      8  O   UNL     1       2.458  -2.664   0.065  0.00  0.00    -0.275 OA
ATOM      9  C   UNL     1       0.423  -0.919  -3.536  0.00  0.00    +0.136 C 
ATOM     10  N   UNL     1       0.044   0.025  -2.474  0.00  0.00    -0.293 NA
ATOM     11  C   UNL     1       1.765  -0.557  -4.106  0.00  0.00    +0.005 A 
ATOM     12  C   UNL     1       3.023  -0.432  -3.562  0.00  0.00    +0.027 A 
ATOM     13  C   UNL     1       4.093  -0.074  -4.365  0.00  0.00    +0.041 A 
ATOM     14  C   UNL     1       3.893   0.158  -5.715  0.00  0.00    +0.022 A 
ATOM     15  C   UNL     1       2.634   0.032  -6.263  0.00  0.00    +0.025 A 
ATOM     16  C   UNL     1       1.553  -0.328  -5.463  0.00  0.00    +0.039 A 
ATOM     17  N   UNL     1       0.205  -0.516  -5.779  0.00  0.00    -0.283 N 
ATOM     18  C   UNL     1      -0.525  -0.865  -4.703  0.00  0.00    +0.243 C 
ATOM     19  O   UNL     1      -1.717  -1.093  -4.679  0.00  0.00    -0.273 OA
ATOM     20 CL   UNL     1       5.680   0.085  -3.680  0.00  0.00    -0.084 Cl
ATOM     21  H   UNL     1      -0.958   0.037  -2.356  0.00  0.00    +0.124 HD
ATOM     22  H   UNL     1      -0.162  -0.408  -6.671  0.00  0.00    +0.155 HD
ENDROOT
BRANCH   1  24
ATOM     23  C   UNL     1      -0.019   1.526   0.010  0.00  0.00    +0.039 C 
ATOM     24  C   UNL     1       0.002  -0.004   0.002  0.00  0.00    +0.129 C 
BRANCH  24  25
ATOM     25  O   UNL     1      -1.339  -0.499   0.012  0.00  0.00    -0.390 OA
ATOM     26  H   UNL     1      -1.853  -0.225   0.784  0.00  0.00    +0.210 HD
ENDBRANCH  24  25
ENDBRANCH   1  24
BRANCH   6  27
ATOM     27  C   UNL     1       3.773  -3.854  -2.188  0.00  0.00    +0.121 C 
BRANCH  27  28
ATOM     28  C   UNL     1       4.872  -2.834  -2.491  0.00  0.00    +0.054 C 
BRANCH  28  29
ATOM     29  C   UNL     1       6.210  -3.528  -2.514  0.00  0.00    -0.046 A 
ATOM     30  C   UNL     1       6.950  -3.642  -1.352  0.00  0.00    +0.004 A 
ATOM     31  C   UNL     1       8.177  -4.278  -1.374  0.00  0.00    +0.000 A 
ATOM     32  C   UNL     1       8.663  -4.801  -2.557  0.00  0.00    +0.000 A 
ATOM     33  C   UNL     1       7.923  -4.688  -3.719  0.00  0.00    +0.000 A 
ATOM     34  C   UNL     1       6.694  -4.055  -3.697  0.00  0.00    +0.004 A 
ENDBRANCH  28  29
ENDBRANCH  27  28
ENDBRANCH   6  27
TORSDOF 5
