REMARK  Name = ZINC16700124
REMARK  14 active torsions:
REMARK  status: ('A' for Active; 'I' for Inactive)
REMARK    1  A    between atoms: C_1  and  C_2
REMARK    2  A    between atoms: C_3  and  C_35
REMARK    3  A    between atoms: C_4  and  C_23
REMARK    4  A    between atoms: C_10  and  C_11
REMARK    5  A    between atoms: C_14  and  C_17
REMARK    6  A    between atoms: C_17  and  C_18
REMARK    7  A    between atoms: C_17  and  C_19
REMARK    8  A    between atoms: C_26  and  O_31
REMARK    9  A    between atoms: C_27  and  O_29
REMARK   10  A    between atoms: O_29  and  C_30
REMARK   11  A    between atoms: O_31  and  C_32
REMARK   12  A    between atoms: C_32  and  C_34
REMARK   13  A    between atoms: C_35  and  O_37
REMARK   14  A    between atoms: O_37  and  C_38
REMARK                            x       y       z     vdW  Elec       q    Type
REMARK                         _______ _______ _______ _____ _____    ______ ____
ROOT
ATOM      1  C   UNL     1      -9.376   0.706  -0.619  0.00  0.00    +0.066 C 
ATOM      2  C   UNL     1      -7.885   0.835  -0.447  0.00  0.00    +0.053 C 
ATOM      3  C   UNL     1      -7.109  -0.288  -0.397  0.00  0.00    +0.085 C 
ATOM      4  C   UNL     1      -5.617  -0.116  -0.224  0.00  0.00    +0.162 C 
ATOM      5  N   UNL     1      -5.102   1.278  -0.120  0.00  0.00    -0.275 N 
ATOM      6  C   UNL     1      -3.819   1.633   0.029  0.00  0.00    +0.268 A 
ATOM      7  O   UNL     1      -2.939   0.795   0.094  0.00  0.00    -0.266 OA
ATOM      8  C   UNL     1      -3.506   3.068   0.116  0.00  0.00    +0.081 A 
ATOM      9  C   UNL     1      -2.305   3.682   0.269  0.00  0.00    +0.028 C 
ATOM     10  S   UNL     1      -5.134   3.785  -0.043  0.00  0.00    -0.046 S 
ATOM     11  C   UNL     1      -6.056   2.267  -0.195  0.00  0.00    +0.178 A 
ATOM     12  N   UNL     1      -7.336   2.039  -0.346  0.00  0.00    -0.228 NA
ENDROOT
BRANCH   9  13
ATOM     13  C   UNL     1      -1.105   2.885   0.559  0.00  0.00    -0.024 A 
ATOM     14  C   UNL     1       0.106   3.179  -0.078  0.00  0.00    +0.008 A 
ATOM     15  C   UNL     1       1.226   2.423   0.196  0.00  0.00    +0.004 A 
ATOM     16  C   UNL     1       1.158   1.383   1.106  0.00  0.00    -0.045 A 
ATOM     17  C   UNL     1      -0.035   1.089   1.746  0.00  0.00    +0.004 A 
ATOM     18  C   UNL     1      -1.165   1.832   1.479  0.00  0.00    +0.008 A 
BRANCH  16  19
ATOM     19  C   UNL     1       2.388   0.566   1.404  0.00  0.00    +0.013 C 
ATOM     20  C   UNL     1       2.726   0.676   2.892  0.00  0.00    +0.012 C 
ATOM     21  C   UNL     1       2.127  -0.899   1.048  0.00  0.00    +0.012 C 
ENDBRANCH  16  19
ENDBRANCH   9  13
BRANCH   4  22
ATOM     22  C   UNL     1      -4.935  -0.776  -1.394  0.00  0.00    -0.016 A 
ATOM     23  C   UNL     1      -4.862  -0.121  -2.609  0.00  0.00    +0.010 A 
ATOM     24  C   UNL     1      -4.232  -0.720  -3.684  0.00  0.00    +0.050 A 
ATOM     25  C   UNL     1      -3.683  -1.986  -3.548  0.00  0.00    +0.173 A 
ATOM     26  C   UNL     1      -3.763  -2.648  -2.327  0.00  0.00    +0.163 A 
ATOM     27  C   UNL     1      -4.390  -2.039  -1.252  0.00  0.00    +0.055 A 
BRANCH  26  28
ATOM     28  O   UNL     1      -3.226  -3.889  -2.188  0.00  0.00    -0.491 OA
ATOM     29  C   UNL     1      -3.346  -4.509  -0.906  0.00  0.00    +0.277 C 
ENDBRANCH  26  28
BRANCH  25  30
ATOM     30  O   UNL     1      -3.069  -2.579  -4.606  0.00  0.00    -0.422 OA
BRANCH  30  31
ATOM     31  C   UNL     1      -3.816  -3.400  -5.362  0.00  0.00    +0.309 C 
ATOM     32  O   UNL     1      -4.951  -3.655  -5.038  0.00  0.00    -0.251 OA
ATOM     33  C   UNL     1      -3.237  -4.003  -6.617  0.00  0.00    +0.136 C 
ENDBRANCH  30  31
ENDBRANCH  25  30
ENDBRANCH   4  22
BRANCH   3  34
ATOM     34  C   UNL     1      -7.681  -1.567  -0.502  0.00  0.00    +0.339 C 
ATOM     35  O   UNL     1      -8.885  -1.686  -0.640  0.00  0.00    -0.245 OA
BRANCH  34  36
ATOM     36  O   UNL     1      -6.895  -2.665  -0.450  0.00  0.00    -0.465 OA
ATOM     37  C   UNL     1      -7.544  -3.933  -0.563  0.00  0.00    +0.280 C 
ENDBRANCH  34  36
ENDBRANCH   3  34
TORSDOF 8
