REMARK  Name = ZINC36643471
REMARK  10 active torsions:
REMARK  status: ('A' for Active; 'I' for Inactive)
REMARK    1  A    between atoms: C_1  and  C_2
REMARK    2  A    between atoms: N_7  and  S_9
REMARK    3  A    between atoms: S_9  and  C_12
REMARK    4  A    between atoms: C_15  and  C_18
REMARK    5  A    between atoms: N_20  and  C_21
REMARK    6  A    between atoms: C_21  and  C_22
REMARK    7  A    between atoms: C_22  and  C_23
REMARK    8  A    between atoms: C_23  and  N_24
REMARK    9  A    between atoms: N_24  and  C_25
REMARK   10  A    between atoms: N_24  and  C_26
REMARK                            x       y       z     vdW  Elec       q    Type
REMARK                         _______ _______ _______ _____ _____    ______ ____
ROOT
ATOM      1  C   UNL     1       3.689  -3.974  -3.808  0.00  0.00    +0.252 C 
ATOM      2  O   UNL     1       3.275  -5.063  -4.152  0.00  0.00    -0.270 OA
ATOM      3  N   UNL     1       4.561  -3.307  -4.590  0.00  0.00    -0.246 N 
ATOM      4  C   UNL     1       4.890  -3.804  -5.840  0.00  0.00    +0.168 A 
ATOM      5  N   UNL     1       5.713  -3.307  -6.733  0.00  0.00    -0.221 NA
ATOM      6  C   UNL     1       5.941  -3.905  -7.923  0.00  0.00    +0.115 A 
ATOM      7  C   UNL     1       6.797  -3.477  -8.967  0.00  0.00    +0.150 A 
ATOM      8  C   UNL     1       6.913  -4.209 -10.122  0.00  0.00    +0.040 A 
ATOM      9  C   UNL     1       6.201  -5.385 -10.308  0.00  0.00    +0.004 A 
ATOM     10  C   UNL     1       5.356  -5.832  -9.309  0.00  0.00    +0.017 A 
ATOM     11  C   UNL     1       5.234  -5.107  -8.149  0.00  0.00    +0.044 A 
ATOM     12  S   UNL     1       4.308  -5.290  -6.644  0.00  0.00    -0.052 S 
ATOM     13  F   UNL     1       7.506  -2.337  -8.824  0.00  0.00    -0.203 F 
ENDROOT
BRANCH   1  17
ATOM     14  C   UNL     1       2.392  -2.269  -0.140  0.00  0.00    +0.106 A 
ATOM     15  C   UNL     1       1.470  -2.843  -0.997  0.00  0.00    +0.029 A 
ATOM     16  C   UNL     1       1.884  -3.398  -2.190  0.00  0.00    +0.015 A 
ATOM     17  C   UNL     1       3.238  -3.380  -2.532  0.00  0.00    +0.037 A 
ATOM     18  C   UNL     1       4.163  -2.800  -1.662  0.00  0.00    +0.015 A 
ATOM     19  C   UNL     1       3.734  -2.243  -0.475  0.00  0.00    +0.029 A 
BRANCH  14  20
ATOM     20  S   UNL     1       1.854  -1.562   1.381  0.00  0.00    +0.061 S 
ATOM     21  O   UNL     1       2.976  -1.571   2.253  0.00  0.00    -0.153 OA
ATOM     22  O   UNL     1       0.627  -2.198   1.713  0.00  0.00    -0.153 OA
BRANCH  20  28
ATOM     23  C   UNL     1       3.570   3.038   0.095  0.00  0.00    +0.009 C 
ATOM     24  C   UNL     1       2.598   1.870  -0.078  0.00  0.00    +0.002 C 
ATOM     25  C   UNL     1       1.206   2.409  -0.414  0.00  0.00    +0.006 C 
ATOM     26  C   UNL     1       0.240   1.240  -0.620  0.00  0.00    +0.017 C 
ATOM     27  C   UNL     1       0.144   0.428   0.675  0.00  0.00    +0.109 C 
ATOM     28  N   UNL     1       1.498   0.028   1.083  0.00  0.00    -0.176 NA
ATOM     29  C   UNL     1       2.530   1.064   1.223  0.00  0.00    +0.112 C 
ENDBRANCH  20  28
ENDBRANCH  14  20
ENDBRANCH   1  17
BRANCH   3  30
ATOM     30  C   UNL     1       5.161  -2.057  -4.118  0.00  0.00    +0.114 C 
BRANCH  30  31
ATOM     31  C   UNL     1       6.553  -2.341  -3.550  0.00  0.00    +0.001 C 
BRANCH  31  32
ATOM     32  C   UNL     1       7.124  -1.061  -2.936  0.00  0.00    -0.078 C 
BRANCH  32  33
ATOM     33  N   UNL     1       8.460  -1.334  -2.391  0.00  0.00    +0.376 N 
ATOM     34  C   UNL     1       9.058  -0.081  -1.909  0.00  0.00    -0.097 C 
ATOM     35  C   UNL     1       8.350  -2.284  -1.277  0.00  0.00    -0.097 C 
ATOM     36  H   UNL     1       9.044  -1.728  -3.113  0.00  0.00    -0.083 HD
ENDBRANCH  32  33
ENDBRANCH  31  32
ENDBRANCH  30  31
ENDBRANCH   3  30
TORSDOF 7
