REMARK  Name = ZINC03192709
REMARK  6 active torsions:
REMARK  status: ('A' for Active; 'I' for Inactive)
REMARK    1  A    between atoms: C_4  and  S_18
REMARK    2  A    between atoms: C_5  and  N_7
REMARK    3  A    between atoms: N_7  and  C_8
REMARK    4  A    between atoms: C_8  and  N_10
REMARK    5  A    between atoms: N_10  and  C_11
REMARK    6  A    between atoms: S_18  and  C_19
REMARK                            x       y       z     vdW  Elec       q    Type
REMARK                         _______ _______ _______ _____ _____    ______ ____
ROOT
ATOM      1  C   UNL     1      -2.599   8.775   3.762  0.00  0.00    +0.002 A 
ATOM      2  C   UNL     1      -2.957   8.132   2.591  0.00  0.00    +0.001 A 
ATOM      3  C   UNL     1      -2.530   6.840   2.350  0.00  0.00    +0.017 A 
ATOM      4  C   UNL     1      -1.751   6.179   3.289  0.00  0.00    +0.035 A 
ATOM      5  C   UNL     1      -1.391   6.828   4.470  0.00  0.00    +0.047 A 
ATOM      6  C   UNL     1      -1.819   8.127   4.701  0.00  0.00    +0.024 A 
ENDROOT
BRANCH   5   7
ATOM      7  N   UNL     1      -0.601   6.170   5.421  0.00  0.00    -0.296 N 
ATOM      8  H   UNL     1       0.217   5.724   5.147  0.00  0.00    +0.154 HD
BRANCH   7   9
ATOM      9  C   UNL     1      -0.975   6.154   6.715  0.00  0.00    +0.139 C 
ATOM     10  S   UNL     1      -2.350   7.041   7.219  0.00  0.00    -0.018 S 
BRANCH   9  11
ATOM     11  N   UNL     1      -0.267   5.441   7.613  0.00  0.00    -0.297 N 
ATOM     12  H   UNL     1       0.556   5.004   7.345  0.00  0.00    +0.154 HD
BRANCH  11  13
ATOM     13  C   UNL     1      -0.720   5.332   8.933  0.00  0.00    +0.033 A 
ATOM     14  C   UNL     1       0.181   5.417   9.986  0.00  0.00    +0.025 A 
ATOM     15  C   UNL     1      -0.269   5.314  11.288  0.00  0.00    +0.022 A 
ATOM     16  C   UNL     1      -1.615   5.115  11.543  0.00  0.00    +0.041 A 
ATOM     17  C   UNL     1      -2.514   5.024  10.494  0.00  0.00    +0.022 A 
ATOM     18  C   UNL     1      -2.070   5.132   9.191  0.00  0.00    +0.025 A 
ATOM     19 CL   UNL     1      -2.176   4.981  13.180  0.00  0.00    -0.084 Cl
ENDBRANCH  11  13
ENDBRANCH   9  11
ENDBRANCH   7   9
ENDBRANCH   5   7
BRANCH   4  20
ATOM     20  S   UNL     1      -1.212   4.529   2.987  0.00  0.00    -0.067 S 
BRANCH  20  21
ATOM     21  C   UNL     1      -2.293   3.652   4.068  0.00  0.00    +0.113 A 
ATOM     22  C   UNL     1      -2.320   2.228   4.120  0.00  0.00    +0.043 A 
ATOM     23  C   UNL     1      -1.510   1.306   3.341  0.00  0.00    -0.025 A 
ATOM     24  C   UNL     1      -1.711  -0.013   3.561  0.00  0.00    -0.004 A 
ATOM     25  S   UNL     1      -2.975  -0.092   4.806  0.00  0.00    -0.073 S 
ATOM     26  C   UNL     1      -3.233   1.638   5.029  0.00  0.00    +0.113 A 
ATOM     27  N   UNL     1      -4.035   2.338   5.807  0.00  0.00    -0.228 NA
ATOM     28  C   UNL     1      -3.960   3.660   5.709  0.00  0.00    +0.223 A 
ATOM     29  N   UNL     1      -3.136   4.278   4.887  0.00  0.00    -0.228 NA
ATOM     30  C   UNL     1      -1.014  -1.160   2.897  0.00  0.00    +0.043 C 
ATOM     31  C   UNL     1      -0.288  -0.633   1.651  0.00  0.00    +0.005 C 
ATOM     32  C   UNL     1       0.493   0.628   2.032  0.00  0.00    +0.005 C 
ATOM     33  C   UNL     1      -0.478   1.773   2.317  0.00  0.00    +0.037 C 
ENDBRANCH  20  21
ENDBRANCH   4  20
TORSDOF 6
