REMARK  Name = ZINC35029589
REMARK  12 active torsions:
REMARK  status: ('A' for Active; 'I' for Inactive)
REMARK    1  A    between atoms: C_1  and  C_2
REMARK    2  A    between atoms: C_2  and  C_3
REMARK    3  A    between atoms: C_3  and  N_4
REMARK    4  A    between atoms: C_14  and  C_15
REMARK    5  A    between atoms: C_15  and  C_17
REMARK    6  A    between atoms: C_15  and  N_19
REMARK    7  A    between atoms: C_17  and  C_18
REMARK    8  A    between atoms: N_19  and  C_20
REMARK    9  A    between atoms: C_20  and  C_21
REMARK   10  A    between atoms: C_21  and  C_22
REMARK   11  A    between atoms: N_25  and  C_26
REMARK   12  A    between atoms: C_31  and  C_32
REMARK                            x       y       z     vdW  Elec       q    Type
REMARK                         _______ _______ _______ _____ _____    ______ ____
ROOT
ATOM      1  C   UNL     1      -1.234  -2.236  -2.407  0.00  0.00    +0.143 C 
ENDROOT
BRANCH   1  12
ATOM      2  N   UNL     1       1.020  -3.226  -2.406  0.00  0.00    -0.295 N 
ATOM      3  C   UNL     1       2.006  -3.984  -1.873  0.00  0.00    +0.262 A 
ATOM      4  O   UNL     1       3.083  -4.102  -2.429  0.00  0.00    -0.267 OA
ATOM      5  C   UNL     1       1.726  -4.660  -0.598  0.00  0.00    +0.065 A 
ATOM      6  C   UNL     1       2.673  -5.464   0.034  0.00  0.00    +0.015 A 
ATOM      7  C   UNL     1       2.358  -6.073   1.228  0.00  0.00    +0.001 A 
ATOM      8  C   UNL     1       1.107  -5.894   1.804  0.00  0.00    +0.002 A 
ATOM      9  C   UNL     1       0.157  -5.104   1.196  0.00  0.00    +0.028 A 
ATOM     10  C   UNL     1       0.453  -4.475  -0.015  0.00  0.00    +0.078 A 
ATOM     11  N   UNL     1      -0.453  -3.688  -0.648  0.00  0.00    -0.232 NA
ATOM     12  C   UNL     1      -0.175  -3.099  -1.771  0.00  0.00    +0.134 A 
BRANCH   2  13
ATOM     13  C   UNL     1       1.244  -2.530  -3.675  0.00  0.00    +0.126 C 
BRANCH  13  15
ATOM     14  C   UNL     1       2.042  -0.403  -4.717  0.00  0.00    +0.005 C 
ATOM     15  C   UNL     1       1.690  -1.093  -3.397  0.00  0.00    +0.018 C 
ENDBRANCH  13  15
ENDBRANCH   2  13
ENDBRANCH   1  12
BRANCH   1  16
ATOM     16  N   UNL     1      -2.362  -3.074  -2.823  0.00  0.00    -0.275 N 
ATOM     17  C   UNL     1      -2.724  -3.121  -4.120  0.00  0.00    +0.307 C 
ATOM     18  O   UNL     1      -2.115  -2.468  -4.945  0.00  0.00    -0.252 OA
ATOM     19  N   UNL     1      -3.761  -3.892  -4.503  0.00  0.00    -0.269 N 
ATOM     20  H   UNL     1      -4.290  -4.359  -3.837  0.00  0.00    +0.156 HD
BRANCH  19  21
ATOM     21  C   UNL     1      -4.076  -4.018  -5.861  0.00  0.00    +0.038 A 
ATOM     22  C   UNL     1      -3.792  -2.981  -6.740  0.00  0.00    +0.023 A 
ATOM     23  C   UNL     1      -4.103  -3.109  -8.079  0.00  0.00    +0.002 A 
ATOM     24  C   UNL     1      -4.697  -4.268  -8.546  0.00  0.00    +0.000 A 
ATOM     25  C   UNL     1      -4.981  -5.302  -7.673  0.00  0.00    +0.005 A 
ATOM     26  C   UNL     1      -4.667  -5.182  -6.333  0.00  0.00    -0.029 A 
ATOM     27  C   UNL     1      -4.971  -6.312  -5.383  0.00  0.00    +0.045 C 
ENDBRANCH  19  21
BRANCH  16  28
ATOM     28  C   UNL     1      -3.096  -3.861  -1.829  0.00  0.00    +0.110 C 
BRANCH  28  29
ATOM     29  C   UNL     1      -4.252  -3.028  -1.271  0.00  0.00    +0.016 C 
ATOM     30  C   UNL     1      -5.019  -3.850  -0.233  0.00  0.00    +0.005 C 
ENDBRANCH  28  29
ENDBRANCH  16  28
ENDBRANCH   1  16
BRANCH   1  31
ATOM     31  C   UNL     1      -1.719  -1.195  -1.395  0.00  0.00    +0.027 C 
ATOM     32  C   UNL     1      -2.714  -0.251  -2.073  0.00  0.00    +0.006 C 
ENDBRANCH   1  31
TORSDOF 8
