REMARK  Name = ZINC12155281
REMARK  10 active torsions:
REMARK  status: ('A' for Active; 'I' for Inactive)
REMARK    1  A    between atoms: C_1  and  N_66
REMARK    2  A    between atoms: C_2  and  N_66
REMARK    3  A    between atoms: C_3  and  C_4
REMARK    4  A    between atoms: C_3  and  N_66
REMARK    5  A    between atoms: C_4  and  N_5
REMARK    6  A    between atoms: C_8  and  C_12
REMARK    7  A    between atoms: C_8  and  C_20
REMARK    8  A    between atoms: C_12  and  C_13
REMARK    9  A    between atoms: C_26  and  C_28
REMARK   10  A    between atoms: C_29  and  C_30
REMARK                            x       y       z     vdW  Elec       q    Type
REMARK                         _______ _______ _______ _____ _____    ______ ____
ROOT
ATOM      1  N   UNL     1      -8.756   2.560   3.679  0.00  0.00    -0.226 N 
ATOM      2  C   UNL     1      -7.833   1.669   3.254  0.00  0.00    +0.247 C 
ATOM      3  O   UNL     1      -6.839   1.303   3.843  0.00  0.00    -0.273 OA
ATOM      4  C   UNL     1      -8.302   1.222   1.884  0.00  0.00    +0.119 C 
ATOM      5  N   UNL     1      -9.549   1.979   1.677  0.00  0.00    -0.284 N 
ATOM      6  C   UNL     1      -9.730   2.731   2.778  0.00  0.00    +0.309 C 
ATOM      7  O   UNL     1     -10.672   3.482   2.936  0.00  0.00    -0.252 OA
ATOM      8  H   UNL     1     -10.127   1.943   0.899  0.00  0.00    +0.151 HD
ENDROOT
BRANCH   4   9
ATOM      9  C   UNL     1      -7.269   1.586   0.816  0.00  0.00    +0.025 C 
ATOM     10  C   UNL     1      -6.919   3.072   0.930  0.00  0.00    +0.025 C 
ATOM     11  C   UNL     1      -5.910   3.440  -0.162  0.00  0.00    +0.108 C 
ATOM     12  N   UNL     1      -4.754   2.538  -0.061  0.00  0.00    -0.298 N 
ATOM     13  C   UNL     1      -4.986   1.088  -0.075  0.00  0.00    +0.108 C 
ATOM     14  C   UNL     1      -6.006   0.746   1.022  0.00  0.00    +0.025 C 
ATOM     15  C   UNL     1      -3.504   3.033   0.037  0.00  0.00    +0.239 C 
ATOM     16  O   UNL     1      -3.330   4.234   0.139  0.00  0.00    -0.271 OA
BRANCH  15  17
ATOM     17  C   UNL     1      -2.393   2.156   0.021  0.00  0.00    +0.068 C 
ATOM     18  C   UNL     1      -1.133   2.658   0.017  0.00  0.00    +0.020 C 
BRANCH  18  19
ATOM     19  C   UNL     1      -0.022   1.781   0.001  0.00  0.00    +0.012 A 
ATOM     20  C   UNL     1       1.334   2.085  -0.011  0.00  0.00    +0.015 A 
ATOM     21  C   UNL     1       2.210   1.029  -0.032  0.00  0.00    +0.008 A 
ATOM     22  C   UNL     1       1.720  -0.239  -0.039  0.00  0.00    +0.046 A 
ATOM     23  S   UNL     1       0.003  -0.003  -0.018  0.00  0.00    -0.097 S 
ENDBRANCH  18  19
ENDBRANCH  15  17
ENDBRANCH   4   9
BRANCH   1  24
ATOM     24  C   UNL     1      -8.698   3.251   4.970  0.00  0.00    +0.099 C 
BRANCH  24  25
ATOM     25  C   UNL     1      -9.429   2.420   6.026  0.00  0.00    -0.060 C 
BRANCH  25  28
ATOM     26  C   UNL     1     -10.129   4.370   7.279  0.00  0.00    -0.097 C 
ATOM     27  C   UNL     1      -9.851   2.244   8.404  0.00  0.00    -0.097 C 
ATOM     28  N   UNL     1      -9.344   3.119   7.326  0.00  0.00    +0.377 N 
ATOM     29  H   UNL     1      -8.361   3.349   7.517  0.00  0.00    -0.083 HD
ENDBRANCH  25  28
ENDBRANCH  24  25
ENDBRANCH   1  24
BRANCH   4  30
ATOM     30  C   UNL     1      -8.578  -0.282   1.873  0.00  0.00    +0.070 C 
BRANCH  30  31
ATOM     31  C   UNL     1      -9.685  -0.597   2.845  0.00  0.00    -0.042 A 
ATOM     32  C   UNL     1     -11.001  -0.587   2.421  0.00  0.00    +0.004 A 
ATOM     33  C   UNL     1     -12.018  -0.876   3.312  0.00  0.00    +0.003 A 
ATOM     34  C   UNL     1     -11.720  -1.175   4.629  0.00  0.00    +0.038 A 
ATOM     35  C   UNL     1     -10.403  -1.185   5.054  0.00  0.00    +0.124 A 
ATOM     36  C   UNL     1      -9.385  -0.901   4.159  0.00  0.00    +0.042 A 
ATOM     37  F   UNL     1     -10.110  -1.478   6.340  0.00  0.00    -0.205 F 
ENDBRANCH  30  31
ENDBRANCH   4  30
TORSDOF 8
