REMARK  Name = ZINC26981692
REMARK  11 active torsions:
REMARK  status: ('A' for Active; 'I' for Inactive)
REMARK    1  A    between atoms: C_1  and  N_2
REMARK    2  A    between atoms: C_3  and  C_29
REMARK    3  A    between atoms: C_6  and  S_7
REMARK    4  A    between atoms: S_7  and  C_8
REMARK    5  A    between atoms: C_8  and  C_9
REMARK    6  A    between atoms: N_11  and  C_12
REMARK    7  A    between atoms: C_12  and  C_13
REMARK    8  A    between atoms: C_13  and  C_15
REMARK    9  A    between atoms: C_13  and  N_23
REMARK   10  A    between atoms: C_18  and  O_21
REMARK   11  A    between atoms: O_21  and  C_22
REMARK                            x       y       z     vdW  Elec       q    Type
REMARK                         _______ _______ _______ _____ _____    ______ ____
ROOT
ATOM      1  C   UNL     1       1.494  -0.380   7.322  0.00  0.00    +0.223 C 
ATOM      2  O   UNL     1       0.771   0.012   6.431  0.00  0.00    -0.275 OA
ATOM      3  N   UNL     1       1.272  -1.581   7.891  0.00  0.00    -0.316 N 
ATOM      4  H   UNL     1       1.851  -1.895   8.604  0.00  0.00    +0.149 HD
ENDROOT
BRANCH   1   5
ATOM      5  C   UNL     1       2.642   0.476   7.792  0.00  0.00    +0.173 C 
BRANCH   5   6
ATOM      6  S   UNL     1       2.676   2.018   6.837  0.00  0.00    -0.077 S 
BRANCH   6  12
ATOM      7  C   UNL     1       3.924   4.979   6.053  0.00  0.00    +0.153 C 
ATOM      8  N   UNL     1       4.495   4.129   7.100  0.00  0.00    -0.305 N 
ATOM      9  C   UNL     1       5.584   4.407   7.896  0.00  0.00    +0.171 A 
ATOM     10  N   UNL     1       5.749   3.376   8.696  0.00  0.00    -0.128 NA
ATOM     11  N   UNL     1       4.851   2.488   8.457  0.00  0.00    -0.122 NA
ATOM     12  C   UNL     1       4.054   2.897   7.497  0.00  0.00    +0.192 A 
BRANCH   9  13
ATOM     13  C   UNL     1       6.408   5.626   7.858  0.00  0.00    +0.056 A 
ATOM     14  C   UNL     1       7.316   6.085   8.779  0.00  0.00    +0.019 A 
ATOM     15  C   UNL     1       7.975   7.266   8.524  0.00  0.00    +0.008 A 
ATOM     16  C   UNL     1       7.708   7.940   7.375  0.00  0.00    +0.046 A 
ATOM     17  S   UNL     1       6.491   6.889   6.599  0.00  0.00    -0.094 S 
ENDBRANCH   9  13
ENDBRANCH   6  12
ENDBRANCH   5   6
ENDBRANCH   1   5
BRANCH   3  18
ATOM     18  C   UNL     1       0.156  -2.413   7.435  0.00  0.00    +0.093 C 
BRANCH  18  19
ATOM     19  C   UNL     1       0.195  -3.761   8.158  0.00  0.00    -0.020 C 
BRANCH  19  20
ATOM     20  N   UNL     1      -0.865  -4.630   7.632  0.00  0.00    +0.385 N 
ATOM     21  C   UNL     1      -0.863  -5.902   8.365  0.00  0.00    -0.078 C 
ATOM     22  C   UNL     1      -2.017  -6.779   7.876  0.00  0.00    -0.019 C 
ATOM     23  C   UNL     1      -1.845  -7.051   6.379  0.00  0.00    -0.004 C 
ATOM     24  C   UNL     1      -1.775  -5.716   5.632  0.00  0.00    -0.019 C 
ATOM     25  C   UNL     1      -0.629  -4.878   6.204  0.00  0.00    -0.078 C 
ATOM     26  H   UNL     1      -1.759  -4.178   7.750  0.00  0.00    -0.081 HD
ENDBRANCH  19  20
BRANCH  19  27
ATOM     27  C   UNL     1      -0.018  -3.545   9.634  0.00  0.00    -0.059 A 
ATOM     28  C   UNL     1      -1.297  -3.362  10.127  0.00  0.00    +0.005 A 
ATOM     29  C   UNL     1      -1.496  -3.163  11.479  0.00  0.00    +0.046 A 
ATOM     30  C   UNL     1      -0.411  -3.148  12.344  0.00  0.00    +0.120 A 
ATOM     31  C   UNL     1       0.872  -3.332  11.847  0.00  0.00    +0.046 A 
ATOM     32  C   UNL     1       1.064  -3.535  10.494  0.00  0.00    +0.005 A 
BRANCH  30  33
ATOM     33  O   UNL     1      -0.603  -2.953  13.675  0.00  0.00    -0.495 OA
ATOM     34  C   UNL     1       0.560  -2.949  14.505  0.00  0.00    +0.277 C 
ENDBRANCH  30  33
ENDBRANCH  19  27
ENDBRANCH  18  19
ENDBRANCH   3  18
TORSDOF 9
