REMARK  Name = ZINC42667197
REMARK  7 active torsions:
REMARK  status: ('A' for Active; 'I' for Inactive)
REMARK    1  A    between atoms: C_1  and  C_2
REMARK    2  A    between atoms: C_2  and  C_4
REMARK    3  A    between atoms: C_2  and  N_17
REMARK    4  A    between atoms: N_6  and  C_7
REMARK    5  A    between atoms: N_17  and  C_18
REMARK    6  A    between atoms: C_21  and  N_24
REMARK    7  A    between atoms: N_27  and  C_28
REMARK                            x       y       z     vdW  Elec       q    Type
REMARK                         _______ _______ _______ _____ _____    ______ ____
ROOT
ATOM      1  N   UNL     1      -0.269  -0.668   1.394  0.00  0.00    -0.333 N 
ATOM      2  H   UNL     1       0.643  -0.857   1.124  0.00  0.00    +0.147 HD
ENDROOT
BRANCH   1   3
ATOM      3  C   UNL     1      -0.643  -0.799   2.736  0.00  0.00    +0.028 A 
ATOM      4  C   UNL     1      -1.950  -0.534   3.122  0.00  0.00    +0.025 A 
ATOM      5  C   UNL     1      -2.319  -0.664   4.446  0.00  0.00    +0.025 A 
ATOM      6  C   UNL     1      -1.383  -1.060   5.391  0.00  0.00    +0.035 A 
ATOM      7  C   UNL     1      -0.075  -1.325   5.006  0.00  0.00    +0.025 A 
ATOM      8  C   UNL     1       0.292  -1.200   3.681  0.00  0.00    +0.025 A 
BRANCH   6   9
ATOM      9  N   UNL     1      -1.757  -1.191   6.736  0.00  0.00    -0.269 N 
ATOM     10  C   UNL     1      -2.990  -1.634   7.052  0.00  0.00    +0.304 C 
ATOM     11  O   UNL     1      -3.806  -1.840   6.174  0.00  0.00    -0.253 OA
ATOM     12  N   UNL     1      -3.319  -1.849   8.341  0.00  0.00    -0.296 N 
ATOM     13  H   UNL     1      -1.129  -0.963   7.439  0.00  0.00    +0.156 HD
ATOM     14  H   UNL     1      -2.668  -1.685   9.042  0.00  0.00    +0.151 HD
BRANCH  12  15
ATOM     15  C   UNL     1      -4.659  -2.330   8.685  0.00  0.00    +0.075 C 
ATOM     16  C   UNL     1      -5.363  -1.673   9.873  0.00  0.00    +0.024 C 
ATOM     17  C   UNL     1      -4.819  -3.097   9.999  0.00  0.00    +0.024 C 
ENDBRANCH  12  15
ENDBRANCH   6   9
ENDBRANCH   1   3
BRANCH   1  19
ATOM     18  C   UNL     1      -1.333   1.283   0.372  0.00  0.00    +0.038 C 
ATOM     19  C   UNL     1      -1.255  -0.245   0.397  0.00  0.00    +0.154 C 
BRANCH  19  20
ATOM     20  C   UNL     1      -0.843  -0.748  -0.963  0.00  0.00    +0.237 C 
ATOM     21  O   UNL     1       0.174  -1.397  -1.086  0.00  0.00    -0.273 OA
ATOM     22  N   UNL     1      -1.605  -0.478  -2.041  0.00  0.00    -0.284 N 
ATOM     23  H   UNL     1      -2.452  -0.017  -1.933  0.00  0.00    +0.155 HD
BRANCH  22  24
ATOM     24  C   UNL     1      -1.175  -0.862  -3.315  0.00  0.00    +0.034 A 
ATOM     25  C   UNL     1      -0.466  -2.058  -3.476  0.00  0.00    +0.024 A 
ATOM     26  C   UNL     1      -0.036  -2.456  -4.703  0.00  0.00    +0.010 A 
ATOM     27  C   UNL     1      -0.303  -1.661  -5.831  0.00  0.00    -0.018 A 
ATOM     28  C   UNL     1       0.128  -2.047  -7.111  0.00  0.00    +0.008 A 
ATOM     29  C   UNL     1      -0.147  -1.254  -8.183  0.00  0.00    +0.001 A 
ATOM     30  C   UNL     1      -0.852  -0.062  -8.032  0.00  0.00    +0.001 A 
ATOM     31  C   UNL     1      -1.286   0.345  -6.808  0.00  0.00    +0.008 A 
ATOM     32  C   UNL     1      -1.021  -0.448  -5.677  0.00  0.00    -0.016 A 
ATOM     33  C   UNL     1      -1.458  -0.062  -4.400  0.00  0.00    +0.031 A 
ENDBRANCH  22  24
ENDBRANCH  19  20
ENDBRANCH   1  19
TORSDOF 6
