REMARK  Name = ZINC35456641
REMARK  10 active torsions:
REMARK  status: ('A' for Active; 'I' for Inactive)
REMARK    1  A    between atoms: C_1  and  C_2
REMARK    2  A    between atoms: C_2  and  C_3
REMARK    3  A    between atoms: C_3  and  C_4
REMARK    4  A    between atoms: C_4  and  C_5
REMARK    5  A    between atoms: C_5  and  C_6
REMARK    6  A    between atoms: C_9  and  C_12
REMARK    7  A    between atoms: C_19  and  N_29
REMARK    8  A    between atoms: C_21  and  C_23
REMARK    9  A    between atoms: N_32  and  C_35
REMARK   10  A    between atoms: C_35  and  C_36
REMARK                            x       y       z     vdW  Elec       q    Type
REMARK                         _______ _______ _______ _____ _____    ______ ____
ROOT
ATOM      1  C   UNL     1       1.703  -8.332   1.678  0.00  0.00    +0.247 C 
ATOM      2  O   UNL     1       1.683  -7.135   1.465  0.00  0.00    -0.270 OA
ATOM      3  N   UNL     1       2.801  -9.051   1.375  0.00  0.00    -0.293 N 
ATOM      4  C   UNL     1       4.026  -8.405   0.874  0.00  0.00    +0.114 C 
ATOM      5  C   UNL     1       5.133  -8.627   1.904  0.00  0.00    +0.075 C 
ATOM      6  C   UNL     1       5.177 -10.067   2.338  0.00  0.00    +0.053 A 
ATOM      7  C   UNL     1       4.117 -10.927   2.181  0.00  0.00    +0.031 A 
ATOM      8  C   UNL     1       4.248 -12.247   2.631  0.00  0.00    +0.130 A 
ATOM      9  N   UNL     1       5.391 -12.631   3.187  0.00  0.00    -0.212 NA
ATOM     10  C   UNL     1       6.395 -11.775   3.313  0.00  0.00    +0.162 A 
ATOM     11  N   UNL     1       6.294 -10.521   2.900  0.00  0.00    -0.232 NA
ATOM     12  C   UNL     1       2.826 -10.510   1.536  0.00  0.00    +0.148 C 
ENDROOT
BRANCH   8  13
ATOM     13  N   UNL     1       3.198 -13.141   2.498  0.00  0.00    -0.318 N 
ATOM     14  C   UNL     1       3.010 -13.907   1.256  0.00  0.00    +0.088 C 
ATOM     15  C   UNL     1       2.847 -15.387   1.619  0.00  0.00    -0.060 C 
ATOM     16  N   UNL     1       1.758 -15.534   2.593  0.00  0.00    +0.382 N 
ATOM     17  C   UNL     1       2.113 -14.857   3.846  0.00  0.00    -0.060 C 
ATOM     18  C   UNL     1       2.243 -13.355   3.596  0.00  0.00    +0.088 C 
ATOM     19  H   UNL     1       0.915 -15.124   2.218  0.00  0.00    -0.082 HD
BRANCH  16  20
ATOM     20  C   UNL     1       1.528 -16.960   2.857  0.00  0.00    -0.082 C 
ATOM     21  C   UNL     1       0.315 -17.121   3.774  0.00  0.00    -0.017 C 
ENDBRANCH  16  20
ENDBRANCH   8  13
BRANCH   1  25
ATOM     22  C   UNL     1      -1.685 -10.244   3.382  0.00  0.00    -0.047 A 
ATOM     23  C   UNL     1      -1.017 -10.839   2.327  0.00  0.00    +0.004 A 
ATOM     24  C   UNL     1       0.084 -10.223   1.769  0.00  0.00    +0.013 A 
ATOM     25  C   UNL     1       0.524  -8.997   2.271  0.00  0.00    +0.037 A 
ATOM     26  C   UNL     1      -0.155  -8.402   3.336  0.00  0.00    +0.013 A 
ATOM     27  C   UNL     1      -1.259  -9.026   3.881  0.00  0.00    +0.004 A 
BRANCH  22  28
ATOM     28  C   UNL     1      -2.888 -10.922   3.986  0.00  0.00    +0.035 C 
BRANCH  28  29
ATOM     29  C   UNL     1      -4.152 -10.468   3.254  0.00  0.00    +0.005 C 
BRANCH  29  30
ATOM     30  C   UNL     1      -5.372 -11.157   3.868  0.00  0.00    +0.000 C 
BRANCH  30  32
ATOM     31  C   UNL     1      -7.857 -11.391   3.749  0.00  0.00    +0.004 C 
ATOM     32  C   UNL     1      -6.636 -10.702   3.136  0.00  0.00    -0.003 C 
ENDBRANCH  30  32
ENDBRANCH  29  30
ENDBRANCH  28  29
ENDBRANCH  22  28
ENDBRANCH   1  25
BRANCH  10  33
ATOM     33  C   UNL     1       7.663 -12.233   3.932  0.00  0.00    +0.019 A 
ATOM     34  C   UNL     1       7.792 -13.550   4.369  0.00  0.00    +0.011 A 
ATOM     35  C   UNL     1       8.974 -13.971   4.944  0.00  0.00    +0.001 A 
ATOM     36  C   UNL     1      10.029 -13.088   5.087  0.00  0.00    +0.000 A 
ATOM     37  C   UNL     1       9.906 -11.780   4.656  0.00  0.00    +0.001 A 
ATOM     38  C   UNL     1       8.731 -11.349   4.075  0.00  0.00    +0.011 A 
ENDBRANCH  10  33
TORSDOF 8
