REMARK  Name = ZINC20464074
REMARK  10 active torsions:
REMARK  status: ('A' for Active; 'I' for Inactive)
REMARK    1  A    between atoms: C_1  and  N_2
REMARK    2  A    between atoms: C_4  and  N_25
REMARK    3  A    between atoms: C_7  and  C_9
REMARK    4  A    between atoms: C_11  and  C_14
REMARK    5  A    between atoms: C_17  and  O_20
REMARK    6  A    between atoms: O_20  and  C_21
REMARK    7  A    between atoms: C_26  and  C_28
REMARK    8  A    between atoms: C_28  and  C_29
REMARK    9  A    between atoms: C_32  and  O_35
REMARK   10  A    between atoms: O_35  and  C_36
REMARK                            x       y       z     vdW  Elec       q    Type
REMARK                         _______ _______ _______ _____ _____    ______ ____
ROOT
ATOM      1  C   UNL     1       3.952   1.508  -2.324  0.00  0.00    -0.095 C 
ATOM      2  N   UNL     1       3.921   1.949  -0.922  0.00  0.00    +0.387 N 
ATOM      3  C   UNL     1       5.282   2.302  -0.445  0.00  0.00    -0.056 C 
ATOM      4  C   UNL     1       5.191   2.211   1.093  0.00  0.00    +0.055 C 
ATOM      5  C   UNL     1       4.015   1.251   1.369  0.00  0.00    +0.014 C 
ATOM      6  C   UNL     1       3.495   0.843  -0.026  0.00  0.00    +0.023 C 
ATOM      7  H   UNL     1       3.228   2.803  -0.903  0.00  0.00    -0.081 HD
ENDROOT
BRANCH   6   8
ATOM      8  C   UNL     1       1.993   0.726  -0.013  0.00  0.00    +0.214 A 
ATOM      9  N   UNL     1       1.300  -0.386  -0.012  0.00  0.00    -0.193 NA
ATOM     10  C   UNL     1       0.002  -0.004   0.002  0.00  0.00    +0.202 A 
ATOM     11  N   UNL     1      -0.016   1.304   0.009  0.00  0.00    -0.056 NA
ATOM     12  O   UNL     1       1.118   1.736   0.001  0.00  0.00    -0.339 OA
BRANCH  10  13
ATOM     13  C   UNL     1      -1.179  -0.901   0.009  0.00  0.00    +0.023 A 
ATOM     14  C   UNL     1      -1.006  -2.284  -0.005  0.00  0.00    +0.015 A 
ATOM     15  C   UNL     1      -2.107  -3.115   0.007  0.00  0.00    +0.046 A 
ATOM     16  C   UNL     1      -3.386  -2.576   0.022  0.00  0.00    +0.130 A 
ATOM     17  C   UNL     1      -3.561  -1.198   0.030  0.00  0.00    +0.046 A 
ATOM     18  C   UNL     1      -2.465  -0.362   0.024  0.00  0.00    +0.015 A 
BRANCH  16  19
ATOM     19  O   UNL     1      -4.468  -3.397   0.028  0.00  0.00    -0.406 OA
BRANCH  19  20
ATOM     20  C   UNL     1      -4.215  -4.803   0.018  0.00  0.00    +0.575 C 
ATOM     21  F   UNL     1      -3.473  -5.151   1.152  0.00  0.00    -0.133 F 
ATOM     22  F   UNL     1      -5.431  -5.496   0.026  0.00  0.00    -0.133 F 
ATOM     23  F   UNL     1      -3.494  -5.140  -1.132  0.00  0.00    -0.133 F 
ENDBRANCH  19  20
ENDBRANCH  16  19
ENDBRANCH  10  13
ENDBRANCH   6   8
BRANCH   4  24
ATOM     24  N   UNL     1       4.915   3.531   1.665  0.00  0.00    -0.314 N 
ATOM     25  C   UNL     1       5.935   4.348   1.997  0.00  0.00    +0.218 C 
ATOM     26  O   UNL     1       7.080   3.991   1.821  0.00  0.00    -0.275 OA
ATOM     27  H   UNL     1       3.876   3.856   1.825  0.00  0.00    +0.149 HD
BRANCH  25  28
ATOM     28  C   UNL     1       5.651   5.706   2.586  0.00  0.00    +0.130 C 
BRANCH  28  29
ATOM     29  C   UNL     1       6.951   6.415   2.865  0.00  0.00    -0.038 A 
ATOM     30  C   UNL     1       7.565   6.271   4.095  0.00  0.00    +0.007 A 
ATOM     31  C   UNL     1       8.760   6.914   4.352  0.00  0.00    +0.046 A 
ATOM     32  C   UNL     1       9.339   7.715   3.377  0.00  0.00    +0.120 A 
ATOM     33  C   UNL     1       8.718   7.862   2.146  0.00  0.00    +0.046 A 
ATOM     34  C   UNL     1       7.526   7.212   1.892  0.00  0.00    +0.007 A 
BRANCH  32  35
ATOM     35  O   UNL     1      10.512   8.353   3.629  0.00  0.00    -0.495 OA
ATOM     36  C   UNL     1      11.094   8.155   4.919  0.00  0.00    +0.277 C 
ENDBRANCH  32  35
ENDBRANCH  28  29
ENDBRANCH  25  28
ENDBRANCH   4  24
TORSDOF 8
