REMARK  Name = ZINC20527915
REMARK  8 active torsions:
REMARK  status: ('A' for Active; 'I' for Inactive)
REMARK    1  A    between atoms: C_4  and  C_7
REMARK    2  A    between atoms: C_7  and  N_8
REMARK    3  A    between atoms: C_9  and  C_11
REMARK    4  A    between atoms: C_11  and  S_12
REMARK    5  A    between atoms: S_12  and  C_13
REMARK    6  A    between atoms: N_17  and  N_18
REMARK    7  A    between atoms: N_19  and  N_20
REMARK    8  A    between atoms: C_21  and  C_22
REMARK                            x       y       z     vdW  Elec       q    Type
REMARK                         _______ _______ _______ _____ _____    ______ ____
ROOT
ATOM      1  C   UNL     1       1.825   5.511   0.014  0.00  0.00    +0.210 A 
ATOM      2  N   UNL     1       0.513   5.493   0.026  0.00  0.00    -0.119 NA
ATOM      3  N   UNL     1       0.098   4.155   0.018  0.00  0.00    -0.109 NA
ATOM      4  C   UNL     1       1.169   3.399   0.009  0.00  0.00    +0.254 A 
ATOM      5  N   UNL     1       2.264   4.217   0.003  0.00  0.00    -0.211 N 
ATOM      6  N   UNL     1       1.188   2.011   0.002  0.00  0.00    -0.204 N 
ATOM      7  H   UNL     1       2.148   1.474  -0.011  0.00  0.00    +0.177 HD
ENDROOT
BRANCH   5   8
ATOM      8  N   UNL     1       3.569   3.813  -0.010  0.00  0.00    -0.294 N 
ATOM      9  H   UNL     1       3.812   2.740  -0.018  0.00  0.00    +0.163 HD
ATOM     10  H   UNL     1       4.377   4.560  -0.013  0.00  0.00    +0.163 HD
ENDBRANCH   5   8
BRANCH   6  11
ATOM     11  N   UNL     1      -0.015   1.294   0.009  0.00  0.00    -0.187 NA
ATOM     12  C   UNL     1       0.002  -0.004   0.002  0.00  0.00    +0.139 C 
BRANCH  12  13
ATOM     13  C   UNL     1      -1.264  -0.758   0.010  0.00  0.00    +0.013 A 
ATOM     14  C   UNL     1      -1.249  -2.156   0.002  0.00  0.00    +0.012 A 
ATOM     15  C   UNL     1      -2.437  -2.855   0.010  0.00  0.00    +0.021 A 
ATOM     16  C   UNL     1      -3.645  -2.177   0.025  0.00  0.00    +0.042 A 
ATOM     17  C   UNL     1      -3.668  -0.792   0.033  0.00  0.00    +0.040 A 
ATOM     18  C   UNL     1      -2.486  -0.079   0.031  0.00  0.00    +0.051 A 
ATOM     19 CL   UNL     1      -2.517   1.656   0.048  0.00  0.00    -0.083 Cl
ATOM     20 CL   UNL     1      -5.136  -3.066   0.033  0.00  0.00    -0.083 Cl
ENDBRANCH  12  13
ENDBRANCH   6  11
BRANCH   1  21
ATOM     21  S   UNL     1       2.841   6.950   0.011  0.00  0.00    -0.075 S 
BRANCH  21  22
ATOM     22  C   UNL     1       1.657   8.323   0.029  0.00  0.00    +0.173 C 
BRANCH  22  24
ATOM     23  N   UNL     1       1.726  10.796   0.040  0.00  0.00    -0.311 N 
ATOM     24  C   UNL     1       2.405   9.632   0.028  0.00  0.00    +0.224 C 
ATOM     25  O   UNL     1       3.617   9.637   0.016  0.00  0.00    -0.275 OA
ATOM     26  H   UNL     1       0.626  10.791   0.051  0.00  0.00    +0.149 HD
BRANCH  23  27
ATOM     27  C   UNL     1       2.453  12.068   0.039  0.00  0.00    +0.139 C 
BRANCH  27  31
ATOM     28  C   UNL     1      -0.336  15.303   0.083  0.00  0.00    +0.000 A 
ATOM     29  C   UNL     1       0.127  14.774   1.273  0.00  0.00    +0.000 A 
ATOM     30  C   UNL     1       1.029  13.727   1.259  0.00  0.00    +0.005 A 
ATOM     31  C   UNL     1       1.469  13.209   0.055  0.00  0.00    -0.030 A 
ATOM     32  C   UNL     1       1.010  13.742  -1.135  0.00  0.00    +0.005 A 
ATOM     33  C   UNL     1       0.104  14.786  -1.121  0.00  0.00    +0.000 A 
ENDBRANCH  27  31
ENDBRANCH  23  27
ENDBRANCH  22  24
ENDBRANCH  21  22
ENDBRANCH   1  21
TORSDOF 8
