REMARK  Name = ZINC40322743
REMARK  11 active torsions:
REMARK  status: ('A' for Active; 'I' for Inactive)
REMARK    1  A    between atoms: C_1  and  C_2
REMARK    2  A    between atoms: C_5  and  S_8
REMARK    3  A    between atoms: S_8  and  C_11
REMARK    4  A    between atoms: C_14  and  C_16
REMARK    5  A    between atoms: N_18  and  C_19
REMARK    6  A    between atoms: C_19  and  C_20
REMARK    7  A    between atoms: C_20  and  C_22
REMARK    8  A    between atoms: C_20  and  N_31
REMARK    9  A    between atoms: C_25  and  C_28
REMARK   10  A    between atoms: C_28  and  C_29
REMARK   11  A    between atoms: C_28  and  C_30
REMARK                            x       y       z     vdW  Elec       q    Type
REMARK                         _______ _______ _______ _____ _____    ______ ____
ROOT
ATOM      1  C   UNL     1       6.888  -7.876  -2.529  0.00  0.00    +0.279 C 
ATOM      2  O   UNL     1       7.124  -7.023  -1.694  0.00  0.00    -0.267 OA
ATOM      3  N   UNL     1       6.302  -7.535  -3.694  0.00  0.00    -0.310 N 
ATOM      4  H   UNL     1       6.114  -8.215  -4.359  0.00  0.00    +0.149 HD
ENDROOT
BRANCH   1   8
ATOM      5  C   UNL     1       7.484 -11.440  -2.533  0.00  0.00    +0.246 A 
ATOM      6  C   UNL     1       7.987 -11.139  -1.315  0.00  0.00    +0.070 A 
ATOM      7  C   UNL     1       7.836  -9.755  -1.136  0.00  0.00    +0.056 A 
ATOM      8  C   UNL     1       7.242  -9.275  -2.268  0.00  0.00    +0.192 A 
ATOM      9  O   UNL     1       7.041 -10.313  -3.106  0.00  0.00    -0.433 OA
BRANCH   5  10
ATOM     10  S   UNL     1       7.428 -13.047  -3.251  0.00  0.00    +0.058 S 
ATOM     11  O   UNL     1       8.448 -13.810  -2.621  0.00  0.00    -0.161 OA
ATOM     12  O   UNL     1       7.376 -12.861  -4.659  0.00  0.00    -0.161 OA
BRANCH  10  17
ATOM     13  C   UNL     1       2.172 -15.539  -1.647  0.00  0.00    +0.044 C 
ATOM     14  C   UNL     1       3.485 -14.917  -2.047  0.00  0.00    -0.050 A 
ATOM     15  C   UNL     1       3.572 -14.175  -3.211  0.00  0.00    +0.005 A 
ATOM     16  C   UNL     1       4.776 -13.604  -3.578  0.00  0.00    +0.028 A 
ATOM     17  C   UNL     1       5.893 -13.774  -2.782  0.00  0.00    +0.097 A 
ATOM     18  C   UNL     1       5.806 -14.516  -1.619  0.00  0.00    +0.028 A 
ATOM     19  C   UNL     1       4.601 -15.083  -1.249  0.00  0.00    +0.005 A 
ENDBRANCH  10  17
ENDBRANCH   5  10
ENDBRANCH   1   8
BRANCH   3  20
ATOM     20  C   UNL     1       5.949  -6.137  -3.954  0.00  0.00    +0.094 C 
BRANCH  20  21
ATOM     21  C   UNL     1       5.424  -6.002  -5.385  0.00  0.00    -0.020 C 
BRANCH  21  22
ATOM     22  N   UNL     1       4.985  -4.620  -5.617  0.00  0.00    +0.385 N 
ATOM     23  C   UNL     1       3.882  -4.298  -4.703  0.00  0.00    -0.078 C 
ATOM     24  C   UNL     1       3.474  -2.835  -4.884  0.00  0.00    -0.019 C 
ATOM     25  C   UNL     1       3.022  -2.611  -6.330  0.00  0.00    -0.004 C 
ATOM     26  C   UNL     1       4.154  -3.020  -7.277  0.00  0.00    -0.019 C 
ATOM     27  C   UNL     1       4.537  -4.477  -7.007  0.00  0.00    -0.078 C 
ATOM     28  H   UNL     1       5.755  -3.990  -5.446  0.00  0.00    -0.081 HD
ENDBRANCH  21  22
BRANCH  21  29
ATOM     29  C   UNL     1       6.521  -6.350  -6.358  0.00  0.00    -0.059 A 
ATOM     30  C   UNL     1       7.498  -5.420  -6.659  0.00  0.00    +0.002 A 
ATOM     31  C   UNL     1       8.505  -5.740  -7.551  0.00  0.00    +0.004 A 
ATOM     32  C   UNL     1       8.534  -6.989  -8.142  0.00  0.00    -0.045 A 
ATOM     33  C   UNL     1       7.558  -7.920  -7.839  0.00  0.00    +0.004 A 
ATOM     34  C   UNL     1       6.554  -7.602  -6.944  0.00  0.00    +0.002 A 
BRANCH  32  35
ATOM     35  C   UNL     1       9.631  -7.337  -9.115  0.00  0.00    +0.013 C 
ATOM     36  C   UNL     1      10.417  -8.540  -8.589  0.00  0.00    +0.012 C 
ATOM     37  C   UNL     1       9.017  -7.684 -10.473  0.00  0.00    +0.012 C 
ENDBRANCH  32  35
ENDBRANCH  21  29
ENDBRANCH  20  21
ENDBRANCH   3  20
TORSDOF 8
