REMARK  Name = ZINC34787723
REMARK  5 active torsions:
REMARK  status: ('A' for Active; 'I' for Inactive)
REMARK    1  A    between atoms: C_1  and  C_2
REMARK    2  A    between atoms: C_4  and  C_23
REMARK    3  A    between atoms: C_17  and  S_19
REMARK    4  A    between atoms: S_19  and  C_20
REMARK    5  A    between atoms: C_20  and  C_21
REMARK                            x       y       z     vdW  Elec       q    Type
REMARK                         _______ _______ _______ _____ _____    ______ ____
ROOT
ATOM      1  C   UNL     1      -0.018   1.503   0.010  0.00  0.00    +0.067 C 
ATOM      2  C   UNL     1       0.002  -0.004   0.002  0.00  0.00    +0.061 A 
ATOM      3  C   UNL     1       0.008  -0.817  -1.138  0.00  0.00    +0.048 A 
ATOM      4  C   UNL     1       0.027  -2.107  -0.730  0.00  0.00    +0.045 A 
ATOM      5  N   UNL     1       0.034  -2.108   0.629  0.00  0.00    -0.202 N 
ATOM      6  N   UNL     1       0.023  -0.775   1.058  0.00  0.00    -0.169 NA
ATOM      7  C   UNL     1       0.052  -3.237   1.449  0.00  0.00    +0.254 A 
ATOM      8  N   UNL     1       0.051  -3.082   2.765  0.00  0.00    -0.203 NA
ATOM      9  C   UNL     1       0.069  -4.136   3.557  0.00  0.00    +0.115 A 
ATOM     10  C   UNL     1       0.090  -5.444   3.041  0.00  0.00    +0.043 A 
ATOM     11  C   UNL     1       0.107  -6.529   4.036  0.00  0.00    -0.025 A 
ATOM     12  C   UNL     1       0.100  -6.167   5.329  0.00  0.00    -0.004 A 
ATOM     13  S   UNL     1       0.074  -4.389   5.311  0.00  0.00    -0.073 S 
ATOM     14  C   UNL     1       0.114  -7.356   6.252  0.00  0.00    +0.043 C 
ATOM     15  C   UNL     1      -0.303  -8.545   5.359  0.00  0.00    +0.010 C 
ATOM     16  C   UNL     1       0.137  -8.059   3.965  0.00  0.00    +0.037 C 
ATOM     17  C   UNL     1       0.090  -5.548   1.622  0.00  0.00    +0.111 A 
ATOM     18  N   UNL     1       0.066  -4.441   0.896  0.00  0.00    -0.204 NA
ATOM     19  C   UNL     1       0.039  -3.321  -1.622  0.00  0.00    +0.066 C 
ENDROOT
BRANCH  17  20
ATOM     20  S   UNL     1       0.116  -7.128   0.841  0.00  0.00    -0.101 S 
BRANCH  20  21
ATOM     21  C   UNL     1       0.108  -6.742  -0.931  0.00  0.00    +0.102 C 
BRANCH  21  22
ATOM     22  C   UNL     1       0.129  -8.023  -1.724  0.00  0.00    -0.023 C 
ATOM     23  C   UNL     1      -0.894  -8.345  -2.476  0.00  0.00    +0.005 C 
ENDBRANCH  21  22
ENDBRANCH  20  21
ENDBRANCH  17  20
TORSDOF 3
