REMARK  Name = ZINC35267844
REMARK  8 active torsions:
REMARK  status: ('A' for Active; 'I' for Inactive)
REMARK    1  A    between atoms: C_1  and  C_2
REMARK    2  A    between atoms: C_2  and  C_3
REMARK    3  A    between atoms: C_3  and  C_5
REMARK    4  A    between atoms: C_3  and  C_6
REMARK    5  A    between atoms: C_6  and  C_8
REMARK    6  A    between atoms: C_6  and  N_23
REMARK    7  A    between atoms: C_14  and  C_16
REMARK    8  A    between atoms: C_24  and  C_26
REMARK                            x       y       z     vdW  Elec       q    Type
REMARK                         _______ _______ _______ _____ _____    ______ ____
ROOT
ATOM      1  C   UNL     1       0.707  -2.009   1.303  0.00  0.00    +0.162 C 
ENDROOT
BRANCH   1   2
ATOM      2  C   UNL     1       1.594  -2.532   0.203  0.00  0.00    +0.239 C 
ATOM      3  O   UNL     1       1.113  -3.161  -0.716  0.00  0.00    -0.273 OA
ATOM      4  N   UNL     1       2.921  -2.301   0.240  0.00  0.00    -0.262 N 
ATOM      5  C   UNL     1       3.753  -2.871  -0.717  0.00  0.00    +0.188 A 
ATOM      6  N   UNL     1       3.437  -3.652  -1.732  0.00  0.00    -0.125 NA
ATOM      7  N   UNL     1       4.311  -4.099  -2.529  0.00  0.00    -0.140 NA
ATOM      8  C   UNL     1       5.582  -3.770  -2.335  0.00  0.00    +0.134 A 
ATOM      9  S   UNL     1       5.425  -2.736  -0.885  0.00  0.00    -0.030 S 
ATOM     10  H   UNL     1       3.296  -1.737   0.934  0.00  0.00    +0.157 HD
BRANCH   8  11
ATOM     11  C   UNL     1       6.787  -4.148  -3.104  0.00  0.00    +0.010 A 
ATOM     12  C   UNL     1       8.043  -3.684  -2.710  0.00  0.00    +0.011 A 
ATOM     13  C   UNL     1       9.164  -4.040  -3.431  0.00  0.00    +0.002 A 
ATOM     14  C   UNL     1       9.045  -4.855  -4.543  0.00  0.00    +0.020 A 
ATOM     15  C   UNL     1       7.802  -5.319  -4.939  0.00  0.00    +0.042 A 
ATOM     16  C   UNL     1       6.673  -4.974  -4.223  0.00  0.00    +0.030 A 
ATOM     17 CL   UNL     1       7.663  -6.341  -6.336  0.00  0.00    -0.084 Cl
ENDBRANCH   8  11
ENDBRANCH   1   2
BRANCH   1  18
ATOM     18  N   UNL     1      -0.494  -2.842   1.401  0.00  0.00    -0.303 N 
ATOM     19  C   UNL     1      -1.170  -2.916   2.564  0.00  0.00    +0.220 C 
ATOM     20  O   UNL     1      -0.785  -2.292   3.530  0.00  0.00    -0.275 OA
ATOM     21  H   UNL     1      -0.802  -3.341   0.628  0.00  0.00    +0.149 HD
BRANCH  19  22
ATOM     22  C   UNL     1      -2.405  -3.774   2.664  0.00  0.00    +0.048 C 
ATOM     23  C   UNL     1      -2.043  -5.228   2.354  0.00  0.00    +0.019 C 
ATOM     24  C   UNL     1      -3.297  -6.098   2.456  0.00  0.00    -0.009 C 
ATOM     25  C   UNL     1      -3.869  -6.006   3.872  0.00  0.00    +0.007 C 
ATOM     26  C   UNL     1      -4.231  -4.552   4.182  0.00  0.00    -0.009 C 
ATOM     27  C   UNL     1      -2.977  -3.681   4.080  0.00  0.00    +0.019 C 
ATOM     28  C   UNL     1      -5.276  -4.061   3.177  0.00  0.00    +0.007 C 
ATOM     29  C   UNL     1      -4.704  -4.154   1.761  0.00  0.00    -0.009 C 
ATOM     30  C   UNL     1      -4.342  -5.607   1.451  0.00  0.00    +0.007 C 
ATOM     31  C   UNL     1      -3.450  -3.283   1.659  0.00  0.00    +0.019 C 
ENDBRANCH  19  22
ENDBRANCH   1  18
BRANCH   1  32
ATOM     32  C   UNL     1       0.303  -0.567   0.990  0.00  0.00    +0.015 C 
ATOM     33  C   UNL     1      -0.574  -0.543  -0.264  0.00  0.00    +0.010 C 
BRANCH  32  35
ATOM     34  C   UNL     1      -0.777   1.490   1.911  0.00  0.00    +0.004 C 
ATOM     35  C   UNL     1      -0.480   0.011   2.171  0.00  0.00    +0.002 C 
ENDBRANCH  32  35
ENDBRANCH   1  32
TORSDOF 6
