REMARK  Name = ZINC37722485
REMARK  12 active torsions:
REMARK  status: ('A' for Active; 'I' for Inactive)
REMARK    1  A    between atoms: C_1  and  C_2
REMARK    2  A    between atoms: C_2  and  C_3
REMARK    3  A    between atoms: C_3  and  C_5
REMARK    4  A    between atoms: C_3  and  N_22
REMARK    5  A    between atoms: C_5  and  C_6
REMARK    6  A    between atoms: C_8  and  O_19
REMARK    7  A    between atoms: C_9  and  O_13
REMARK    8  A    between atoms: O_13  and  C_14
REMARK    9  A    between atoms: C_14  and  C_15
REMARK   10  A    between atoms: C_15  and  C_16
REMARK   11  A    between atoms: O_19  and  C_20
REMARK   12  A    between atoms: C_20  and  C_21
REMARK                            x       y       z     vdW  Elec       q    Type
REMARK                         _______ _______ _______ _____ _____    ______ ____
ROOT
ATOM      1  C   UNL     1       1.227  -2.500  -2.628  0.00  0.00    -0.044 A 
ATOM      2  C   UNL     1       0.428  -2.627  -3.749  0.00  0.00    +0.053 A 
ATOM      3  C   UNL     1       0.974  -3.065  -4.944  0.00  0.00    +0.163 A 
ATOM      4  C   UNL     1       2.329  -3.377  -5.013  0.00  0.00    +0.176 A 
ATOM      5  C   UNL     1       3.125  -3.248  -3.886  0.00  0.00    +0.063 A 
ATOM      6  C   UNL     1       2.573  -2.805  -2.697  0.00  0.00    +0.022 A 
ATOM      7 BR   UNL     1       4.966  -3.671  -3.975  0.00  0.00    -0.046 Br
ENDROOT
BRANCH   1   8
ATOM      8  C   UNL     1       0.630  -2.023  -1.329  0.00  0.00    +0.019 C 
BRANCH   8   9
ATOM      9  C   UNL     1       0.718  -0.497  -1.257  0.00  0.00    -0.071 C 
BRANCH   9  10
ATOM     10  N   UNL     1       2.129  -0.090  -1.209  0.00  0.00    +0.380 N 
ATOM     11  H   UNL     1       2.187   0.916  -1.162  0.00  0.00    -0.090 HD
ATOM     12  H   UNL     1       2.567  -0.491  -0.394  0.00  0.00    -0.090 HD
ATOM     13  H   UNL     1       2.601  -0.415  -2.039  0.00  0.00    -0.090 HD
ENDBRANCH   9  10
BRANCH   9  15
ATOM     14  C   UNL     1      -0.019   1.526   0.010  0.00  0.00    +0.002 C 
ATOM     15  C   UNL     1       0.002  -0.004   0.002  0.00  0.00    -0.019 C 
ENDBRANCH   9  15
ENDBRANCH   8   9
ENDBRANCH   1   8
BRANCH   4  16
ATOM     16  O   UNL     1       2.870  -3.808  -6.184  0.00  0.00    -0.487 OA
BRANCH  16  17
ATOM     17  C   UNL     1       3.389  -2.810  -7.066  0.00  0.00    +0.238 C 
BRANCH  17  18
ATOM     18  C   UNL     1       3.951  -3.480  -8.321  0.00  0.00    +0.136 C 
BRANCH  18  19
ATOM     19  C   UNL     1       4.498  -2.428  -9.250  0.00  0.00    +0.214 C 
ATOM     20  O   UNL     1       4.444  -1.257  -8.939  0.00  0.00    -0.276 OA
ATOM     21  N   UNL     1       5.048  -2.788 -10.427  0.00  0.00    -0.329 N 
ATOM     22  H   UNL     1       5.092  -3.724 -10.675  0.00  0.00    +0.145 HD
ATOM     23  H   UNL     1       5.401  -2.110 -11.025  0.00  0.00    +0.145 HD
ENDBRANCH  18  19
ENDBRANCH  17  18
ENDBRANCH  16  17
ENDBRANCH   4  16
BRANCH   3  24
ATOM     24  O   UNL     1       0.189  -3.190  -6.047  0.00  0.00    -0.489 OA
BRANCH  24  25
ATOM     25  C   UNL     1      -1.192  -2.853  -5.902  0.00  0.00    +0.226 C 
ATOM     26  C   UNL     1      -1.910  -3.055  -7.238  0.00  0.00    +0.048 C 
ENDBRANCH  24  25
ENDBRANCH   3  24
TORSDOF 10
