REMARK  Name = ZINC40921479
REMARK  4 active torsions:
REMARK  status: ('A' for Active; 'I' for Inactive)
REMARK    1  A    between atoms: C_3  and  O_22
REMARK    2  A    between atoms: C_6  and  C_7
REMARK    3  A    between atoms: O_22  and  C_23
REMARK    4  A    between atoms: C_23  and  C_24
REMARK                            x       y       z     vdW  Elec       q    Type
REMARK                         _______ _______ _______ _____ _____    ______ ____
ROOT
ATOM      1  C   UNL     1      -0.017   1.378   0.010  0.00  0.00    +0.009 A 
ATOM      2  C   UNL     1       1.169   2.087   0.002  0.00  0.00    +0.046 A 
ATOM      3  C   UNL     1       2.380   1.409  -0.013  0.00  0.00    +0.121 A 
ATOM      4  C   UNL     1       2.396   0.022  -0.021  0.00  0.00    +0.046 A 
ATOM      5  C   UNL     1       1.207  -0.681  -0.013  0.00  0.00    +0.009 A 
ATOM      6  C   UNL     1       0.002  -0.004   0.002  0.00  0.00    -0.018 A 
ENDROOT
BRANCH   6   7
ATOM      7  C   UNL     1      -1.293  -0.774   0.011  0.00  0.00    +0.177 C 
ATOM      8  C   UNL     1      -1.351  -1.647   1.246  0.00  0.00    +0.041 C 
ATOM      9  C   UNL     1      -1.192  -2.987   1.186  0.00  0.00    +0.020 C 
ATOM     10  C   UNL     1      -1.256  -3.832   2.437  0.00  0.00    +0.052 C 
ATOM     11  C   UNL     1      -0.754  -3.021   3.633  0.00  0.00    +0.014 C 
ATOM     12  C   UNL     1      -1.626  -1.768   3.766  0.00  0.00    +0.080 C 
ATOM     13  C   UNL     1      -1.577  -1.001   2.474  0.00  0.00    +0.163 C 
ATOM     14  O   UNL     1      -1.736   0.204   2.492  0.00  0.00    -0.292 OA
ATOM     15  N   UNL     1      -0.975  -3.640  -0.004  0.00  0.00    -0.286 N 
ATOM     16  C   UNL     1      -1.216  -2.948  -1.178  0.00  0.00    +0.240 A 
ATOM     17  N   UNL     1      -1.372  -1.601  -1.184  0.00  0.00    -0.201 N 
ATOM     18  N   UNL     1      -1.603  -1.261  -2.516  0.00  0.00    -0.042 NA
ATOM     19  N   UNL     1      -1.566  -2.366  -3.189  0.00  0.00    -0.021 NA
ATOM     20  N   UNL     1      -1.338  -3.358  -2.408  0.00  0.00    -0.092 NA
ATOM     21  H   UNL     1      -0.662  -4.558  -0.020  0.00  0.00    +0.155 HD
ENDBRANCH   6   7
BRANCH   3  22
ATOM     22  O   UNL     1       3.548   2.104  -0.021  0.00  0.00    -0.487 OA
BRANCH  22  23
ATOM     23  C   UNL     1       4.756   1.341  -0.036  0.00  0.00    +0.264 C 
BRANCH  23  24
ATOM     24  C   UNL     1       5.940   2.274  -0.043  0.00  0.00    -0.009 A 
ATOM     25  C   UNL     1       6.467   2.712  -1.244  0.00  0.00    +0.008 A 
ATOM     26  C   UNL     1       7.553   3.567  -1.252  0.00  0.00    +0.022 A 
ATOM     27  C   UNL     1       8.112   3.986  -0.058  0.00  0.00    +0.059 A 
ATOM     28  C   UNL     1       7.584   3.547   1.145  0.00  0.00    +0.060 A 
ATOM     29  C   UNL     1       6.494   2.695   1.151  0.00  0.00    +0.028 A 
ATOM     30 CL   UNL     1       8.285   4.071   2.644  0.00  0.00    -0.082 Cl
ATOM     31 CL   UNL     1       9.476   5.060  -0.067  0.00  0.00    -0.082 Cl
ENDBRANCH  23  24
ENDBRANCH  22  23
ENDBRANCH   3  22
TORSDOF 4
