REMARK  Name = ZINC40060427
REMARK  13 active torsions:
REMARK  status: ('A' for Active; 'I' for Inactive)
REMARK    1  A    between atoms: C_1  and  C_2
REMARK    2  A    between atoms: C_5  and  S_8
REMARK    3  A    between atoms: S_8  and  N_11
REMARK    4  A    between atoms: N_11  and  C_12
REMARK    5  A    between atoms: C_12  and  C_14
REMARK    6  A    between atoms: C_12  and  C_17
REMARK    7  A    between atoms: C_14  and  C_15
REMARK    8  A    between atoms: C_14  and  C_16
REMARK    9  A    between atoms: C_17  and  O_19
REMARK   10  A    between atoms: O_19  and  C_20
REMARK   11  A    between atoms: C_20  and  C_21
REMARK   12  A    between atoms: C_21  and  C_23
REMARK   13  A    between atoms: C_31  and  C_33
REMARK                            x       y       z     vdW  Elec       q    Type
REMARK                         _______ _______ _______ _____ _____    ______ ____
ROOT
ATOM      1  O   UNL     1       4.792  -3.683   1.599  0.00  0.00    -0.455 OA
ENDROOT
BRANCH   1   2
ATOM      2  C   UNL     1       3.936  -4.118   0.661  0.00  0.00    +0.327 C 
ATOM      3  O   UNL     1       4.258  -4.105  -0.503  0.00  0.00    -0.249 OA
BRANCH   2   4
ATOM      4  C   UNL     1       2.574  -4.623   1.061  0.00  0.00    +0.187 C 
BRANCH   4   5
ATOM      5  C   UNL     1       2.728  -5.818   2.003  0.00  0.00    +0.012 C 
ATOM      6  C   UNL     1       1.350  -6.258   2.500  0.00  0.00    +0.009 C 
ATOM      7  C   UNL     1       3.394  -6.975   1.254  0.00  0.00    +0.009 C 
ENDBRANCH   4   5
BRANCH   4   8
ATOM      8  N   UNL     1       1.836  -5.036  -0.136  0.00  0.00    -0.176 NA
ATOM      9  H   UNL     1       2.150  -5.787  -0.664  0.00  0.00    +0.149 HD
BRANCH   8  10
ATOM     10  S   UNL     1       0.467  -4.222  -0.587  0.00  0.00    +0.059 S 
ATOM     11  O   UNL     1      -0.359  -4.145   0.567  0.00  0.00    -0.153 OA
ATOM     12  O   UNL     1       0.024  -4.813  -1.801  0.00  0.00    -0.153 OA
BRANCH  10  17
ATOM     13  C   UNL     1       2.104   1.431  -1.917  0.00  0.00    +0.044 C 
ATOM     14  C   UNL     1       1.695   0.019  -1.585  0.00  0.00    -0.050 A 
ATOM     15  C   UNL     1       1.693  -0.950  -2.570  0.00  0.00    +0.005 A 
ATOM     16  C   UNL     1       1.318  -2.245  -2.266  0.00  0.00    +0.029 A 
ATOM     17  C   UNL     1       0.946  -2.571  -0.975  0.00  0.00    +0.105 A 
ATOM     18  C   UNL     1       0.949  -1.603   0.011  0.00  0.00    +0.029 A 
ATOM     19  C   UNL     1       1.328  -0.309  -0.293  0.00  0.00    +0.005 A 
ENDBRANCH  10  17
ENDBRANCH   8  10
ENDBRANCH   4   8
ENDBRANCH   2   4
ENDBRANCH   1   2
BRANCH   1  20
ATOM     20  C   UNL     1       6.066  -3.218   1.149  0.00  0.00    +0.311 C 
BRANCH  20  21
ATOM     21  C   UNL     1       6.886  -2.773   2.333  0.00  0.00    +0.199 C 
ATOM     22  O   UNL     1       6.423  -2.846   3.454  0.00  0.00    -0.289 OA
BRANCH  21  23
ATOM     23  C   UNL     1       8.190  -2.271   2.140  0.00  0.00    +0.034 C 
ATOM     24  C   UNL     1       8.858  -2.117   0.938  0.00  0.00    +0.007 A 
ATOM     25  C   UNL     1       8.499  -2.386  -0.403  0.00  0.00    +0.010 A 
ATOM     26  C   UNL     1       9.370  -2.133  -1.406  0.00  0.00    +0.001 A 
ATOM     27  C   UNL     1      10.649  -1.601  -1.177  0.00  0.00    +0.002 A 
ATOM     28  C   UNL     1      11.089  -1.309   0.066  0.00  0.00    +0.026 A 
ATOM     29  C   UNL     1      10.202  -1.554   1.216  0.00  0.00    +0.044 A 
ATOM     30  N   UNL     1      10.365  -1.370   2.495  0.00  0.00    -0.373 N 
ATOM     31  C   UNL     1       9.149  -1.782   3.203  0.00  0.00    +0.144 C 
ATOM     32  H   UNL     1      11.164  -1.012   2.913  0.00  0.00    +0.161 HD
BRANCH  31  33
ATOM     33  C   UNL     1       8.553  -0.611   3.941  0.00  0.00    -0.021 A 
ATOM     34  C   UNL     1       8.591   0.652   3.379  0.00  0.00    +0.006 A 
ATOM     35  C   UNL     1       8.044   1.726   4.055  0.00  0.00    +0.000 A 
ATOM     36  C   UNL     1       7.458   1.538   5.293  0.00  0.00    +0.000 A 
ATOM     37  C   UNL     1       7.419   0.275   5.855  0.00  0.00    +0.000 A 
ATOM     38  C   UNL     1       7.963  -0.800   5.176  0.00  0.00    +0.006 A 
ENDBRANCH  31  33
ENDBRANCH  21  23
ENDBRANCH  20  21
ENDBRANCH   1  20
TORSDOF 10
