REMARK  Name = ZINC36815702
REMARK  12 active torsions:
REMARK  status: ('A' for Active; 'I' for Inactive)
REMARK    1  A    between atoms: C_1  and  C_2
REMARK    2  A    between atoms: C_2  and  C_3
REMARK    3  A    between atoms: C_3  and  O_4
REMARK    4  A    between atoms: O_4  and  C_5
REMARK    5  A    between atoms: C_6  and  O_20
REMARK    6  A    between atoms: C_8  and  C_12
REMARK    7  A    between atoms: C_12  and  N_13
REMARK    8  A    between atoms: N_13  and  C_14
REMARK    9  A    between atoms: C_14  and  C_15
REMARK   10  A    between atoms: C_15  and  S_16
REMARK   11  A    between atoms: S_16  and  N_19
REMARK   12  A    between atoms: O_20  and  C_21
REMARK                            x       y       z     vdW  Elec       q    Type
REMARK                         _______ _______ _______ _____ _____    ______ ____
ROOT
ATOM      1  C   UNL     1      -2.617  -2.596   0.013  0.00  0.00    +0.176 A 
ATOM      2  C   UNL     1      -3.225  -2.923   1.222  0.00  0.00    +0.163 A 
ATOM      3  C   UNL     1      -4.451  -3.569   1.225  0.00  0.00    +0.051 A 
ATOM      4  C   UNL     1      -5.068  -3.888   0.029  0.00  0.00    -0.060 A 
ATOM      5  C   UNL     1      -4.464  -3.564  -1.172  0.00  0.00    +0.021 A 
ATOM      6  C   UNL     1      -3.243  -2.914  -1.182  0.00  0.00    +0.063 A 
ATOM      7 BR   UNL     1      -2.425  -2.465  -2.827  0.00  0.00    -0.046 Br
ENDROOT
BRANCH   2   8
ATOM      8  O   UNL     1      -2.618  -2.609   2.397  0.00  0.00    -0.491 OA
ATOM      9  C   UNL     1      -3.300  -2.974   3.598  0.00  0.00    +0.277 C 
ENDBRANCH   2   8
BRANCH   1  10
ATOM     10  O   UNL     1      -1.414  -1.962   0.005  0.00  0.00    -0.487 OA
BRANCH  10  11
ATOM     11  C   UNL     1      -1.433  -0.534   0.013  0.00  0.00    +0.229 C 
BRANCH  11  13
ATOM     12  C   UNL     1      -0.019   1.526   0.010  0.00  0.00    +0.007 C 
ATOM     13  C   UNL     1       0.002  -0.004   0.002  0.00  0.00    +0.038 C 
ENDBRANCH  11  13
ENDBRANCH  10  11
ENDBRANCH   1  10
BRANCH   4  14
ATOM     14  C   UNL     1      -6.401  -4.590   0.035  0.00  0.00    -0.047 C 
BRANCH  14  15
ATOM     15  N   UNL     1      -7.480  -3.593   0.043  0.00  0.00    +0.383 N 
ATOM     16  H   UNL     1      -7.400  -3.017   0.867  0.00  0.00    -0.085 HD
ATOM     17  H   UNL     1      -7.409  -3.014  -0.780  0.00  0.00    -0.085 HD
BRANCH  15  18
ATOM     18  C   UNL     1      -8.780  -4.278   0.048  0.00  0.00    -0.058 C 
BRANCH  18  19
ATOM     19  C   UNL     1      -9.903  -3.239   0.057  0.00  0.00    +0.166 C 
BRANCH  19  20
ATOM     20  S   UNL     1     -11.508  -4.085   0.064  0.00  0.00    +0.025 S 
ATOM     21  O   UNL     1     -11.712  -4.757  -1.171  0.00  0.00    -0.158 OA
ATOM     22  O   UNL     1     -11.699  -4.762   1.298  0.00  0.00    -0.158 OA
BRANCH  20  23
ATOM     23  N   UNL     1     -12.631  -2.867   0.072  0.00  0.00    -0.208 NA
ATOM     24  H   UNL     1     -12.342  -1.941   0.073  0.00  0.00    +0.144 HD
ATOM     25  H   UNL     1     -13.577  -3.080   0.077  0.00  0.00    +0.144 HD
ENDBRANCH  20  23
ENDBRANCH  19  20
ENDBRANCH  18  19
ENDBRANCH  15  18
ENDBRANCH  14  15
ENDBRANCH   4  14
TORSDOF 10
