REMARK  Name = ZINC44963251
REMARK  10 active torsions:
REMARK  status: ('A' for Active; 'I' for Inactive)
REMARK    1  A    between atoms: C_1  and  C_2
REMARK    2  A    between atoms: C_4  and  C_7
REMARK    3  A    between atoms: C_8  and  C_9
REMARK    4  A    between atoms: C_8  and  C_10
REMARK    5  A    between atoms: C_21  and  C_41
REMARK    6  A    between atoms: C_23  and  O_40
REMARK    7  A    between atoms: C_25  and  C_39
REMARK    8  A    between atoms: C_29  and  C_37
REMARK    9  A    between atoms: C_29  and  C_38
REMARK   10  A    between atoms: C_30  and  O_36
REMARK                            x       y       z     vdW  Elec       q    Type
REMARK                         _______ _______ _______ _____ _____    ______ ____
ROOT
ATOM      1  C   UNL     1      -4.251  -3.721  -0.126  0.00  0.00    +0.205 C 
ATOM      2  C   UNL     1      -4.933  -3.846   1.237  0.00  0.00    +0.083 C 
ATOM      3  C   UNL     1      -5.565  -2.511   1.628  0.00  0.00    +0.151 C 
ATOM      4  C   UNL     1      -6.600  -2.507   2.755  0.00  0.00    +0.148 C 
ATOM      5  O   UNL     1      -5.276  -2.005   2.934  0.00  0.00    -0.368 OA
ATOM      6  C   UNL     1      -6.963  -3.844   3.405  0.00  0.00    +0.034 C 
ATOM      7  C   UNL     1      -8.473  -4.064   3.309  0.00  0.00    +0.003 C 
ATOM      8  C   UNL     1      -8.900  -4.079   1.841  0.00  0.00    +0.006 C 
ATOM      9  C   UNL     1     -10.384  -3.736   1.728  0.00  0.00    +0.015 C 
ATOM     10  C   UNL     1     -10.885  -3.855   0.295  0.00  0.00    +0.127 C 
ATOM     11  C   UNL     1     -10.600  -5.230  -0.309  0.00  0.00    +0.081 C 
ATOM     12  C   UNL     1     -10.200  -5.049  -1.751  0.00  0.00    +0.147 C 
ATOM     13  O   UNL     1     -10.854  -4.278  -2.434  0.00  0.00    -0.296 OA
ATOM     14  C   UNL     1      -9.052  -5.784  -2.384  0.00  0.00    +0.050 C 
ATOM     15  C   UNL     1      -7.865  -4.841  -2.564  0.00  0.00    +0.138 C 
ATOM     16  C   UNL     1      -6.629  -5.296  -1.797  0.00  0.00    +0.152 C 
ATOM     17  C   UNL     1      -5.506  -4.314  -2.031  0.00  0.00    +0.310 C 
ATOM     18  O   UNL     1      -4.866  -4.360  -3.055  0.00  0.00    -0.251 OA
ATOM     19  O   UNL     1      -5.219  -3.376  -1.116  0.00  0.00    -0.457 OA
ATOM     20  C   UNL     1      -9.503  -6.263  -3.777  0.00  0.00    +0.021 C 
ATOM     21  C   UNL     1      -8.669  -7.013  -1.568  0.00  0.00    +0.021 C 
ATOM     22  C   UNL     1     -11.885  -6.073  -0.279  0.00  0.00    +0.018 C 
ATOM     23  C   UNL     1     -11.201  -4.628   2.662  0.00  0.00    +0.010 C 
ENDROOT
BRANCH   1  25
ATOM     24  C   UNL     1      -3.292  -1.567  -0.805  0.00  0.00    +0.031 C 
ATOM     25  C   UNL     1      -3.178  -2.666  -0.072  0.00  0.00    -0.031 C 
ATOM     26  C   UNL     1      -1.974  -2.859   0.814  0.00  0.00    +0.043 C 
BRANCH  24  30
ATOM     27  C   UNL     1       1.113   0.195   0.726  0.00  0.00    +0.073 C 
ATOM     28  C   UNL     1      -0.159   0.179  -0.083  0.00  0.00    +0.076 A 
ATOM     29  N   UNL     1      -1.126  -0.700  -0.053  0.00  0.00    -0.245 NA
ATOM     30  C   UNL     1      -2.194  -0.578  -0.831  0.00  0.00    +0.071 A 
ATOM     31  C   UNL     1      -2.223   0.514  -1.660  0.00  0.00    +0.074 A 
ATOM     32  S   UNL     1      -0.675   1.294  -1.233  0.00  0.00    -0.080 S 
ENDBRANCH  24  30
ENDBRANCH   1  25
BRANCH  15  33
ATOM     33  O   UNL     1      -8.236  -3.528  -2.130  0.00  0.00    -0.390 OA
ATOM     34  H   UNL     1      -7.530  -2.872  -2.214  0.00  0.00    +0.210 HD
ENDBRANCH  15  33
BRANCH  10  35
ATOM     35  O   UNL     1     -12.295  -3.617   0.259  0.00  0.00    -0.391 OA
ATOM     36  H   UNL     1     -12.681  -3.677  -0.626  0.00  0.00    +0.210 HD
ENDBRANCH  10  35
TORSDOF 4
