REMARK  Name = ZINC02323571
REMARK  8 active torsions:
REMARK  status: ('A' for Active; 'I' for Inactive)
REMARK    1  A    between atoms: C_9  and  O_11
REMARK    2  A    between atoms: O_11  and  C_12
REMARK    3  A    between atoms: C_12  and  C_13
REMARK    4  A    between atoms: N_15  and  N_16
REMARK    5  A    between atoms: C_17  and  C_18
REMARK    6  A    between atoms: C_21  and  O_25
REMARK    7  A    between atoms: O_25  and  C_26
REMARK    8  A    between atoms: C_26  and  C_27
REMARK                            x       y       z     vdW  Elec       q    Type
REMARK                         _______ _______ _______ _____ _____    ______ ____
ROOT
ATOM      1  N   UNL     1      -7.282   5.437   1.117  0.00  0.00    -0.188 NA
ATOM      2  C   UNL     1      -6.588   5.046   2.141  0.00  0.00    +0.138 C 
ENDROOT
BRANCH   2   3
ATOM      3  C   UNL     1      -5.313   4.333   1.939  0.00  0.00    -0.004 A 
ATOM      4  C   UNL     1      -4.851   4.078   0.645  0.00  0.00    +0.013 A 
ATOM      5  C   UNL     1      -3.656   3.417   0.460  0.00  0.00    +0.047 A 
ATOM      6  C   UNL     1      -2.917   2.994   1.557  0.00  0.00    +0.135 A 
ATOM      7  C   UNL     1      -3.372   3.245   2.846  0.00  0.00    +0.060 A 
ATOM      8  C   UNL     1      -4.564   3.911   3.040  0.00  0.00    +0.028 A 
ATOM      9 BR   UNL     1      -2.356   2.674   4.335  0.00  0.00    -0.046 Br
BRANCH   6  10
ATOM     10  O   UNL     1      -1.742   2.338   1.370  0.00  0.00    -0.486 OA
BRANCH  10  11
ATOM     11  C   UNL     1      -1.332   2.113   0.020  0.00  0.00    +0.264 C 
BRANCH  11  12
ATOM     12  C   UNL     1      -0.017   1.378   0.010  0.00  0.00    -0.010 A 
ATOM     13  C   UNL     1       1.170   2.087   0.002  0.00  0.00    +0.010 A 
ATOM     14  C   UNL     1       2.377   1.414  -0.013  0.00  0.00    +0.039 A 
ATOM     15  C   UNL     1       2.397   0.029  -0.021  0.00  0.00    +0.123 A 
ATOM     16  C   UNL     1       1.208  -0.679  -0.013  0.00  0.00    +0.039 A 
ATOM     17  C   UNL     1       0.002  -0.004   0.002  0.00  0.00    +0.010 A 
ATOM     18  F   UNL     1       3.577  -0.630  -0.035  0.00  0.00    -0.205 F 
ENDBRANCH  11  12
ENDBRANCH  10  11
ENDBRANCH   6  10
ENDBRANCH   2   3
BRANCH   1  21
ATOM     19  C   UNL     1      -9.215   6.520   0.246  0.00  0.00    +0.270 C 
ATOM     20  O   UNL     1      -8.815   6.299  -0.878  0.00  0.00    -0.270 OA
ATOM     21  N   UNL     1      -8.494   6.114   1.309  0.00  0.00    -0.204 N 
ATOM     22  H   UNL     1      -8.813   6.291   2.208  0.00  0.00    +0.177 HD
BRANCH  19  23
ATOM     23  C   UNL     1     -10.518   7.249   0.453  0.00  0.00    +0.326 C 
BRANCH  23  24
ATOM     24  O   UNL     1     -11.090   7.572  -0.817  0.00  0.00    -0.481 OA
BRANCH  24  33
ATOM     25  C   UNL     1     -14.083   9.245   0.406  0.00  0.00    +0.004 A 
ATOM     26  C   UNL     1     -14.714   9.601  -0.748  0.00  0.00    +0.010 A 
ATOM     27  C   UNL     1     -14.134   9.280  -1.986  0.00  0.00    +0.004 A 
ATOM     28  C   UNL     1     -14.756   9.632  -3.199  0.00  0.00    +0.011 A 
ATOM     29  C   UNL     1     -14.127   9.300  -4.365  0.00  0.00    +0.020 A 
ATOM     30  C   UNL     1     -12.912   8.619  -4.330  0.00  0.00    +0.111 A 
ATOM     31  N   UNL     1     -12.339   8.289  -3.198  0.00  0.00    -0.251 NA
ATOM     32  C   UNL     1     -12.897   8.592  -2.023  0.00  0.00    +0.112 A 
ATOM     33  C   UNL     1     -12.275   8.235  -0.808  0.00  0.00    +0.147 A 
ATOM     34  C   UNL     1     -12.869   8.565   0.377  0.00  0.00    +0.048 A 
ENDBRANCH  24  33
ENDBRANCH  23  24
ENDBRANCH  19  23
ENDBRANCH   1  21
TORSDOF 8
