REMARK  Name = ZINC47929653
REMARK  11 active torsions:
REMARK  status: ('A' for Active; 'I' for Inactive)
REMARK    1  A    between atoms: C_1  and  N_2
REMARK    2  A    between atoms: C_3  and  C_5
REMARK    3  A    between atoms: C_8  and  C_11
REMARK    4  A    between atoms: C_11  and  N_12
REMARK    5  A    between atoms: N_15  and  C_16
REMARK    6  A    between atoms: C_16  and  C_17
REMARK    7  A    between atoms: C_17  and  C_18
REMARK    8  A    between atoms: C_17  and  N_25
REMARK    9  A    between atoms: C_18  and  C_19
REMARK   10  A    between atoms: N_25  and  C_26
REMARK   11  A    between atoms: N_25  and  C_27
REMARK                            x       y       z     vdW  Elec       q    Type
REMARK                         _______ _______ _______ _____ _____    ______ ____
ROOT
ATOM      1  N   UNL     1       1.734  -9.187   2.326  0.00  0.00    -0.295 N 
ATOM      2  C   UNL     1       2.241 -10.148   1.529  0.00  0.00    +0.300 C 
ATOM      3  O   UNL     1       1.749 -11.260   1.527  0.00  0.00    -0.253 OA
ATOM      4  N   UNL     1       3.295  -9.877   0.733  0.00  0.00    -0.301 N 
ATOM      5  H   UNL     1       2.127  -8.300   2.328  0.00  0.00    +0.151 HD
ATOM      6  H   UNL     1       3.688  -8.990   0.735  0.00  0.00    +0.150 HD
ENDROOT
BRANCH   1   7
ATOM      7  C   UNL     1       0.589  -9.482   3.191  0.00  0.00    +0.141 C 
BRANCH   7  11
ATOM      8  C   UNL     1      -0.459  -5.982   5.413  0.00  0.00    +0.037 A 
ATOM      9  C   UNL     1      -1.040  -6.221   4.167  0.00  0.00    +0.013 A 
ATOM     10  C   UNL     1      -0.697  -7.352   3.455  0.00  0.00    +0.006 A 
ATOM     11  C   UNL     1       0.220  -8.249   3.974  0.00  0.00    -0.030 A 
ATOM     12  C   UNL     1       0.799  -8.018   5.209  0.00  0.00    +0.006 A 
ATOM     13  C   UNL     1       0.470  -6.888   5.929  0.00  0.00    +0.013 A 
BRANCH   8  16
ATOM     14  C   UNL     1      -2.077  -2.700   6.442  0.00  0.00    +0.128 C 
ATOM     15  N   UNL     1      -1.718  -3.900   5.681  0.00  0.00    -0.314 N 
ATOM     16  C   UNL     1      -0.821  -4.772   6.182  0.00  0.00    +0.244 C 
ATOM     17  O   UNL     1      -0.310  -4.564   7.265  0.00  0.00    -0.270 OA
ATOM     18  H   UNL     1      -2.126  -4.066   4.817  0.00  0.00    +0.149 HD
ENDBRANCH   8  16
ENDBRANCH   7  11
ENDBRANCH   1   7
BRANCH   4  19
ATOM     19  C   UNL     1       3.846 -10.921  -0.134  0.00  0.00    +0.091 C 
BRANCH  19  20
ATOM     20  C   UNL     1       4.900 -10.311  -1.060  0.00  0.00    -0.048 C 
BRANCH  20  21
ATOM     21  N   UNL     1       4.246  -9.410  -2.019  0.00  0.00    +0.379 N 
ATOM     22  C   UNL     1       3.176 -10.133  -2.720  0.00  0.00    -0.096 C 
ATOM     23  C   UNL     1       3.673  -8.263  -1.302  0.00  0.00    -0.096 C 
ATOM     24  H   UNL     1       4.925  -9.082  -2.689  0.00  0.00    -0.082 HD
ENDBRANCH  20  21
BRANCH  20  25
ATOM     25  C   UNL     1       5.620 -11.427  -1.819  0.00  0.00    +0.021 C 
BRANCH  25  26
ATOM     26  C   UNL     1       6.703 -10.832  -2.681  0.00  0.00    -0.049 A 
ATOM     27  C   UNL     1       6.421 -10.451  -3.980  0.00  0.00    +0.003 A 
ATOM     28  C   UNL     1       7.414  -9.904  -4.771  0.00  0.00    +0.000 A 
ATOM     29  C   UNL     1       8.689  -9.738  -4.263  0.00  0.00    +0.000 A 
ATOM     30  C   UNL     1       8.971 -10.118  -2.964  0.00  0.00    +0.000 A 
ATOM     31  C   UNL     1       7.976 -10.661  -2.172  0.00  0.00    +0.003 A 
ENDBRANCH  25  26
ENDBRANCH  20  25
ENDBRANCH  19  20
ENDBRANCH   4  19
TORSDOF 8
