REMARK  Name = ZINC36224448
REMARK  6 active torsions:
REMARK  status: ('A' for Active; 'I' for Inactive)
REMARK    1  A    between atoms: C_1  and  C_2
REMARK    2  A    between atoms: C_7  and  N_8
REMARK    3  A    between atoms: C_9  and  C_11
REMARK    4  A    between atoms: C_12  and  C_18
REMARK    5  A    between atoms: C_14  and  N_16
REMARK    6  A    between atoms: N_16  and  N_17
REMARK                            x       y       z     vdW  Elec       q    Type
REMARK                         _______ _______ _______ _____ _____    ______ ____
ROOT
ATOM      1  N   UNL     1       0.026  -0.015   2.417  0.00  0.00    -0.281 N 
ATOM      2  C   UNL     1      -0.056  -0.695   3.577  0.00  0.00    +0.255 C 
ATOM      3  O   UNL     1      -0.040  -1.913   3.572  0.00  0.00    -0.269 OA
ATOM      4  H   UNL     1       0.079   0.953   2.424  0.00  0.00    +0.155 HD
ENDROOT
BRANCH   1  11
ATOM      5  C   UNL     1      -1.266   1.183   0.182  0.00  0.00    +0.045 C 
ATOM      6  C   UNL     1      -0.585  -0.158   0.085  0.00  0.00    -0.029 A 
ATOM      7  C   UNL     1      -0.570  -0.840  -1.116  0.00  0.00    +0.005 A 
ATOM      8  C   UNL     1       0.054  -2.071  -1.206  0.00  0.00    +0.000 A 
ATOM      9  C   UNL     1       0.666  -2.622  -0.095  0.00  0.00    +0.002 A 
ATOM     10  C   UNL     1       0.655  -1.945   1.108  0.00  0.00    +0.023 A 
ATOM     11  C   UNL     1       0.033  -0.706   1.201  0.00  0.00    +0.037 A 
ENDBRANCH   1  11
BRANCH   2  12
ATOM     12  C   UNL     1      -0.160   0.007   4.803  0.00  0.00    +0.079 A 
ATOM     13  C   UNL     1      -0.248  -0.499   6.094  0.00  0.00    -0.029 A 
ATOM     14  C   UNL     1      -0.340   0.430   7.097  0.00  0.00    +0.036 A 
ATOM     15  C   UNL     1      -0.338   1.766   6.761  0.00  0.00    +0.080 A 
ATOM     16  S   UNL     1      -0.204   1.766   5.087  0.00  0.00    -0.068 S 
ATOM     17  C   UNL     1      -0.244  -1.980   6.374  0.00  0.00    +0.045 C 
BRANCH  15  18
ATOM     18  N   UNL     1      -0.420   2.857   7.610  0.00  0.00    -0.277 N 
ATOM     19  H   UNL     1      -0.490   2.723   8.568  0.00  0.00    +0.166 HD
BRANCH  18  20
ATOM     20  N   UNL     1      -0.404   4.124   7.097  0.00  0.00    -0.256 NA
ATOM     21  H   UNL     1      -0.471   4.812   7.832  0.00  0.00    +0.140 HD
ATOM     22  H   UNL     1       0.420   4.275   6.534  0.00  0.00    +0.140 HD
ENDBRANCH  18  20
ENDBRANCH  15  18
ENDBRANCH   2  12
TORSDOF 4
