REMARK  Name = ZINC39533726
REMARK  7 active torsions:
REMARK  status: ('A' for Active; 'I' for Inactive)
REMARK    1  A    between atoms: C_4  and  C_7
REMARK    2  A    between atoms: C_10  and  C_13
REMARK    3  A    between atoms: C_13  and  C_15
REMARK    4  A    between atoms: C_13  and  N_18
REMARK    5  A    between atoms: C_15  and  N_16
REMARK    6  A    between atoms: N_16  and  O_17
REMARK    7  A    between atoms: C_22  and  O_25
REMARK                            x       y       z     vdW  Elec       q    Type
REMARK                         _______ _______ _______ _____ _____    ______ ____
ROOT
ATOM      1  C   UNL     1       7.428  -2.780  -0.103  0.00  0.00    +0.103 C 
ENDROOT
BRANCH   1   2
ATOM      2  N   UNL     1       7.426  -3.991   0.728  0.00  0.00    -0.295 NA
ATOM      3  C   UNL     1       6.895  -3.709   2.069  0.00  0.00    +0.066 C 
ATOM      4  C   UNL     1       6.854  -5.005   2.881  0.00  0.00    -0.063 C 
ATOM      5  N   UNL     1       8.209  -5.564   2.980  0.00  0.00    +0.398 N 
ATOM      6  C   UNL     1       8.716  -5.863   1.635  0.00  0.00    +0.073 C 
ATOM      7  C   UNL     1       8.773  -4.574   0.812  0.00  0.00    +0.096 C 
ATOM      8  H   UNL     1       8.816  -4.894   3.428  0.00  0.00    -0.082 HD
ATOM      9  H   UNL     1       8.183  -6.412   3.526  0.00  0.00    -0.082 HD
BRANCH   6  10
ATOM     10  O   UNL     1      10.028  -6.422   1.734  0.00  0.00    -0.409 OA
ATOM     11  H   UNL     1      10.068  -7.243   2.244  0.00  0.00    +0.207 HD
ENDBRANCH   6  10
ENDBRANCH   1   2
BRANCH   1  15
ATOM     12  C   UNL     1       3.433  -1.306  -0.484  0.00  0.00    -0.018 A 
ATOM     13  C   UNL     1       4.493  -0.417  -0.313  0.00  0.00    +0.009 A 
ATOM     14  C   UNL     1       5.780  -0.898  -0.191  0.00  0.00    +0.006 A 
ATOM     15  C   UNL     1       6.020  -2.260  -0.237  0.00  0.00    -0.029 A 
ATOM     16  C   UNL     1       4.972  -3.146  -0.407  0.00  0.00    +0.006 A 
ATOM     17  C   UNL     1       3.679  -2.676  -0.525  0.00  0.00    +0.009 A 
BRANCH  12  21
ATOM     18  C   UNL     1      -0.540   0.160  -0.864  0.00  0.00    +0.000 A 
ATOM     19  C   UNL     1       0.508   1.047  -0.700  0.00  0.00    +0.001 A 
ATOM     20  C   UNL     1       1.800   0.577  -0.576  0.00  0.00    +0.008 A 
ATOM     21  C   UNL     1       2.046  -0.794  -0.616  0.00  0.00    -0.018 A 
ATOM     22  C   UNL     1       0.986  -1.683  -0.782  0.00  0.00    +0.008 A 
ATOM     23  C   UNL     1      -0.302  -1.201  -0.905  0.00  0.00    +0.001 A 
ENDBRANCH  12  21
ENDBRANCH   1  15
BRANCH   1  24
ATOM     24  C   UNL     1       7.983  -3.113  -1.489  0.00  0.00    +0.134 C 
BRANCH  24  25
ATOM     25  N   UNL     1       8.063  -1.886  -2.293  0.00  0.00    -0.202 NA
ATOM     26  H   UNL     1       8.687  -1.216  -1.869  0.00  0.00    +0.154 HD
BRANCH  25  27
ATOM     27  O   UNL     1       8.469  -2.184  -3.667  0.00  0.00    -0.315 OA
ATOM     28  H   UNL     1       8.536  -1.405  -4.235  0.00  0.00    +0.236 HD
ENDBRANCH  25  27
ENDBRANCH  24  25
ENDBRANCH   1  24
TORSDOF 7
