REMARK  Name = ZINC08999053
REMARK  13 active torsions:
REMARK  status: ('A' for Active; 'I' for Inactive)
REMARK    1  A    between atoms: C_1  and  C_2
REMARK    2  A    between atoms: C_2  and  O_3
REMARK    3  A    between atoms: O_3  and  C_4
REMARK    4  A    between atoms: C_4  and  C_5
REMARK    5  A    between atoms: C_5  and  N_6
REMARK    6  A    between atoms: C_10  and  O_34
REMARK    7  A    between atoms: N_15  and  C_16
REMARK    8  A    between atoms: C_16  and  C_18
REMARK    9  A    between atoms: C_21  and  S_24
REMARK   10  A    between atoms: S_24  and  N_27
REMARK   11  A    between atoms: C_30  and  C_33
REMARK   12  A    between atoms: O_34  and  C_35
REMARK   13  A    between atoms: C_35  and  C_36
REMARK                            x       y       z     vdW  Elec       q    Type
REMARK                         _______ _______ _______ _____ _____    ______ ____
ROOT
ATOM      1  N   UNL     1      -2.386   3.943   0.060  0.00  0.00    -0.319 N 
ATOM      2  C   UNL     1      -1.274   3.119   0.086  0.00  0.00    +0.058 A 
ATOM      3  C   UNL     1      -1.231   1.716   0.105  0.00  0.00    +0.030 A 
ATOM      4  C   UNL     1      -0.030   1.049   0.136  0.00  0.00    +0.048 A 
ATOM      5  C   UNL     1       1.176   1.739   0.138  0.00  0.00    +0.122 A 
ATOM      6  C   UNL     1       1.161   3.127   0.114  0.00  0.00    +0.062 A 
ATOM      7  C   UNL     1      -0.043   3.791   0.089  0.00  0.00    +0.042 A 
ATOM      8  S   UNL     1      -0.512   5.502   0.055  0.00  0.00    -0.052 S 
ATOM      9  C   UNL     1      -2.233   5.294   0.039  0.00  0.00    +0.167 A 
ATOM     10  N   UNL     1      -3.176   6.230   0.013  0.00  0.00    -0.152 NA
ENDROOT
BRANCH  10  11
ATOM     11  C   UNL     1      -2.835   7.522  -0.005  0.00  0.00    +0.269 C 
ATOM     12  O   UNL     1      -1.659   7.842   0.003  0.00  0.00    -0.268 OA
BRANCH  11  13
ATOM     13  C   UNL     1      -3.887   8.565  -0.034  0.00  0.00    +0.039 A 
ATOM     14  C   UNL     1      -5.233   8.202  -0.049  0.00  0.00    +0.015 A 
ATOM     15  C   UNL     1      -6.208   9.178  -0.070  0.00  0.00    +0.029 A 
ATOM     16  C   UNL     1      -5.852  10.515  -0.088  0.00  0.00    +0.106 A 
ATOM     17  C   UNL     1      -4.518  10.881  -0.080  0.00  0.00    +0.029 A 
ATOM     18  C   UNL     1      -3.534   9.914  -0.053  0.00  0.00    +0.015 A 
BRANCH  16  19
ATOM     19  S   UNL     1      -7.102  11.755  -0.122  0.00  0.00    +0.061 S 
ATOM     20  O   UNL     1      -8.274  11.167   0.426  0.00  0.00    -0.153 OA
ATOM     21  O   UNL     1      -6.519  12.935   0.415  0.00  0.00    -0.153 OA
BRANCH  19  22
ATOM     22  N   UNL     1      -7.433  12.074  -1.714  0.00  0.00    -0.177 NA
ATOM     23  C   UNL     1      -6.696  13.120  -2.437  0.00  0.00    +0.110 C 
ATOM     24  C   UNL     1      -6.105  12.506  -3.715  0.00  0.00    +0.020 C 
ATOM     25  C   UNL     1      -7.226  11.852  -4.526  0.00  0.00    -0.012 C 
ATOM     26  C   UNL     1      -7.866  10.731  -3.704  0.00  0.00    +0.020 C 
ATOM     27  C   UNL     1      -8.473  11.321  -2.427  0.00  0.00    +0.110 C 
ATOM     28  C   UNL     1      -6.649  11.272  -5.818  0.00  0.00    +0.007 C 
ENDBRANCH  19  22
ENDBRANCH  16  19
ENDBRANCH  11  13
ENDBRANCH  10  11
BRANCH   1  29
ATOM     29  C   UNL     1      -3.729   3.358   0.055  0.00  0.00    +0.152 C 
BRANCH  29  30
ATOM     30  C   UNL     1      -4.667   4.227   0.896  0.00  0.00    +0.181 C 
BRANCH  30  31
ATOM     31  O   UNL     1      -5.941   3.589   1.002  0.00  0.00    -0.378 OA
BRANCH  31  33
ATOM     32  C   UNL     1      -8.215   3.548   1.818  0.00  0.00    +0.034 C 
ATOM     33  C   UNL     1      -6.896   4.322   1.772  0.00  0.00    +0.156 C 
ENDBRANCH  31  33
ENDBRANCH  30  31
ENDBRANCH  29  30
ENDBRANCH   1  29
BRANCH   5  34
ATOM     34  O   UNL     1       2.356   1.064   0.162  0.00  0.00    -0.492 OA
BRANCH  34  35
ATOM     35  C   UNL     1       2.286  -0.363   0.185  0.00  0.00    +0.225 C 
ATOM     36  C   UNL     1       3.702  -0.943   0.210  0.00  0.00    +0.048 C 
ENDBRANCH  34  35
ENDBRANCH   5  34
TORSDOF 10
