REMARK  Name = ZINC40778093
REMARK  5 active torsions:
REMARK  status: ('A' for Active; 'I' for Inactive)
REMARK    1  A    between atoms: C_4  and  N_7
REMARK    2  A    between atoms: N_7  and  C_8
REMARK    3  A    between atoms: N_7  and  N_14
REMARK    4  A    between atoms: C_16  and  N_30
REMARK    5  A    between atoms: C_17  and  N_21
REMARK                            x       y       z     vdW  Elec       q    Type
REMARK                         _______ _______ _______ _____ _____    ______ ____
ROOT
ATOM      1  N   UNL     1       5.179  -0.468  -0.361  0.00  0.00    -0.242 N 
ATOM      2  C   UNL     1       5.751   0.485   0.472  0.00  0.00    +0.161 A 
ATOM      3  C   UNL     1       6.791   1.298   0.013  0.00  0.00    +0.110 A 
ATOM      4  C   UNL     1       7.329   2.239   0.891  0.00  0.00    +0.165 A 
ATOM      5  N   UNL     1       6.835   2.325   2.124  0.00  0.00    -0.216 NA
ATOM      6  C   UNL     1       5.854   1.540   2.518  0.00  0.00    +0.225 A 
ATOM      7  N   UNL     1       5.314   0.642   1.718  0.00  0.00    -0.217 NA
ATOM      8  H   UNL     1       5.504  -0.575  -1.269  0.00  0.00    +0.172 HD
ENDROOT
BRANCH   4   9
ATOM      9  N   UNL     1       8.369   3.075   0.484  0.00  0.00    -0.281 N 
ATOM     10  C   UNL     1       8.406   3.825  -0.654  0.00  0.00    +0.206 A 
ATOM     11  N   UNL     1       9.525   4.486  -0.718  0.00  0.00    -0.235 NA
ATOM     12  C   UNL     1      10.284   4.207   0.373  0.00  0.00    +0.089 A 
ATOM     13  C   UNL     1       9.553   3.303   1.163  0.00  0.00    +0.075 A 
ATOM     14  C   UNL     1      10.084   2.841   2.358  0.00  0.00    +0.028 A 
ATOM     15  C   UNL     1      11.328   3.272   2.768  0.00  0.00    +0.002 A 
ATOM     16  C   UNL     1      12.052   4.167   1.994  0.00  0.00    +0.002 A 
ATOM     17  C   UNL     1      11.545   4.630   0.802  0.00  0.00    +0.030 A 
ENDBRANCH   4   9
BRANCH   3  18
ATOM     18  N   UNL     1       7.281   1.172  -1.295  0.00  0.00    -0.352 N 
ATOM     19  H   UNL     1       6.797   0.639  -1.945  0.00  0.00    +0.143 HD
ATOM     20  H   UNL     1       8.105   1.617  -1.550  0.00  0.00    +0.143 HD
ENDBRANCH   3  18
BRANCH   1  21
ATOM     21  N   UNL     1       4.133  -1.273   0.108  0.00  0.00    -0.221 N 
BRANCH  21  25
ATOM     22  C   UNL     1       0.308   0.319   0.528  0.00  0.00    +0.000 A 
ATOM     23  C   UNL     1       0.588  -0.943   1.019  0.00  0.00    +0.002 A 
ATOM     24  C   UNL     1       1.855  -1.474   0.882  0.00  0.00    +0.025 A 
ATOM     25  C   UNL     1       2.850  -0.739   0.249  0.00  0.00    +0.053 A 
ATOM     26  C   UNL     1       2.565   0.528  -0.244  0.00  0.00    +0.025 A 
ATOM     27  C   UNL     1       1.295   1.053  -0.103  0.00  0.00    +0.002 A 
ENDBRANCH  21  25
BRANCH  21  28
ATOM     28  C   UNL     1       4.374  -2.609   0.437  0.00  0.00    +0.053 A 
ATOM     29  C   UNL     1       3.567  -3.611  -0.088  0.00  0.00    +0.025 A 
ATOM     30  C   UNL     1       3.807  -4.931   0.239  0.00  0.00    +0.002 A 
ATOM     31  C   UNL     1       4.850  -5.256   1.087  0.00  0.00    +0.000 A 
ATOM     32  C   UNL     1       5.655  -4.261   1.611  0.00  0.00    +0.002 A 
ATOM     33  C   UNL     1       5.424  -2.940   1.284  0.00  0.00    +0.025 A 
ENDBRANCH  21  28
ENDBRANCH   1  21
TORSDOF 5
