REMARK  Name = ZINC44876331
REMARK  12 active torsions:
REMARK  status: ('A' for Active; 'I' for Inactive)
REMARK    1  A    between atoms: C_1  and  C_2
REMARK    2  A    between atoms: C_6  and  N_8
REMARK    3  A    between atoms: N_8  and  C_9
REMARK    4  A    between atoms: N_8  and  S_34
REMARK    5  A    between atoms: C_9  and  C_10
REMARK    6  A    between atoms: C_13  and  C_16
REMARK    7  A    between atoms: N_18  and  C_19
REMARK    8  A    between atoms: C_19  and  C_20
REMARK    9  A    between atoms: C_23  and  C_26
REMARK   10  A    between atoms: C_26  and  N_27
REMARK   11  A    between atoms: C_30  and  C_33
REMARK   12  A    between atoms: S_34  and  C_37
REMARK                            x       y       z     vdW  Elec       q    Type
REMARK                         _______ _______ _______ _____ _____    ______ ____
ROOT
ATOM      1  C   UNL     1       6.431  -3.224   2.378  0.00  0.00    +0.244 C 
ATOM      2  O   UNL     1       7.026  -3.177   1.319  0.00  0.00    -0.270 OA
ATOM      3  N   UNL     1       7.104  -3.075   3.537  0.00  0.00    -0.307 N 
ATOM      4  H   UNL     1       6.629  -3.113   4.382  0.00  0.00    +0.149 HD
ENDROOT
BRANCH   1   8
ATOM      5  C   UNL     1       2.232  -3.861   2.428  0.00  0.00    -0.028 A 
ATOM      6  C   UNL     1       2.906  -3.807   1.221  0.00  0.00    +0.006 A 
ATOM      7  C   UNL     1       4.269  -3.601   1.198  0.00  0.00    +0.013 A 
ATOM      8  C   UNL     1       4.969  -3.446   2.396  0.00  0.00    +0.037 A 
ATOM      9  C   UNL     1       4.283  -3.501   3.610  0.00  0.00    +0.013 A 
ATOM     10  C   UNL     1       2.918  -3.703   3.619  0.00  0.00    +0.006 A 
BRANCH   5  11
ATOM     11  C   UNL     1       0.742  -4.087   2.446  0.00  0.00    +0.166 C 
BRANCH  11  12
ATOM     12  N   UNL     1       0.051  -2.796   2.390  0.00  0.00    -0.203 N 
BRANCH  12  18
ATOM     13  C   UNL     1       0.692   1.020  -0.640  0.00  0.00    +0.044 C 
ATOM     14  C   UNL     1       0.107  -0.337  -0.339  0.00  0.00    -0.049 A 
ATOM     15  C   UNL     1      -0.671  -0.979  -1.286  0.00  0.00    +0.003 A 
ATOM     16  C   UNL     1      -1.209  -2.223  -1.014  0.00  0.00    +0.002 A 
ATOM     17  C   UNL     1      -0.972  -2.829   0.205  0.00  0.00    +0.025 A 
ATOM     18  C   UNL     1      -0.191  -2.187   1.157  0.00  0.00    +0.051 A 
ATOM     19  C   UNL     1       0.353  -0.939   0.879  0.00  0.00    +0.028 A 
ENDBRANCH  12  18
BRANCH  12  20
ATOM     20  S   UNL     1      -0.442  -2.060   3.789  0.00  0.00    +0.043 S 
ATOM     21  O   UNL     1       0.396  -2.604   4.800  0.00  0.00    -0.155 OA
ATOM     22  O   UNL     1      -0.415  -0.670   3.496  0.00  0.00    -0.155 OA
ATOM     23  C   UNL     1      -2.152  -2.615   4.030  0.00  0.00    +0.218 C 
ENDBRANCH  12  20
ENDBRANCH  11  12
ENDBRANCH   5  11
ENDBRANCH   1   8
BRANCH   3  24
ATOM     24  C   UNL     1       8.552  -2.856   3.519  0.00  0.00    +0.139 C 
BRANCH  24  25
ATOM     25  C   UNL     1       9.057  -2.722   4.933  0.00  0.00    -0.030 A 
ATOM     26  C   UNL     1       9.103  -1.479   5.535  0.00  0.00    +0.005 A 
ATOM     27  C   UNL     1       9.566  -1.356   6.832  0.00  0.00    +0.002 A 
ATOM     28  C   UNL     1       9.982  -2.477   7.527  0.00  0.00    -0.064 A 
ATOM     29  C   UNL     1       9.935  -3.720   6.925  0.00  0.00    +0.002 A 
ATOM     30  C   UNL     1       9.468  -3.843   5.629  0.00  0.00    +0.005 A 
BRANCH  28  31
ATOM     31  C   UNL     1      10.488  -2.342   8.940  0.00  0.00    -0.043 C 
BRANCH  31  32
ATOM     32  N   UNL     1       9.365  -2.481   9.877  0.00  0.00    +0.382 N 
ATOM     33  C   UNL     1       8.813  -3.837   9.780  0.00  0.00    -0.078 C 
ATOM     34  C   UNL     1       7.592  -3.962  10.694  0.00  0.00    -0.016 C 
ATOM     35  C   UNL     1       8.014  -3.683  12.140  0.00  0.00    -0.018 C 
ATOM     36  C   UNL     1       8.656  -2.294  12.215  0.00  0.00    -0.016 C 
ATOM     37  C   UNL     1       9.837  -2.231  11.244  0.00  0.00    -0.078 C 
ATOM     38  C   UNL     1       6.784  -3.727  13.049  0.00  0.00    +0.007 C 
ATOM     39  H   UNL     1       8.648  -1.810   9.642  0.00  0.00    -0.081 HD
ENDBRANCH  31  32
ENDBRANCH  28  31
ENDBRANCH  24  25
ENDBRANCH   3  24
TORSDOF 9
