REMARK  Name = ZINC25355370
REMARK  6 active torsions:
REMARK  status: ('A' for Active; 'I' for Inactive)
REMARK    1  A    between atoms: C_3  and  S_21
REMARK    2  A    between atoms: C_6  and  N_7
REMARK    3  A    between atoms: C_10  and  N_17
REMARK    4  A    between atoms: C_11  and  C_15
REMARK    5  A    between atoms: C_12  and  N_14
REMARK    6  A    between atoms: S_21  and  C_22
REMARK                            x       y       z     vdW  Elec       q    Type
REMARK                         _______ _______ _______ _____ _____    ______ ____
ROOT
ATOM      1  N   UNL     1      -0.017   1.399   0.010  0.00  0.00    -0.224 N 
ATOM      2  C   UNL     1      -1.183   2.155   0.019  0.00  0.00    +0.140 A 
ATOM      3  C   UNL     1      -0.873   3.509   0.029  0.00  0.00    +0.024 A 
ATOM      4  C   UNL     1      -1.878   4.461   0.044  0.00  0.00    +0.052 A 
ATOM      5  C   UNL     1      -3.217   4.015   0.054  0.00  0.00    +0.112 A 
ATOM      6  C   UNL     1      -3.459   2.631   0.049  0.00  0.00    +0.138 A 
ATOM      7  N   UNL     1      -2.459   1.768   0.035  0.00  0.00    -0.215 NA
ATOM      8  C   UNL     1       0.634   3.604   0.015  0.00  0.00    +0.137 C 
ATOM      9  C   UNL     1       1.089   2.160   0.003  0.00  0.00    +0.230 C 
ATOM     10  O   UNL     1       2.236   1.766  -0.009  0.00  0.00    -0.275 OA
ENDROOT
BRANCH   1  16
ATOM     11  C   UNL     1      -1.191  -0.714   0.015  0.00  0.00    +0.025 A 
ATOM     12  C   UNL     1      -1.173  -2.095   0.002  0.00  0.00    +0.017 A 
ATOM     13  C   UNL     1       0.040  -2.773  -0.012  0.00  0.00    +0.013 A 
ATOM     14  C   UNL     1       1.233  -2.062  -0.019  0.00  0.00    +0.017 A 
ATOM     15  C   UNL     1       1.214  -0.682  -0.013  0.00  0.00    +0.025 A 
ATOM     16  C   UNL     1       0.002  -0.004   0.002  0.00  0.00    +0.043 A 
BRANCH  13  17
ATOM     17  S   UNL     1       0.064  -4.535  -0.020  0.00  0.00    -0.056 S 
BRANCH  17  18
ATOM     18  C   UNL     1      -1.690  -4.998  -0.006  0.00  0.00    +0.404 C 
ATOM     19  F   UNL     1      -2.299  -4.484   1.144  0.00  0.00    -0.197 F 
ATOM     20  F   UNL     1      -2.320  -4.474  -1.141  0.00  0.00    -0.197 F 
ENDBRANCH  17  18
ENDBRANCH  13  17
ENDBRANCH   1  16
BRANCH   6  21
ATOM     21  N   UNL     1      -4.762   2.166   0.058  0.00  0.00    -0.342 N 
ATOM     22  H   UNL     1      -4.960   1.083   0.054  0.00  0.00    +0.144 HD
ATOM     23  H   UNL     1      -5.601   2.878   0.070  0.00  0.00    +0.144 HD
ENDBRANCH   6  21
BRANCH   4  24
ATOM     24  N   UNL     1      -1.577   5.815   0.048  0.00  0.00    -0.357 N 
ATOM     25  H   UNL     1      -2.388   6.558   0.059  0.00  0.00    +0.142 HD
ATOM     26  H   UNL     1      -0.528   6.145   0.039  0.00  0.00    +0.142 HD
ENDBRANCH   4  24
BRANCH   5  27
ATOM     27  C   UNL     1      -4.302   4.949   0.069  0.00  0.00    +0.104 C 
ATOM     28  N   UNL     1      -5.163   5.691   0.081  0.00  0.00    -0.191 NA
ENDBRANCH   5  27
TORSDOF 6
