REMARK  Name = ZINC39062479
REMARK  2 active torsions:
REMARK  status: ('A' for Active; 'I' for Inactive)
REMARK    1  A    between atoms: C_1  and  C_2
REMARK    2  A    between atoms: C_2  and  C_7
REMARK                            x       y       z     vdW  Elec       q    Type
REMARK                         _______ _______ _______ _____ _____    ______ ____
ROOT
ATOM      1  C   UNL     1      -0.019   1.526   0.010  0.00  0.00    +0.022 C 
ATOM      2  C   UNL     1       0.002  -0.004   0.002  0.00  0.00    +0.058 C 
ATOM      3  C   UNL     1       1.351  -0.691  -0.218  0.00  0.00    +0.056 C 
ATOM      4  C   UNL     1       0.701  -0.708   1.167  0.00  0.00    +0.131 C 
ATOM      5 CL   UNL     1       0.001  -2.267   1.739  0.00  0.00    -0.100 Cl
ATOM      6 CL   UNL     1       1.438   0.330   2.445  0.00  0.00    -0.100 Cl
ENDROOT
BRANCH   2   7
ATOM      7  C   UNL     1      -1.220  -0.667  -0.579  0.00  0.00    +0.232 C 
ATOM      8  O   UNL     1      -2.281  -0.091  -0.571  0.00  0.00    -0.300 OA
ENDBRANCH   2   7
TORSDOF 1
