REMARK  Name = ZINC15101609
REMARK  15 active torsions:
REMARK  status: ('A' for Active; 'I' for Inactive)
REMARK    1  A    between atoms: C_1  and  C_2
REMARK    2  A    between atoms: C_2  and  C_3
REMARK    3  A    between atoms: C_3  and  C_4
REMARK    4  A    between atoms: C_4  and  N_5
REMARK    5  A    between atoms: C_6  and  N_36
REMARK    6  A    between atoms: C_7  and  N_14
REMARK    7  A    between atoms: N_14  and  C_15
REMARK    8  A    between atoms: C_15  and  C_16
REMARK    9  A    between atoms: C_22  and  C_24
REMARK   10  A    between atoms: C_24  and  N_68
REMARK   11  A    between atoms: C_25  and  N_68
REMARK   12  A    between atoms: C_26  and  C_27
REMARK   13  A    between atoms: C_26  and  N_68
REMARK   14  A    between atoms: C_27  and  O_28
REMARK   15  A    between atoms: O_28  and  C_29
REMARK                            x       y       z     vdW  Elec       q    Type
REMARK                         _______ _______ _______ _____ _____    ______ ____
ROOT
ATOM      1  N   UNL     1       1.024   8.852   3.429  0.00  0.00    -0.261 N 
ATOM      2  C   UNL     1       0.861   7.627   2.888  0.00  0.00    +0.204 C 
ATOM      3  O   UNL     1       0.540   6.691   3.591  0.00  0.00    -0.277 OA
ENDROOT
BRANCH   1   6
ATOM      4  N   UNL     1      -0.175   9.921   6.734  0.00  0.00    -0.280 N 
ATOM      5  C   UNL     1      -0.101   9.775   5.368  0.00  0.00    +0.127 A 
ATOM      6  C   UNL     1       0.923   9.026   4.826  0.00  0.00    +0.140 A 
ATOM      7  C   UNL     1       1.870   8.443   5.689  0.00  0.00    +0.277 A 
ATOM      8  O   UNL     1       2.788   7.780   5.237  0.00  0.00    -0.266 OA
ATOM      9  N   UNL     1       1.754   8.622   7.020  0.00  0.00    -0.273 N 
ATOM     10  H   UNL     1       2.426   8.208   7.634  0.00  0.00    +0.173 HD
ATOM     11  C   UNL     1       0.746   9.350   7.531  0.00  0.00    +0.331 A 
ATOM     12  O   UNL     1       0.665   9.496   8.736  0.00  0.00    -0.246 OA
BRANCH   5  13
ATOM     13  N   UNL     1      -1.038  10.363   4.553  0.00  0.00    -0.343 N 
ATOM     14  H   UNL     1      -1.036  10.181   3.601  0.00  0.00    +0.144 HD
ATOM     15  H   UNL     1      -1.703  10.961   4.931  0.00  0.00    +0.144 HD
ENDBRANCH   5  13
BRANCH   4  16
ATOM     16  C   UNL     1      -1.261  10.709   7.323  0.00  0.00    +0.128 C 
BRANCH  16  17
ATOM     17  C   UNL     1      -0.825  12.171   7.439  0.00  0.00    +0.021 C 
BRANCH  17  19
ATOM     18  C   UNL     1      -1.523  14.456   8.171  0.00  0.00    +0.004 C 
ATOM     19  C   UNL     1      -1.958  12.994   8.055  0.00  0.00    -0.002 C 
ENDBRANCH  17  19
ENDBRANCH  16  17
ENDBRANCH   4  16
ENDBRANCH   1   6
BRANCH   1  20
ATOM     20  C   UNL     1       1.304  10.003   2.566  0.00  0.00    +0.149 C 
BRANCH  20  21
ATOM     21  C   UNL     1       2.791  10.244   2.519  0.00  0.00    -0.030 A 
ATOM     22  C   UNL     1       3.395  11.029   3.483  0.00  0.00    +0.005 A 
ATOM     23  C   UNL     1       4.760  11.246   3.442  0.00  0.00    +0.000 A 
ATOM     24  C   UNL     1       5.519  10.687   2.431  0.00  0.00    +0.000 A 
ATOM     25  C   UNL     1       4.913   9.907   1.463  0.00  0.00    +0.000 A 
ATOM     26  C   UNL     1       3.550   9.685   1.507  0.00  0.00    +0.005 A 
ENDBRANCH  20  21
ENDBRANCH   1  20
BRANCH   2  27
ATOM     27  C   UNL     1       1.079   7.420   1.411  0.00  0.00    +0.019 C 
BRANCH  27  29
ATOM     28  C   UNL     1      -0.746   5.841   1.220  0.00  0.00    -0.095 C 
ATOM     29  N   UNL     1       0.712   6.031   1.065  0.00  0.00    +0.386 N 
ATOM     30  H   UNL     1       1.201   5.389   1.699  0.00  0.00    -0.081 HD
BRANCH  29  31
ATOM     31  C   UNL     1       1.115   5.734  -0.326  0.00  0.00    -0.037 C 
BRANCH  31  32
ATOM     32  C   UNL     1       2.623   5.478  -0.354  0.00  0.00    +0.210 C 
BRANCH  32  33
ATOM     33  O   UNL     1       2.920   4.297   0.394  0.00  0.00    -0.494 OA
BRANCH  33  34
ATOM     34  C   UNL     1       4.225   3.926   0.469  0.00  0.00    +0.121 A 
ATOM     35  C   UNL     1       4.585   2.790   1.179  0.00  0.00    +0.048 A 
ATOM     36  C   UNL     1       5.912   2.413   1.254  0.00  0.00    +0.042 A 
ATOM     37  C   UNL     1       6.883   3.169   0.620  0.00  0.00    +0.124 A 
ATOM     38  C   UNL     1       6.526   4.303  -0.089  0.00  0.00    +0.042 A 
ATOM     39  C   UNL     1       5.200   4.682  -0.166  0.00  0.00    +0.048 A 
ATOM     40  F   UNL     1       8.181   2.800   0.694  0.00  0.00    -0.205 F 
ENDBRANCH  33  34
ENDBRANCH  32  33
ENDBRANCH  31  32
ENDBRANCH  29  31
ENDBRANCH  27  29
ENDBRANCH   2  27
TORSDOF 13
