REMARK  Name = ZINC38976637
REMARK  6 active torsions:
REMARK  status: ('A' for Active; 'I' for Inactive)
REMARK    1  A    between atoms: C_1  and  C_2
REMARK    2  A    between atoms: C_2  and  C_4
REMARK    3  A    between atoms: C_8  and  N_10
REMARK    4  A    between atoms: N_10  and  C_11
REMARK    5  A    between atoms: N_14  and  S_15
REMARK    6  A    between atoms: S_15  and  C_18
REMARK                            x       y       z     vdW  Elec       q    Type
REMARK                         _______ _______ _______ _____ _____    ______ ____
ROOT
ATOM      1  C   UNL     1      -3.691  -4.994   0.132  0.00  0.00    +0.237 C 
ATOM      2  C   UNL     1      -3.660  -6.120  -0.877  0.00  0.00    +0.192 C 
ATOM      3  N   UNL     1      -3.502  -5.867  -2.143  0.00  0.00    -0.110 NA
ATOM      4  N   UNL     1      -3.798  -7.384  -0.448  0.00  0.00    -0.226 NA
ATOM      5  C   UNL     1      -3.959  -7.666   0.828  0.00  0.00    +0.089 A 
ATOM      6  C   UNL     1      -4.102  -9.013   1.247  0.00  0.00    +0.030 A 
ATOM      7  C   UNL     1      -4.268  -9.308   2.555  0.00  0.00    +0.002 A 
ATOM      8  C   UNL     1      -4.308  -8.324   3.556  0.00  0.00    +0.002 A 
ATOM      9  C   UNL     1      -4.183  -7.010   3.267  0.00  0.00    +0.027 A 
ATOM     10  C   UNL     1      -3.998  -6.605   1.865  0.00  0.00    +0.063 A 
ATOM     11  N   UNL     1      -3.872  -5.348   1.548  0.00  0.00    -0.359 N 
ATOM     12  H   UNL     1      -3.897  -4.660   2.232  0.00  0.00    +0.162 HD
ENDROOT
BRANCH   3  13
ATOM     13  S   UNL     1      -3.470  -7.109  -3.238  0.00  0.00    +0.102 S 
ATOM     14  O   UNL     1      -2.299  -7.864  -2.961  0.00  0.00    -0.146 OA
ATOM     15  O   UNL     1      -4.768  -7.687  -3.235  0.00  0.00    -0.146 OA
BRANCH  13  16
ATOM     16  C   UNL     1      -3.242  -6.393  -4.832  0.00  0.00    +0.132 A 
ATOM     17  C   UNL     1      -2.090  -6.654  -5.549  0.00  0.00    +0.050 A 
ATOM     18  C   UNL     1      -1.911  -6.092  -6.800  0.00  0.00    +0.043 A 
ATOM     19  C   UNL     1      -2.886  -5.268  -7.334  0.00  0.00    +0.021 A 
ATOM     20  C   UNL     1      -4.038  -5.006  -6.617  0.00  0.00    +0.023 A 
ATOM     21  C   UNL     1      -4.219  -5.573  -5.368  0.00  0.00    +0.068 A 
ATOM     22 CL   UNL     1      -5.670  -5.250  -4.470  0.00  0.00    -0.082 Cl
ATOM     23 CL   UNL     1      -0.463  -6.420  -7.700  0.00  0.00    -0.083 Cl
ENDBRANCH  13  16
ENDBRANCH   3  13
BRANCH   1  24
ATOM     24  N   UNL     1      -2.433  -4.253   0.013  0.00  0.00    -0.318 N 
ATOM     25  H   UNL     1      -1.587  -4.726   0.038  0.00  0.00    +0.148 HD
BRANCH  24  30
ATOM     26  C   UNL     1      -1.305  -0.792  -0.569  0.00  0.00    +0.019 A 
ATOM     27  C   UNL     1      -2.513  -0.101  -0.426  0.00  0.00    +0.011 A 
ATOM     28  C   UNL     1      -3.672  -0.791  -0.141  0.00  0.00    +0.002 A 
ATOM     29  C   UNL     1      -3.646  -2.166   0.004  0.00  0.00    +0.023 A 
ATOM     30  C   UNL     1      -2.452  -2.864  -0.135  0.00  0.00    +0.030 A 
ATOM     31  C   UNL     1      -1.281  -2.182  -0.427  0.00  0.00    +0.034 A 
BRANCH  26  33
ATOM     32  C   UNL     1      -0.095   1.440  -1.025  0.00  0.00    +0.091 C 
ATOM     33  C   UNL     1      -0.065  -0.059  -0.873  0.00  0.00    +0.160 C 
ATOM     34  O   UNL     1       0.979  -0.661  -1.002  0.00  0.00    -0.292 OA
ENDBRANCH  26  33
ENDBRANCH  24  30
ENDBRANCH   1  24
TORSDOF 5
