REMARK  Name = ZINC12549785
REMARK  2 active torsions:
REMARK  status: ('A' for Active; 'I' for Inactive)
REMARK    1  A    between atoms: C_3  and  C_8
REMARK    2  A    between atoms: C_5  and  O_7
REMARK                            x       y       z     vdW  Elec       q    Type
REMARK                         _______ _______ _______ _____ _____    ______ ____
ROOT
ATOM      1  C   UNL     1       3.671   2.190  -0.021  0.00  0.00    +0.209 C 
ATOM      2  N   UNL     1       3.538   3.375  -0.890  0.00  0.00    -0.294 N 
ATOM      3  C   UNL     1       2.908   4.495  -0.365  0.00  0.00    +0.159 C 
ATOM      4  N   UNL     1       3.383   4.959   0.862  0.00  0.00    -0.259 N 
ATOM      5  C   UNL     1       3.828   3.968   1.736  0.00  0.00    +0.205 A 
ATOM      6  N   UNL     1       3.977   2.662   1.334  0.00  0.00    -0.288 N 
ATOM      7  C   UNL     1       4.441   1.945   2.415  0.00  0.00    +0.076 A 
ATOM      8  C   UNL     1       4.780   0.613   2.620  0.00  0.00    +0.077 A 
ATOM      9  C   UNL     1       5.230   0.203   3.860  0.00  0.00    +0.164 A 
ATOM     10  C   UNL     1       5.346   1.114   4.906  0.00  0.00    +0.164 A 
ATOM     11  C   UNL     1       5.011   2.439   4.720  0.00  0.00    +0.079 A 
ATOM     12  C   UNL     1       4.555   2.868   3.470  0.00  0.00    +0.095 A 
ATOM     13  N   UNL     1       4.160   4.084   2.988  0.00  0.00    -0.214 NA
ATOM     14  O   UNL     1       5.797   0.689   6.123  0.00  0.00    -0.488 OA
ATOM     15  C   UNL     1       4.925  -0.183   6.843  0.00  0.00    +0.232 C 
ATOM     16  C   UNL     1       5.114  -1.624   6.396  0.00  0.00    +0.082 C 
ATOM     17  C   UNL     1       4.710  -1.838   4.946  0.00  0.00    +0.232 C 
ATOM     18  O   UNL     1       5.566  -1.105   4.067  0.00  0.00    -0.488 OA
ATOM     19  N   UNL     1       1.925   5.082  -0.987  0.00  0.00    -0.375 N 
ATOM     20  H   UNL     1       3.879   3.372  -1.798  0.00  0.00    +0.151 HD
ATOM     21  H   UNL     1       1.615   4.738  -1.839  0.00  0.00    +0.158 HD
ATOM     22  H   UNL     1       3.402   5.901   1.090  0.00  0.00    +0.158 HD
ATOM     23  H   UNL     1       1.503   5.864  -0.597  0.00  0.00    +0.158 HD
ENDROOT
BRANCH   1  26
ATOM     24  C   UNL     1      -0.017   1.377   0.010  0.00  0.00    +0.004 A 
ATOM     25  C   UNL     1       1.171   2.086   0.002  0.00  0.00    +0.007 A 
ATOM     26  C   UNL     1       2.379   1.415  -0.013  0.00  0.00    -0.003 A 
ATOM     27  C   UNL     1       2.403   0.033  -0.021  0.00  0.00    +0.052 A 
ATOM     28  C   UNL     1       1.214  -0.680  -0.013  0.00  0.00    +0.117 A 
ATOM     29  C   UNL     1       0.002  -0.004   0.002  0.00  0.00    +0.045 A 
BRANCH  28  30
ATOM     30  O   UNL     1       1.235  -2.039  -0.021  0.00  0.00    -0.507 OA
ATOM     31  H   UNL     1       1.249  -2.437   0.860  0.00  0.00    +0.292 HD
ENDBRANCH  28  30
ENDBRANCH   1  26
TORSDOF 2
