REMARK  Name = ZINC09420198
REMARK  6 active torsions:
REMARK  status: ('A' for Active; 'I' for Inactive)
REMARK    1  A    between atoms: C_1  and  S_2
REMARK    2  A    between atoms: S_2  and  C_3
REMARK    3  A    between atoms: C_5  and  N_22
REMARK    4  A    between atoms: C_6  and  C_13
REMARK    5  A    between atoms: C_13  and  O_15
REMARK    6  A    between atoms: O_15  and  C_16
REMARK                            x       y       z     vdW  Elec       q    Type
REMARK                         _______ _______ _______ _____ _____    ______ ____
ROOT
ATOM      1  C   UNL     1      -0.892  -1.134   0.072  0.00  0.00    +0.112 A 
ATOM      2  C   UNL     1       0.094  -0.105   0.034  0.00  0.00    +0.061 A 
ATOM      3  C   UNL     1      -0.081   1.332  -0.038  0.00  0.00    +0.058 A 
ATOM      4  C   UNL     1       1.049   2.129  -0.064  0.00  0.00    +0.120 A 
ATOM      5  S   UNL     1       2.384   0.951   0.009  0.00  0.00    -0.060 S 
ATOM      6  C   UNL     1       1.437  -0.547   0.071  0.00  0.00    +0.117 A 
ATOM      7  N   UNL     1       1.736  -1.830   0.137  0.00  0.00    -0.207 NA
ATOM      8  C   UNL     1       0.775  -2.743   0.170  0.00  0.00    +0.215 A 
ATOM      9  N   UNL     1      -0.507  -2.398   0.138  0.00  0.00    -0.208 NA
ATOM     10  N   UNL     1       1.114  -4.082   0.239  0.00  0.00    -0.327 N 
ATOM     11  H   UNL     1       2.047  -4.345   0.262  0.00  0.00    +0.145 HD
ATOM     12  H   UNL     1       0.419  -4.758   0.263  0.00  0.00    +0.145 HD
ENDROOT
BRANCH   3  13
ATOM     13  N   UNL     1      -1.348   1.893  -0.086  0.00  0.00    -0.356 N 
ATOM     14  H   UNL     1      -2.127   1.323  -0.181  0.00  0.00    +0.142 HD
ATOM     15  H   UNL     1      -1.455   2.855  -0.026  0.00  0.00    +0.142 HD
ENDBRANCH   3  13
BRANCH   1  17
ATOM     16  C   UNL     1      -3.325  -2.387   0.105  0.00  0.00    +0.091 C 
ATOM     17  S   UNL     1      -2.606  -0.727   0.033  0.00  0.00    -0.108 S 
ENDBRANCH   1  17
BRANCH   4  18
ATOM     18  C   UNL     1       1.126   3.536  -0.132  0.00  0.00    +0.353 C 
ATOM     19  O   UNL     1       0.106   4.200  -0.176  0.00  0.00    -0.244 OA
BRANCH  18  20
ATOM     20  O   UNL     1       2.330   4.146  -0.148  0.00  0.00    -0.422 OA
BRANCH  20  21
ATOM     21  C   UNL     1       2.358   5.504  -0.096  0.00  0.00    +0.132 A 
ATOM     22  C   UNL     1       2.628   6.238  -1.242  0.00  0.00    +0.046 A 
ATOM     23  C   UNL     1       2.651   7.618  -1.188  0.00  0.00    +0.004 A 
ATOM     24  C   UNL     1       2.417   8.268   0.009  0.00  0.00    +0.000 A 
ATOM     25  C   UNL     1       2.153   7.539   1.154  0.00  0.00    +0.004 A 
ATOM     26  C   UNL     1       2.123   6.159   1.104  0.00  0.00    +0.046 A 
ENDBRANCH  20  21
ENDBRANCH  18  20
ENDBRANCH   4  18
TORSDOF 5
