REMARK  Name = ZINC66931429
REMARK  7 active torsions:
REMARK  status: ('A' for Active; 'I' for Inactive)
REMARK    1  A    between atoms: C_1  and  C_2
REMARK    2  A    between atoms: C_2  and  C_4
REMARK    3  A    between atoms: C_2  and  N_19
REMARK    4  A    between atoms: N_6  and  C_7
REMARK    5  A    between atoms: C_7  and  C_8
REMARK    6  A    between atoms: C_8  and  O_18
REMARK    7  A    between atoms: C_20  and  C_22
REMARK                            x       y       z     vdW  Elec       q    Type
REMARK                         _______ _______ _______ _____ _____    ______ ____
ROOT
ATOM      1  C   UNL     1      -1.351  -0.696  -0.116  0.00  0.00    +0.233 C 
ATOM      2  O   UNL     1      -1.748  -1.290   0.864  0.00  0.00    -0.274 OA
ATOM      3  N   UNL     1      -2.213  -0.360  -1.096  0.00  0.00    -0.311 N 
ATOM      4  H   UNL     1      -1.895   0.116  -1.880  0.00  0.00    +0.149 HD
ENDROOT
BRANCH   1   6
ATOM      5  C   UNL     1       0.246   1.187  -0.348  0.00  0.00    +0.038 C 
ATOM      6  C   UNL     1       0.107  -0.333  -0.238  0.00  0.00    +0.156 C 
BRANCH   6   7
ATOM      7  N   UNL     1       0.828  -0.804   0.947  0.00  0.00    -0.299 N 
ATOM      8  C   UNL     1       2.149  -1.060   0.874  0.00  0.00    +0.265 C 
ATOM      9  O   UNL     1       2.743  -0.900  -0.176  0.00  0.00    -0.268 OA
ATOM     10  H   UNL     1       0.355  -0.932   1.784  0.00  0.00    +0.150 HD
BRANCH   8  11
ATOM     11  C   UNL     1       2.875  -1.535   2.065  0.00  0.00    +0.154 A 
ATOM     12  C   UNL     1       4.305  -1.858   2.155  0.00  0.00    +0.032 A 
ATOM     13  C   UNL     1       5.382  -1.844   1.274  0.00  0.00    +0.012 A 
ATOM     14  C   UNL     1       6.621  -2.222   1.714  0.00  0.00    +0.001 A 
ATOM     15  C   UNL     1       6.811  -2.619   3.031  0.00  0.00    +0.002 A 
ATOM     16  C   UNL     1       5.758  -2.640   3.919  0.00  0.00    +0.028 A 
ATOM     17  C   UNL     1       4.490  -2.259   3.492  0.00  0.00    +0.066 A 
ATOM     18  N   UNL     1       3.260  -2.164   4.090  0.00  0.00    -0.276 N 
ATOM     19  N   UNL     1       2.372  -1.748   3.262  0.00  0.00    -0.168 NA
ATOM     20  H   UNL     1       3.085  -2.380   5.019  0.00  0.00    +0.189 HD
ENDBRANCH   8  11
ENDBRANCH   6   7
ENDBRANCH   1   6
BRANCH   3  21
ATOM     21  C   UNL     1      -3.630  -0.713  -0.978  0.00  0.00    +0.143 C 
BRANCH  21  22
ATOM     22  C   UNL     1      -4.406  -0.107  -2.149  0.00  0.00    +0.107 C 
ATOM     23  C   UNL     1      -4.190   1.405  -2.168  0.00  0.00    +0.041 C 
ATOM     24  C   UNL     1      -5.141   2.016  -3.204  0.00  0.00    +0.008 C 
ATOM     25  C   UNL     1      -6.569   1.903  -2.673  0.00  0.00    +0.035 C 
ATOM     26  C   UNL     1      -6.862   0.490  -2.241  0.00  0.00    -0.041 A 
ATOM     27  C   UNL     1      -5.869  -0.432  -1.996  0.00  0.00    -0.011 A 
ATOM     28  C   UNL     1      -6.208  -1.717  -1.594  0.00  0.00    +0.007 A 
ATOM     29  C   UNL     1      -7.531  -2.078  -1.440  0.00  0.00    +0.000 A 
ATOM     30  C   UNL     1      -8.528  -1.153  -1.689  0.00  0.00    +0.000 A 
ATOM     31  C   UNL     1      -8.193   0.125  -2.087  0.00  0.00    +0.004 A 
BRANCH  22  32
ATOM     32  O   UNL     1      -3.925  -0.666  -3.373  0.00  0.00    -0.382 OA
ATOM     33  H   UNL     1      -4.020  -1.627  -3.431  0.00  0.00    +0.211 HD
ENDBRANCH  22  32
ENDBRANCH  21  22
ENDBRANCH   3  21
TORSDOF 6
