REMARK  Name = ZINC58160429
REMARK  5 active torsions:
REMARK  status: ('A' for Active; 'I' for Inactive)
REMARK    1  A    between atoms: C_1  and  C_2
REMARK    2  A    between atoms: C_7  and  N_8
REMARK    3  A    between atoms: C_11  and  C_16
REMARK    4  A    between atoms: C_16  and  N_17
REMARK    5  A    between atoms: C_22  and  C_24
REMARK                            x       y       z     vdW  Elec       q    Type
REMARK                         _______ _______ _______ _____ _____    ______ ____
ROOT
ATOM      1  N   UNL     1       0.025  -0.015   2.416  0.00  0.00    -0.283 N 
ATOM      2  C   UNL     1      -0.058  -0.712   3.606  0.00  0.00    +0.224 A 
ATOM      3  N   UNL     1      -0.162  -0.053   4.758  0.00  0.00    -0.198 NA
ATOM      4  C   UNL     1      -0.242  -0.719   5.897  0.00  0.00    +0.150 A 
ATOM      5  N   UNL     1      -0.219  -2.041   5.897  0.00  0.00    -0.198 NA
ATOM      6  C   UNL     1      -0.115  -2.706   4.749  0.00  0.00    +0.217 A 
ATOM      7  N   UNL     1      -0.041  -2.040   3.602  0.00  0.00    -0.181 NA
ATOM      8  N   UNL     1      -0.091  -4.086   4.750  0.00  0.00    -0.327 N 
ATOM      9  H   UNL     1      -0.077   0.949   2.411  0.00  0.00    +0.155 HD
ATOM     10  H   UNL     1      -0.150  -4.571   5.588  0.00  0.00    +0.145 HD
ATOM     11  H   UNL     1      -0.015  -4.570   3.913  0.00  0.00    +0.145 HD
ENDROOT
BRANCH   1  18
ATOM     12  C   UNL     1      -1.030   1.083   0.013  0.00  0.00    +0.045 C 
ATOM     13  C   UNL     1      -0.239  -0.200   0.024  0.00  0.00    -0.029 A 
ATOM     14  C   UNL     1      -0.003  -0.876  -1.157  0.00  0.00    +0.005 A 
ATOM     15  C   UNL     1       0.723  -2.053  -1.149  0.00  0.00    +0.000 A 
ATOM     16  C   UNL     1       1.214  -2.557   0.042  0.00  0.00    +0.002 A 
ATOM     17  C   UNL     1       0.981  -1.886   1.226  0.00  0.00    +0.023 A 
ATOM     18  C   UNL     1       0.258  -0.701   1.220  0.00  0.00    +0.036 A 
ENDBRANCH   1  18
BRANCH   4  19
ATOM     19  C   UNL     1      -0.360   0.031   7.199  0.00  0.00    +0.161 C 
BRANCH  19  20
ATOM     20  N   UNL     1      -1.778   0.250   7.511  0.00  0.00    -0.286 NA
ATOM     21  C   UNL     1      -2.463  -1.022   7.772  0.00  0.00    +0.085 C 
ATOM     22  C   UNL     1      -3.962  -0.770   7.949  0.00  0.00    +0.015 C 
ATOM     23  C   UNL     1      -4.177   0.196   9.118  0.00  0.00    +0.003 C 
ATOM     24  C   UNL     1      -3.414   1.495   8.844  0.00  0.00    +0.026 C 
ATOM     25  C   UNL     1      -1.931   1.177   8.641  0.00  0.00    +0.113 C 
BRANCH  25  26
ATOM     26  C   UNL     1      -1.179   2.450   8.351  0.00  0.00    +0.097 A 
ATOM     27  N   UNL     1      -1.172   3.138   7.247  0.00  0.00    -0.242 NA
ATOM     28  C   UNL     1      -0.453   4.271   7.111  0.00  0.00    +0.079 A 
ATOM     29  C   UNL     1      -0.326   5.136   6.003  0.00  0.00    +0.029 A 
ATOM     30  C   UNL     1       0.464   6.242   6.076  0.00  0.00    +0.002 A 
ATOM     31  C   UNL     1       1.167   6.559   7.229  0.00  0.00    +0.001 A 
ATOM     32  C   UNL     1       1.067   5.737   8.336  0.00  0.00    +0.017 A 
ATOM     33  C   UNL     1       0.273   4.618   8.273  0.00  0.00    +0.039 A 
ATOM     34  S   UNL     1      -0.165   3.307   9.385  0.00  0.00    -0.071 S 
ENDBRANCH  25  26
ENDBRANCH  19  20
ENDBRANCH   4  19
TORSDOF 4
