REMARK  Name = ZINC39990500
REMARK  16 active torsions:
REMARK  status: ('A' for Active; 'I' for Inactive)
REMARK    1  A    between atoms: C_1  and  C_2
REMARK    2  A    between atoms: C_2  and  C_3
REMARK    3  A    between atoms: C_3  and  C_4
REMARK    4  A    between atoms: C_4  and  N_5
REMARK    5  A    between atoms: C_6  and  N_29
REMARK    6  A    between atoms: C_7  and  C_15
REMARK    7  A    between atoms: C_8  and  C_14
REMARK    8  A    between atoms: C_9  and  C_12
REMARK    9  A    between atoms: N_19  and  C_23
REMARK   10  A    between atoms: C_23  and  C_24
REMARK   11  A    between atoms: C_24  and  C_25
REMARK   12  A    between atoms: C_25  and  O_26
REMARK   13  A    between atoms: O_26  and  C_27
REMARK   14  A    between atoms: C_27  and  C_28
REMARK   15  A    between atoms: C_31  and  C_38
REMARK   16  A    between atoms: C_34  and  C_37
REMARK                            x       y       z     vdW  Elec       q    Type
REMARK                         _______ _______ _______ _____ _____    ______ ____
ROOT
ATOM      1  N   UNL     1       1.370  -3.709   1.938  0.00  0.00    -0.295 N 
ATOM      2  C   UNL     1       2.472  -3.057   2.391  0.00  0.00    +0.112 A 
ATOM      3  C   UNL     1       2.720  -2.945   3.769  0.00  0.00    +0.019 A 
ATOM      4  C   UNL     1       1.816  -3.515   4.681  0.00  0.00    -0.017 A 
ATOM      5  C   UNL     1       0.694  -4.178   4.192  0.00  0.00    +0.120 A 
ATOM      6  C   UNL     1       0.487  -4.258   2.792  0.00  0.00    +0.270 A 
ATOM      7  O   UNL     1      -0.495  -4.833   2.357  0.00  0.00    -0.266 OA
ATOM      8  C   UNL     1       2.057  -3.410   6.165  0.00  0.00    +0.046 C 
ENDROOT
BRANCH   3   9
ATOM      9  C   UNL     1       3.909  -2.241   4.250  0.00  0.00    +0.032 C 
ATOM     10  C   UNL     1       4.889  -2.926   4.901  0.00  0.00    +0.077 C 
ATOM     11  C   UNL     1       6.105  -2.447   5.476  0.00  0.00    +0.258 C 
ATOM     12  O   UNL     1       6.398  -1.266   5.428  0.00  0.00    -0.269 OA
ATOM     13  N   UNL     1       6.902  -3.323   6.062  0.00  0.00    -0.255 N 
ATOM     14  C   UNL     1       6.576  -4.634   6.115  0.00  0.00    +0.121 C 
ATOM     15  S   UNL     1       7.449  -5.929   6.815  0.00  0.00    -0.027 S 
ATOM     16  S   UNL     1       5.000  -4.671   5.275  0.00  0.00    -0.061 S 
BRANCH  13  17
ATOM     17  C   UNL     1       8.158  -2.868   6.663  0.00  0.00    +0.117 C 
BRANCH  17  18
ATOM     18  C   UNL     1       7.915  -2.489   8.125  0.00  0.00    +0.047 C 
BRANCH  18  19
ATOM     19  C   UNL     1       9.227  -2.013   8.753  0.00  0.00    +0.161 C 
BRANCH  19  20
ATOM     20  O   UNL     1       9.001  -1.659  10.119  0.00  0.00    -0.380 OA
BRANCH  20  21
ATOM     21  C   UNL     1      10.169  -1.198  10.801  0.00  0.00    +0.156 C 
ATOM     22  C   UNL     1       9.811  -0.850  12.247  0.00  0.00    +0.034 C 
ENDBRANCH  20  21
ENDBRANCH  19  20
ENDBRANCH  18  19
ENDBRANCH  17  18
ENDBRANCH  13  17
ENDBRANCH   3   9
BRANCH   2  23
ATOM     23  N   UNL     1       3.346  -2.506   1.499  0.00  0.00    -0.315 N 
ATOM     24  C   UNL     1       3.667  -1.073   1.554  0.00  0.00    +0.109 C 
ATOM     25  C   UNL     1       5.189  -0.912   1.628  0.00  0.00    +0.004 C 
ATOM     26  C   UNL     1       5.834  -1.657   0.456  0.00  0.00    +0.009 C 
ATOM     27  C   UNL     1       5.501  -3.147   0.552  0.00  0.00    +0.004 C 
ATOM     28  C   UNL     1       3.987  -3.335   0.470  0.00  0.00    +0.109 C 
ATOM     29  C   UNL     1       6.010  -3.700   1.885  0.00  0.00    +0.009 C 
ATOM     30  C   UNL     1       5.550   0.573   1.551  0.00  0.00    +0.009 C 
ENDBRANCH   2  23
BRANCH   5  31
ATOM     31  C   UNL     1      -0.246  -4.770   5.096  0.00  0.00    +0.105 C 
ATOM     32  N   UNL     1      -0.992  -5.239   5.813  0.00  0.00    -0.191 NA
ENDBRANCH   5  31
BRANCH   1  33
ATOM     33  C   UNL     1       1.136  -3.812   0.496  0.00  0.00    +0.126 C 
BRANCH  33  34
ATOM     34  C   UNL     1       0.399  -2.563   0.009  0.00  0.00    +0.021 C 
BRANCH  34  36
ATOM     35  C   UNL     1      -0.795  -1.530  -1.928  0.00  0.00    +0.004 C 
ATOM     36  C   UNL     1       0.046  -2.724  -1.472  0.00  0.00    -0.002 C 
ENDBRANCH  34  36
ENDBRANCH  33  34
ENDBRANCH   1  33
TORSDOF 11
