REMARK  Name = ZINC36481175
REMARK  13 active torsions:
REMARK  status: ('A' for Active; 'I' for Inactive)
REMARK    1  A    between atoms: C_1  and  C_2
REMARK    2  A    between atoms: C_2  and  C_3
REMARK    3  A    between atoms: C_2  and  C_4
REMARK    4  A    between atoms: C_2  and  N_5
REMARK    5  A    between atoms: C_6  and  C_8
REMARK    6  A    between atoms: C_8  and  C_10
REMARK    7  A    between atoms: C_8  and  N_19
REMARK    8  A    between atoms: C_13  and  N_16
REMARK    9  A    between atoms: N_19  and  C_20
REMARK   10  A    between atoms: C_27  and  C_29
REMARK   11  A    between atoms: C_29  and  C_31
REMARK   12  A    between atoms: C_29  and  O_37
REMARK   13  A    between atoms: O_37  and  C_38
REMARK                            x       y       z     vdW  Elec       q    Type
REMARK                         _______ _______ _______ _____ _____    ______ ____
ROOT
ATOM      1  N   UNL     1       4.617  -0.385  -2.946  0.00  0.00    -0.253 N 
ATOM      2  C   UNL     1       5.123  -1.533  -3.438  0.00  0.00    +0.254 C 
ATOM      3  O   UNL     1       4.537  -2.580  -3.260  0.00  0.00    -0.272 OA
ENDROOT
BRANCH   1   4
ATOM      4  C   UNL     1       5.339   0.807  -3.068  0.00  0.00    +0.039 A 
ATOM      5  C   UNL     1       4.849   1.839  -3.859  0.00  0.00    +0.023 A 
ATOM      6  C   UNL     1       5.564   3.014  -3.979  0.00  0.00    +0.003 A 
ATOM      7  C   UNL     1       6.766   3.166  -3.312  0.00  0.00    +0.020 A 
ATOM      8  C   UNL     1       7.257   2.140  -2.524  0.00  0.00    +0.043 A 
ATOM      9  C   UNL     1       6.543   0.964  -2.395  0.00  0.00    +0.043 A 
ATOM     10 CL   UNL     1       8.767   2.335  -1.689  0.00  0.00    -0.083 Cl
ENDBRANCH   1   4
BRANCH   1  11
ATOM     11  C   UNL     1       3.311  -0.386  -2.283  0.00  0.00    +0.197 C 
BRANCH  11  12
ATOM     12  C   UNL     1       2.902   1.032  -1.977  0.00  0.00    -0.018 A 
ATOM     13  C   UNL     1       3.741   1.851  -1.245  0.00  0.00    +0.008 A 
ATOM     14  C   UNL     1       3.366   3.151  -0.964  0.00  0.00    +0.033 A 
ATOM     15  C   UNL     1       2.152   3.633  -1.417  0.00  0.00    +0.126 A 
ATOM     16  C   UNL     1       1.313   2.815  -2.151  0.00  0.00    +0.033 A 
ATOM     17  C   UNL     1       1.690   1.516  -2.434  0.00  0.00    +0.008 A 
BRANCH  15  18
ATOM     18  N   UNL     1       1.750   5.026  -1.116  0.00  0.00    +0.056 N 
ATOM     19  O   UNL     1       2.483   5.741  -0.474  0.00  0.00    -0.126 OA
ATOM     20  O   UNL     1       0.688   5.447  -1.512  0.00  0.00    -0.126 OA
ENDBRANCH  15  18
ENDBRANCH  11  12
BRANCH  11  22
ATOM     21  N   UNL     1       2.310  -1.308  -0.217  0.00  0.00    -0.309 N 
ATOM     22  C   UNL     1       3.399  -1.171  -1.000  0.00  0.00    +0.239 C 
ATOM     23  O   UNL     1       4.450  -1.680  -0.671  0.00  0.00    -0.273 OA
ATOM     24  H   UNL     1       1.470  -0.901  -0.479  0.00  0.00    +0.149 HD
BRANCH  21  26
ATOM     25  C   UNL     1       3.435  -1.427   1.952  0.00  0.00    +0.031 C 
ATOM     26  C   UNL     1       2.396  -2.071   1.031  0.00  0.00    +0.026 C 
ATOM     27  C   UNL     1       2.811  -3.510   0.721  0.00  0.00    +0.031 C 
ATOM     28  C   UNL     1       1.032  -2.071   1.723  0.00  0.00    +0.031 C 
ENDBRANCH  21  26
ENDBRANCH  11  22
ENDBRANCH   1  11
BRANCH   2  29
ATOM     29  C   UNL     1       6.418  -1.516  -4.209  0.00  0.00    +0.234 C 
BRANCH  29  30
ATOM     30  C   UNL     1       6.198  -0.855  -5.545  0.00  0.00    -0.010 A 
ATOM     31  C   UNL     1       5.548  -1.538  -6.556  0.00  0.00    +0.006 A 
ATOM     32  C   UNL     1       5.346  -0.931  -7.781  0.00  0.00    +0.000 A 
ATOM     33  C   UNL     1       5.795   0.359  -7.996  0.00  0.00    +0.000 A 
ATOM     34  C   UNL     1       6.445   1.042  -6.985  0.00  0.00    +0.000 A 
ATOM     35  C   UNL     1       6.642   0.437  -5.758  0.00  0.00    +0.006 A 
ENDBRANCH  29  30
BRANCH  29  36
ATOM     36  O   UNL     1       6.871  -2.857  -4.410  0.00  0.00    -0.366 OA
ATOM     37  C   UNL     1       7.722  -3.345  -3.371  0.00  0.00    +0.195 C 
ENDBRANCH  29  36
ENDBRANCH   2  29
TORSDOF 9
