REMARK  Name = ZINC67524839
REMARK  13 active torsions:
REMARK  status: ('A' for Active; 'I' for Inactive)
REMARK    1  A    between atoms: C_1  and  C_2
REMARK    2  A    between atoms: C_2  and  C_3
REMARK    3  A    between atoms: C_3  and  C_4
REMARK    4  A    between atoms: C_3  and  C_6
REMARK    5  A    between atoms: C_3  and  N_23
REMARK    6  A    between atoms: C_4  and  C_5
REMARK    7  A    between atoms: C_6  and  N_7
REMARK    8  A    between atoms: C_8  and  C_10
REMARK    9  A    between atoms: N_12  and  C_13
REMARK   10  A    between atoms: C_16  and  C_22
REMARK   11  A    between atoms: C_17  and  C_19
REMARK   12  A    between atoms: N_23  and  C_24
REMARK   13  A    between atoms: N_23  and  C_25
REMARK                            x       y       z     vdW  Elec       q    Type
REMARK                         _______ _______ _______ _____ _____    ______ ____
ROOT
ATOM      1  C   UNL     1      -4.071  -3.924  -0.711  0.00  0.00    +0.303 C 
ATOM      2  O   UNL     1      -5.100  -3.302  -0.879  0.00  0.00    -0.265 OA
ATOM      3  N   UNL     1      -4.103  -5.269  -0.629  0.00  0.00    -0.278 N 
ATOM      4  H   UNL     1      -3.293  -5.761  -0.421  0.00  0.00    +0.155 HD
ENDROOT
BRANCH   3   5
ATOM      5  C   UNL     1      -5.302  -5.954  -0.844  0.00  0.00    +0.035 A 
ATOM      6  C   UNL     1      -6.228  -5.465  -1.759  0.00  0.00    +0.023 A 
ATOM      7  C   UNL     1      -7.415  -6.139  -1.975  0.00  0.00    +0.006 A 
ATOM      8  C   UNL     1      -7.690  -7.301  -1.283  0.00  0.00    -0.038 A 
ATOM      9  C   UNL     1      -6.767  -7.800  -0.361  0.00  0.00    +0.041 A 
ATOM     10  C   UNL     1      -5.566  -7.124  -0.148  0.00  0.00    +0.036 A 
ATOM     11  C   UNL     1      -8.986  -8.031  -1.521  0.00  0.00    +0.044 C 
BRANCH   9  12
ATOM     12  C   UNL     1      -7.060  -9.045   0.382  0.00  0.00    +0.242 C 
ATOM     13  O   UNL     1      -8.054  -9.691   0.116  0.00  0.00    -0.270 OA
ATOM     14  N   UNL     1      -6.224  -9.462   1.353  0.00  0.00    -0.325 N 
ATOM     15  H   UNL     1      -5.430  -8.945   1.565  0.00  0.00    +0.145 HD
ATOM     16  H   UNL     1      -6.416 -10.278   1.841  0.00  0.00    +0.145 HD
ENDBRANCH   9  12
ENDBRANCH   3   5
BRANCH   1  18
ATOM     17  N   UNL     1      -2.739  -1.854  -0.677  0.00  0.00    -0.309 N 
ATOM     18  C   UNL     1      -2.771  -3.199  -0.595  0.00  0.00    +0.299 C 
ATOM     19  O   UNL     1      -1.742  -3.821  -0.426  0.00  0.00    -0.265 OA
ATOM     20  H   UNL     1      -3.561  -1.357  -0.811  0.00  0.00    +0.149 HD
BRANCH  17  21
ATOM     21  C   UNL     1      -1.463  -1.143  -0.562  0.00  0.00    +0.092 C 
BRANCH  21  22
ATOM     22  C   UNL     1      -1.721   0.365  -0.530  0.00  0.00    -0.051 C 
BRANCH  22  23
ATOM     23  N   UNL     1      -0.439   1.081  -0.563  0.00  0.00    +0.381 N 
ATOM     24  C   UNL     1       0.413   0.611   0.538  0.00  0.00    -0.096 C 
ATOM     25  C   UNL     1       0.232   0.827  -1.845  0.00  0.00    -0.096 C 
ATOM     26  H   UNL     1      -0.604   2.071  -0.460  0.00  0.00    -0.082 HD
ENDBRANCH  22  23
BRANCH  22  28
ATOM     27  C   UNL     1      -2.712   2.287  -1.782  0.00  0.00    +0.002 C 
ATOM     28  C   UNL     1      -2.559   0.765  -1.746  0.00  0.00    -0.014 C 
ENDBRANCH  22  28
BRANCH  22  29
ATOM     29  C   UNL     1      -2.475   0.726   0.751  0.00  0.00    -0.014 C 
ATOM     30  C   UNL     1      -3.870   0.098   0.716  0.00  0.00    +0.002 C 
ENDBRANCH  22  29
ENDBRANCH  21  22
ENDBRANCH  17  21
ENDBRANCH   1  18
TORSDOF 8
