REMARK  Name = ZINC03365374
REMARK  13 active torsions:
REMARK  status: ('A' for Active; 'I' for Inactive)
REMARK    1  A    between atoms: C_1  and  C_2
REMARK    2  A    between atoms: C_2  and  O_3
REMARK    3  A    between atoms: O_3  and  C_4
REMARK    4  A    between atoms: C_7  and  N_10
REMARK    5  A    between atoms: C_11  and  C_33
REMARK    6  A    between atoms: C_14  and  S_15
REMARK    7  A    between atoms: S_15  and  C_16
REMARK    8  A    between atoms: C_16  and  C_17
REMARK    9  A    between atoms: C_23  and  C_32
REMARK   10  A    between atoms: C_24  and  C_28
REMARK   11  A    between atoms: C_28  and  O_30
REMARK   12  A    between atoms: O_30  and  C_31
REMARK   13  A    between atoms: C_37  and  C_39
REMARK                            x       y       z     vdW  Elec       q    Type
REMARK                         _______ _______ _______ _____ _____    ______ ____
ROOT
ATOM      1  N   UNL     1      -1.951  -5.997  -0.033  0.00  0.00    -0.270 N 
ATOM      2  C   UNL     1      -2.632  -6.750  -0.965  0.00  0.00    +0.169 A 
ATOM      3  N   UNL     1      -2.587  -7.997  -0.558  0.00  0.00    -0.128 NA
ATOM      4  N   UNL     1      -1.936  -8.077   0.547  0.00  0.00    -0.122 NA
ATOM      5  C   UNL     1      -1.519  -6.885   0.913  0.00  0.00    +0.197 A 
ENDROOT
BRANCH   2   6
ATOM      6  C   UNL     1      -3.288  -6.248  -2.190  0.00  0.00    +0.020 A 
ATOM      7  C   UNL     1      -2.954  -4.992  -2.701  0.00  0.00    +0.011 A 
ATOM      8  C   UNL     1      -3.570  -4.530  -3.845  0.00  0.00    +0.001 A 
ATOM      9  C   UNL     1      -4.517  -5.309  -4.487  0.00  0.00    +0.003 A 
ATOM     10  C   UNL     1      -4.853  -6.554  -3.987  0.00  0.00    -0.050 A 
ATOM     11  C   UNL     1      -4.240  -7.030  -2.846  0.00  0.00    +0.015 A 
ATOM     12  C   UNL     1      -5.886  -7.394  -4.692  0.00  0.00    +0.044 C 
ENDBRANCH   2   6
BRANCH   1  16
ATOM     13  C   UNL     1      -1.326  -1.873  -0.096  0.00  0.00    +0.121 A 
ATOM     14  C   UNL     1      -0.257  -2.739  -0.273  0.00  0.00    +0.047 A 
ATOM     15  C   UNL     1      -0.463  -4.104  -0.252  0.00  0.00    +0.030 A 
ATOM     16  C   UNL     1      -1.741  -4.609  -0.054  0.00  0.00    +0.051 A 
ATOM     17  C   UNL     1      -2.810  -3.742   0.123  0.00  0.00    +0.030 A 
ATOM     18  C   UNL     1      -2.602  -2.377   0.107  0.00  0.00    +0.047 A 
BRANCH  13  19
ATOM     19  O   UNL     1      -1.122  -0.529  -0.116  0.00  0.00    -0.492 OA
BRANCH  19  21
ATOM     20  C   UNL     1       0.249   1.451  -0.321  0.00  0.00    +0.048 C 
ATOM     21  C   UNL     1       0.218  -0.079  -0.330  0.00  0.00    +0.225 C 
ENDBRANCH  19  21
ENDBRANCH  13  19
ENDBRANCH   1  16
BRANCH   5  22
ATOM     22  S   UNL     1      -0.581  -6.502   2.355  0.00  0.00    -0.078 S 
BRANCH  22  23
ATOM     23  C   UNL     1      -0.346  -8.108   3.164  0.00  0.00    +0.151 C 
BRANCH  23  24
ATOM     24  C   UNL     1       0.452  -7.921   4.429  0.00  0.00    +0.121 A 
ATOM     25  N   UNL     1       0.746  -9.006   5.188  0.00  0.00    -0.310 N 
ATOM     26  H   UNL     1       0.438  -9.881   4.905  0.00  0.00    +0.170 HD
ATOM     27  C   UNL     1       1.457  -8.893   6.326  0.00  0.00    +0.260 A 
ATOM     28  O   UNL     1       1.717  -9.873   7.001  0.00  0.00    -0.267 OA
ATOM     29  C   UNL     1       1.915  -7.546   6.737  0.00  0.00    +0.076 A 
ATOM     30  C   UNL     1       2.657  -7.170   7.858  0.00  0.00    -0.015 A 
ATOM     31  C   UNL     1       2.978  -5.857   8.051  0.00  0.00    +0.102 A 
ATOM     32  S   UNL     1       2.240  -5.058   6.636  0.00  0.00    -0.062 S 
ATOM     33  C   UNL     1       1.545  -6.497   5.863  0.00  0.00    +0.116 A 
ATOM     34  N   UNL     1       0.844  -6.721   4.759  0.00  0.00    -0.226 NA
ATOM     35  C   UNL     1       3.102  -8.210   8.853  0.00  0.00    +0.046 C 
BRANCH  31  36
ATOM     36  C   UNL     1       3.740  -5.254   9.146  0.00  0.00    +0.346 C 
ATOM     37  O   UNL     1       4.177  -5.953  10.041  0.00  0.00    -0.244 OA
BRANCH  36  38
ATOM     38  O   UNL     1       3.957  -3.922   9.164  0.00  0.00    -0.464 OA
ATOM     39  C   UNL     1       4.708  -3.402  10.263  0.00  0.00    +0.280 C 
ENDBRANCH  36  38
ENDBRANCH  31  36
ENDBRANCH  23  24
ENDBRANCH  22  23
ENDBRANCH   5  22
TORSDOF 9
