REMARK  Name = ZINC08016575
REMARK  11 active torsions:
REMARK  status: ('A' for Active; 'I' for Inactive)
REMARK    1  A    between atoms: C_1  and  C_2
REMARK    2  A    between atoms: C_7  and  C_8
REMARK    3  A    between atoms: N_10  and  C_11
REMARK    4  A    between atoms: C_11  and  C_13
REMARK    5  A    between atoms: C_11  and  C_16
REMARK    6  A    between atoms: C_13  and  C_14
REMARK    7  A    between atoms: C_13  and  C_15
REMARK    8  A    between atoms: N_18  and  N_19
REMARK    9  A    between atoms: N_19  and  C_20
REMARK   10  A    between atoms: C_20  and  N_22
REMARK   11  A    between atoms: N_22  and  C_23
REMARK                            x       y       z     vdW  Elec       q    Type
REMARK                         _______ _______ _______ _____ _____    ______ ____
ROOT
ATOM      1  C   UNL     1       3.788   4.240   4.987  0.00  0.00    +0.163 C 
ENDROOT
BRANCH   1   4
ATOM      2  C   UNL     1       5.826   5.000   6.085  0.00  0.00    +0.245 C 
ATOM      3  O   UNL     1       6.166   5.511   5.035  0.00  0.00    -0.270 OA
ATOM      4  N   UNL     1       4.654   4.340   6.165  0.00  0.00    -0.300 N 
ATOM      5  H   UNL     1       4.383   3.933   7.002  0.00  0.00    +0.150 HD
BRANCH   2  12
ATOM      6  C   UNL     1       8.452   6.189   5.833  0.00  0.00    +0.044 C 
ATOM      7  C   UNL     1       7.968   5.673   7.164  0.00  0.00    -0.038 A 
ATOM      8  C   UNL     1       8.778   5.765   8.277  0.00  0.00    +0.004 A 
ATOM      9  C   UNL     1       8.335   5.292   9.500  0.00  0.00    +0.000 A 
ATOM     10  C   UNL     1       7.079   4.724   9.615  0.00  0.00    +0.001 A 
ATOM     11  C   UNL     1       6.257   4.631   8.511  0.00  0.00    +0.013 A 
ATOM     12  C   UNL     1       6.700   5.101   7.273  0.00  0.00    +0.040 A 
ENDBRANCH   2  12
ENDBRANCH   1   4
BRANCH   1  13
ATOM     13  C   UNL     1       2.361   4.039   5.428  0.00  0.00    +0.250 C 
ATOM     14  O   UNL     1       2.094   3.984   6.609  0.00  0.00    -0.272 OA
ATOM     15  N   UNL     1       1.382   3.919   4.509  0.00  0.00    -0.234 N 
ATOM     16  H   UNL     1       1.596   3.962   3.564  0.00  0.00    +0.173 HD
BRANCH  15  17
ATOM     17  N   UNL     1       0.056   3.732   4.919  0.00  0.00    -0.246 N 
ATOM     18  H   UNL     1      -0.158   3.688   5.864  0.00  0.00    +0.172 HD
BRANCH  17  19
ATOM     19  C   UNL     1      -0.923   3.612   4.000  0.00  0.00    +0.147 C 
ATOM     20  S   UNL     1      -2.544   3.383   4.501  0.00  0.00    -0.017 S 
BRANCH  19  21
ATOM     21  N   UNL     1      -0.625   3.672   2.687  0.00  0.00    -0.323 N 
ATOM     22  H   UNL     1       0.293   3.802   2.403  0.00  0.00    +0.148 HD
BRANCH  21  23
ATOM     23  C   UNL     1      -1.689   3.542   1.688  0.00  0.00    +0.072 C 
ATOM     24  C   UNL     1      -1.116   3.023   0.353  0.00  0.00    +0.022 C 
ATOM     25  C   UNL     1      -1.872   3.761  -0.766  0.00  0.00    +0.002 C 
ATOM     26  C   UNL     1      -2.879   4.701  -0.073  0.00  0.00    +0.002 C 
ATOM     27  C   UNL     1      -2.276   4.932   1.335  0.00  0.00    +0.022 C 
ENDBRANCH  21  23
ENDBRANCH  19  21
ENDBRANCH  17  19
ENDBRANCH  15  17
ENDBRANCH   1  13
BRANCH   1  28
ATOM     28  C   UNL     1       4.229   3.052   4.130  0.00  0.00    +0.012 C 
ATOM     29  C   UNL     1       5.678   3.257   3.682  0.00  0.00    +0.009 C 
ATOM     30  C   UNL     1       4.126   1.765   4.950  0.00  0.00    +0.009 C 
ENDBRANCH   1  28
TORSDOF 8
