REMARK  Name = ZINC40323631
REMARK  8 active torsions:
REMARK  status: ('A' for Active; 'I' for Inactive)
REMARK    1  A    between atoms: C_1  and  C_2
REMARK    2  A    between atoms: C_4  and  C_28
REMARK    3  A    between atoms: C_6  and  O_8
REMARK    4  A    between atoms: O_8  and  C_9
REMARK    5  A    between atoms: C_9  and  C_10
REMARK    6  A    between atoms: C_15  and  C_18
REMARK    7  A    between atoms: C_21  and  O_24
REMARK    8  A    between atoms: O_24  and  C_25
REMARK                            x       y       z     vdW  Elec       q    Type
REMARK                         _______ _______ _______ _____ _____    ______ ____
ROOT
ATOM      1  C   UNL     1       0.064  -2.932   4.751  0.00  0.00    +0.256 C 
ATOM      2  O   UNL     1       0.080  -4.133   4.584  0.00  0.00    -0.272 OA
ATOM      3  N   UNL     1       0.063  -2.425   6.000  0.00  0.00    -0.261 N 
ATOM      4  C   UNL     1       0.080  -3.278   7.095  0.00  0.00    +0.185 A 
ATOM      5  N   UNL     1       0.076  -2.971   8.379  0.00  0.00    -0.204 NA
ATOM      6  C   UNL     1       0.095  -3.967   9.248  0.00  0.00    +0.171 A 
ATOM      7  N   UNL     1       0.117  -5.197   8.775  0.00  0.00    -0.187 NA
ATOM      8  S   UNL     1       0.102  -4.958   7.116  0.00  0.00    +0.050 S 
ATOM      9  H   UNL     1       0.051  -1.464   6.134  0.00  0.00    +0.157 HD
ENDROOT
BRANCH   6  10
ATOM     10  C   UNL     1       0.093  -3.709  10.709  0.00  0.00    +0.020 A 
ATOM     11  C   UNL     1       0.066  -2.400  11.186  0.00  0.00    +0.015 A 
ATOM     12  C   UNL     1       0.063  -2.163  12.545  0.00  0.00    +0.046 A 
ATOM     13  C   UNL     1       0.089  -3.226  13.436  0.00  0.00    +0.127 A 
ATOM     14  C   UNL     1       0.117  -4.532  12.964  0.00  0.00    +0.046 A 
ATOM     15  C   UNL     1       0.114  -4.775  11.606  0.00  0.00    +0.015 A 
BRANCH  13  16
ATOM     16  O   UNL     1       0.087  -2.990  14.774  0.00  0.00    -0.434 OA
BRANCH  16  17
ATOM     17  C   UNL     1       0.115  -4.130  15.635  0.00  0.00    +0.541 C 
ATOM     18  F   UNL     1      -1.011  -4.925  15.392  0.00  0.00    -0.166 F 
ATOM     19  F   UNL     1       1.273  -4.874  15.386  0.00  0.00    -0.166 F 
ENDBRANCH  16  17
ENDBRANCH  13  16
ENDBRANCH   6  10
BRANCH   1  20
ATOM     20  C   UNL     1       0.046  -2.005   3.563  0.00  0.00    +0.324 C 
BRANCH  20  21
ATOM     21  O   UNL     1       0.051  -2.775   2.359  0.00  0.00    -0.483 OA
BRANCH  21  27
ATOM     22  C   UNL     1      -0.018   1.503   0.010  0.00  0.00    +0.044 C 
ATOM     23  C   UNL     1       0.002  -0.004   0.002  0.00  0.00    -0.047 A 
ATOM     24  C   UNL     1       0.006  -0.688  -1.200  0.00  0.00    +0.007 A 
ATOM     25  C   UNL     1       0.025  -2.071  -1.210  0.00  0.00    -0.047 A 
ATOM     26  C   UNL     1       0.040  -2.772  -0.020  0.00  0.00    +0.049 A 
ATOM     27  C   UNL     1       0.036  -2.088   1.187  0.00  0.00    +0.122 A 
ATOM     28  C   UNL     1       0.023  -0.701   1.195  0.00  0.00    +0.049 A 
ATOM     29  C   UNL     1       0.029  -2.813  -2.522  0.00  0.00    +0.044 C 
ENDBRANCH  21  27
ENDBRANCH  20  21
ENDBRANCH   1  20
TORSDOF 6
