REMARK  Name = ZINC06347789
REMARK  5 active torsions:
REMARK  status: ('A' for Active; 'I' for Inactive)
REMARK    1  A    between atoms: C_1  and  C_2
REMARK    2  A    between atoms: C_2  and  C_3
REMARK    3  A    between atoms: C_2  and  C_4
REMARK    4  A    between atoms: C_11  and  C_20
REMARK    5  A    between atoms: C_25  and  N_26
REMARK                            x       y       z     vdW  Elec       q    Type
REMARK                         _______ _______ _______ _____ _____    ______ ____
ROOT
ATOM      1  C   UNL     1       2.452   1.429  -0.006  0.00  0.00    -0.024 A 
ATOM      2  C   UNL     1       1.276   2.144   0.043  0.00  0.00    +0.006 A 
ATOM      3  C   UNL     1       0.061   1.485   0.083  0.00  0.00    +0.001 A 
ATOM      4  C   UNL     1       0.033   0.103   0.080  0.00  0.00    +0.006 A 
ATOM      5  C   UNL     1       1.206  -0.620   0.036  0.00  0.00    -0.019 A 
ATOM      6  C   UNL     1       2.440   0.034  -0.018  0.00  0.00    +0.035 A 
ATOM      7  N   UNL     1       3.668  -0.621  -0.094  0.00  0.00    -0.336 N 
ATOM      8  C   UNL     1       3.642  -2.089  -0.004  0.00  0.00    +0.107 C 
ATOM      9  C   UNL     1       2.433  -2.562  -0.783  0.00  0.00    +0.029 C 
ATOM     10  C   UNL     1       1.210  -2.099   0.067  0.00  0.00    +0.049 C 
ATOM     11  C   UNL     1       0.101  -2.944  -0.467  0.00  0.00    -0.023 C 
ATOM     12  C   UNL     1       0.609  -4.068  -0.960  0.00  0.00    -0.030 C 
ATOM     13  C   UNL     1       2.132  -4.065  -0.803  0.00  0.00    +0.033 C 
ATOM     14  H   UNL     1       4.190  -0.317  -0.902  0.00  0.00    +0.147 HD
ENDROOT
BRANCH   8  15
ATOM     15  C   UNL     1       3.522  -2.514   1.438  0.00  0.00    +0.003 A 
ATOM     16  C   UNL     1       2.994  -1.643   2.373  0.00  0.00    +0.008 A 
ATOM     17  C   UNL     1       2.883  -2.032   3.694  0.00  0.00    +0.000 A 
ATOM     18  C   UNL     1       3.301  -3.292   4.081  0.00  0.00    +0.002 A 
ATOM     19  C   UNL     1       3.829  -4.162   3.146  0.00  0.00    +0.033 A 
ATOM     20  C   UNL     1       3.935  -3.775   1.823  0.00  0.00    +0.131 A 
BRANCH  20  21
ATOM     21  N   UNL     1       4.495  -4.709   0.821  0.00  0.00    +0.057 N 
ATOM     22  O   UNL     1       4.760  -5.855   1.138  0.00  0.00    -0.126 OA
ATOM     23  O   UNL     1       4.690  -4.332  -0.321  0.00  0.00    -0.126 OA
ENDBRANCH  20  21
ENDBRANCH   8  15
BRANCH   1  25
ATOM     24  C   UNL     1       3.816   3.052  -1.293  0.00  0.00    +0.012 C 
ATOM     25  C   UNL     1       3.768   2.163  -0.049  0.00  0.00    +0.015 C 
ATOM     26  C   UNL     1       3.909   3.030   1.204  0.00  0.00    +0.012 C 
ENDBRANCH   1  25
TORSDOF 3
