REMARK  Name = ZINC38664689
REMARK  11 active torsions:
REMARK  status: ('A' for Active; 'I' for Inactive)
REMARK    1  A    between atoms: C_1  and  C_2
REMARK    2  A    between atoms: C_4  and  C_7
REMARK    3  A    between atoms: C_8  and  C_9
REMARK    4  A    between atoms: C_8  and  C_10
REMARK    5  A    between atoms: C_14  and  C_39
REMARK    6  A    between atoms: C_18  and  C_38
REMARK    7  A    between atoms: C_20  and  O_37
REMARK    8  A    between atoms: C_22  and  C_36
REMARK    9  A    between atoms: C_26  and  C_34
REMARK   10  A    between atoms: C_26  and  C_35
REMARK   11  A    between atoms: C_27  and  O_33
REMARK                            x       y       z     vdW  Elec       q    Type
REMARK                         _______ _______ _______ _____ _____    ______ ____
ROOT
ATOM      1  C   UNL     1      -4.686  -3.167  -0.132  0.00  0.00    +0.206 C 
ATOM      2  C   UNL     1      -5.005  -3.290   1.361  0.00  0.00    +0.076 C 
ATOM      3  C   UNL     1      -4.202  -4.411   1.964  0.00  0.00    -0.024 C 
ATOM      4  C   UNL     1      -4.488  -4.865   3.158  0.00  0.00    -0.076 C 
ATOM      5  C   UNL     1      -5.639  -4.282   3.939  0.00  0.00    +0.030 C 
ATOM      6  C   UNL     1      -6.944  -4.941   3.482  0.00  0.00    +0.005 C 
ATOM      7  C   UNL     1      -8.073  -4.498   4.413  0.00  0.00    +0.006 C 
ATOM      8  C   UNL     1      -9.342  -4.233   3.601  0.00  0.00    +0.015 C 
ATOM      9  C   UNL     1      -9.092  -3.155   2.547  0.00  0.00    +0.127 C 
ATOM     10  C   UNL     1     -10.328  -2.292   2.311  0.00  0.00    +0.081 C 
ATOM     11  C   UNL     1     -10.031  -1.186   1.349  0.00  0.00    +0.147 C 
ATOM     12  O   UNL     1      -9.953  -0.050   1.813  0.00  0.00    -0.296 OA
ATOM     13  C   UNL     1      -9.821  -1.318  -0.133  0.00  0.00    +0.050 C 
ATOM     14  C   UNL     1      -8.660  -0.403  -0.536  0.00  0.00    +0.138 C 
ATOM     15  C   UNL     1      -7.578  -1.087  -1.354  0.00  0.00    +0.152 C 
ATOM     16  C   UNL     1      -6.569  -1.738  -0.435  0.00  0.00    +0.310 C 
ATOM     17  O   UNL     1      -6.451  -1.297   0.687  0.00  0.00    -0.251 OA
ATOM     18  O   UNL     1      -5.847  -2.776  -0.854  0.00  0.00    -0.457 OA
ATOM     19  C   UNL     1      -9.578  -2.756  -0.565  0.00  0.00    +0.021 C 
ATOM     20  C   UNL     1     -11.081  -0.809  -0.859  0.00  0.00    +0.021 C 
ATOM     21  C   UNL     1     -11.557  -3.098   1.912  0.00  0.00    +0.018 C 
ATOM     22  C   UNL     1      -9.728  -5.553   2.914  0.00  0.00    +0.010 C 
ATOM     23  C   UNL     1      -3.656  -5.964   3.771  0.00  0.00    +0.039 C 
ENDROOT
BRANCH   1  25
ATOM     24  C   UNL     1      -2.405  -2.553  -0.797  0.00  0.00    +0.031 C 
ATOM     25  C   UNL     1      -3.585  -2.160  -0.337  0.00  0.00    -0.030 C 
ATOM     26  C   UNL     1      -3.824  -0.707  -0.020  0.00  0.00    +0.043 C 
BRANCH  24  30
ATOM     27  C   UNL     1      -0.839   2.133  -1.455  0.00  0.00    +0.073 C 
ATOM     28  C   UNL     1      -0.720   0.631  -1.434  0.00  0.00    +0.076 A 
ATOM     29  N   UNL     1      -1.634  -0.249  -1.121  0.00  0.00    -0.245 NA
ATOM     30  C   UNL     1      -1.379  -1.550  -1.150  0.00  0.00    +0.071 A 
ATOM     31  C   UNL     1      -0.110  -1.915  -1.524  0.00  0.00    +0.074 A 
ATOM     32  S   UNL     1       0.621  -0.312  -1.815  0.00  0.00    -0.080 S 
ENDBRANCH  24  30
ENDBRANCH   1  25
BRANCH  14  33
ATOM     33  O   UNL     1      -9.180   0.712  -1.273  0.00  0.00    -0.390 OA
ATOM     34  H   UNL     1      -8.505   1.339  -1.566  0.00  0.00    +0.210 HD
ENDBRANCH  14  33
BRANCH   9  35
ATOM     35  O   UNL     1      -8.036  -2.293   3.002  0.00  0.00    -0.391 OA
ATOM     36  H   UNL     1      -7.818  -1.581   2.386  0.00  0.00    +0.210 HD
ENDBRANCH   9  35
TORSDOF 4
