REMARK  Name = ZINC16047867
REMARK  13 active torsions:
REMARK  status: ('A' for Active; 'I' for Inactive)
REMARK    1  A    between atoms: C_1  and  C_2
REMARK    2  A    between atoms: C_2  and  C_3
REMARK    3  A    between atoms: C_3  and  C_4
REMARK    4  A    between atoms: C_3  and  C_6
REMARK    5  A    between atoms: C_4  and  C_5
REMARK    6  A    between atoms: C_12  and  S_14
REMARK    7  A    between atoms: S_14  and  C_15
REMARK    8  A    between atoms: C_15  and  C_16
REMARK    9  A    between atoms: C_20  and  O_23
REMARK   10  A    between atoms: O_23  and  C_24
REMARK   11  A    between atoms: C_24  and  C_26
REMARK   12  A    between atoms: C_29  and  C_33
REMARK   13  A    between atoms: C_30  and  C_32
REMARK                            x       y       z     vdW  Elec       q    Type
REMARK                         _______ _______ _______ _____ _____    ______ ____
ROOT
ATOM      1  C   UNL     1      -1.374   4.301  -1.755  0.00  0.00    +0.119 A 
ATOM      2  C   UNL     1      -1.305   2.962  -1.897  0.00  0.00    +0.097 A 
ATOM      3  C   UNL     1      -0.049   2.362  -2.164  0.00  0.00    +0.227 A 
ATOM      4  O   UNL     1       0.054   1.152  -2.294  0.00  0.00    -0.284 OA
ATOM      5  C   UNL     1       1.087   3.210  -2.284  0.00  0.00    +0.213 A 
ATOM      6  C   UNL     1       0.926   4.543  -2.133  0.00  0.00    +0.245 A 
ATOM      7  O   UNL     1      -0.281   5.064  -1.875  0.00  0.00    -0.463 OA
ENDROOT
BRANCH   1   8
ATOM      8  C   UNL     1      -2.703   4.949  -1.464  0.00  0.00    +0.150 C 
BRANCH   8   9
ATOM      9  S   UNL     1      -2.944   5.054   0.331  0.00  0.00    -0.089 S 
BRANCH   9  16
ATOM     10  C   UNL     1      -8.957   7.992   0.816  0.00  0.00    +0.222 C 
ATOM     11  O   UNL     1      -8.797   7.923  -0.384  0.00  0.00    -0.275 OA
ATOM     12  N   UNL     1      -8.009   7.522   1.651  0.00  0.00    -0.263 N 
ATOM     13  C   UNL     1      -6.846   6.957   1.135  0.00  0.00    +0.189 A 
ATOM     14  N   UNL     1      -6.470   6.782  -0.121  0.00  0.00    -0.125 NA
ATOM     15  N   UNL     1      -5.369   6.245  -0.421  0.00  0.00    -0.133 NA
ATOM     16  C   UNL     1      -4.520   5.823   0.504  0.00  0.00    +0.160 A 
ATOM     17  S   UNL     1      -5.435   6.252   1.983  0.00  0.00    -0.024 S 
ATOM     18  H   UNL     1      -8.137   7.578   2.611  0.00  0.00    +0.157 HD
BRANCH  10  19
ATOM     19  C   UNL     1     -10.216   8.604   1.375  0.00  0.00    +0.075 C 
BRANCH  19  21
ATOM     20  C   UNL     1      -9.181  10.878   1.376  0.00  0.00    +0.004 C 
ATOM     21  C   UNL     1      -9.855   9.812   2.242  0.00  0.00    +0.009 C 
ENDBRANCH  19  21
BRANCH  19  22
ATOM     22  C   UNL     1     -11.118   9.054   0.224  0.00  0.00    +0.009 C 
ATOM     23  C   UNL     1     -12.451   9.553   0.786  0.00  0.00    +0.004 C 
ENDBRANCH  19  22
ENDBRANCH  10  19
ENDBRANCH   9  16
ENDBRANCH   8   9
ENDBRANCH   1   8
BRANCH   5  24
ATOM     24  O   UNL     1       2.316   2.687  -2.546  0.00  0.00    -0.415 OA
BRANCH  24  25
ATOM     25  C   UNL     1       2.596   2.397  -3.831  0.00  0.00    +0.345 C 
ATOM     26  O   UNL     1       1.808   2.697  -4.707  0.00  0.00    -0.245 OA
BRANCH  25  27
ATOM     27  C   UNL     1       3.860   1.715  -4.176  0.00  0.00    +0.060 A 
ATOM     28  C   UNL     1       4.769   1.375  -3.173  0.00  0.00    +0.015 A 
ATOM     29  C   UNL     1       5.946   0.734  -3.502  0.00  0.00    +0.004 A 
ATOM     30  C   UNL     1       6.230   0.437  -4.823  0.00  0.00    -0.047 A 
ATOM     31  C   UNL     1       5.336   0.777  -5.823  0.00  0.00    -0.047 A 
ATOM     32  C   UNL     1       4.153   1.413  -5.507  0.00  0.00    +0.018 A 
ATOM     33  C   UNL     1       5.654   0.450  -7.259  0.00  0.00    +0.044 C 
ATOM     34  C   UNL     1       7.519  -0.259  -5.175  0.00  0.00    +0.044 C 
ENDBRANCH  25  27
ENDBRANCH  24  25
ENDBRANCH   5  24
TORSDOF 9
