REMARK  Name = ZINC40138497
REMARK  10 active torsions:
REMARK  status: ('A' for Active; 'I' for Inactive)
REMARK    1  A    between atoms: C_1  and  C_2
REMARK    2  A    between atoms: N_9  and  N_10
REMARK    3  A    between atoms: C_11  and  C_13
REMARK    4  A    between atoms: C_13  and  O_14
REMARK    5  A    between atoms: O_14  and  C_15
REMARK    6  A    between atoms: N_23  and  C_24
REMARK    7  A    between atoms: C_24  and  C_25
REMARK    8  A    between atoms: C_25  and  C_26
REMARK    9  A    between atoms: C_26  and  O_27
REMARK   10  A    between atoms: O_27  and  C_28
REMARK                            x       y       z     vdW  Elec       q    Type
REMARK                         _______ _______ _______ _____ _____    ______ ____
ROOT
ATOM      1  C   UNL     1      -0.018   1.503   0.010  0.00  0.00    +0.044 C 
ATOM      2  C   UNL     1       0.002  -0.004   0.002  0.00  0.00    -0.050 A 
ATOM      3  C   UNL     1       0.006  -0.689  -1.201  0.00  0.00    +0.005 A 
ATOM      4  C   UNL     1       0.024  -2.069  -1.225  0.00  0.00    +0.024 A 
ATOM      5  C   UNL     1       0.039  -2.787  -0.034  0.00  0.00    +0.046 A 
ATOM      6  C   UNL     1       0.035  -2.090   1.181  0.00  0.00    +0.029 A 
ATOM      7  C   UNL     1       0.023  -0.700   1.194  0.00  0.00    +0.015 A 
ATOM      8  C   UNL     1       0.054  -3.115   2.251  0.00  0.00    +0.153 C 
ATOM      9  N   UNL     1       0.058  -2.916   3.547  0.00  0.00    -0.174 NA
ATOM     10  C   UNL     1       0.069  -4.409   1.539  0.00  0.00    +0.271 C 
ATOM     11  O   UNL     1       0.086  -5.511   2.056  0.00  0.00    -0.268 OA
ATOM     12  N   UNL     1       0.059  -4.154   0.220  0.00  0.00    -0.265 N 
ENDROOT
BRANCH   9  13
ATOM     13  N   UNL     1       0.077  -4.009   4.423  0.00  0.00    -0.203 N 
ATOM     14  C   UNL     1       0.080  -3.804   5.755  0.00  0.00    +0.270 C 
ATOM     15  O   UNL     1       0.067  -2.675   6.195  0.00  0.00    -0.270 OA
ATOM     16  H   UNL     1       0.087  -4.913   4.071  0.00  0.00    +0.177 HD
BRANCH  14  17
ATOM     17  C   UNL     1       0.101  -4.980   6.698  0.00  0.00    +0.326 C 
BRANCH  17  18
ATOM     18  O   UNL     1       0.101  -4.509   8.047  0.00  0.00    -0.483 OA
BRANCH  18  19
ATOM     19  C   UNL     1       0.118  -5.449   9.028  0.00  0.00    +0.121 A 
ATOM     20  C   UNL     1       0.140  -6.796   8.700  0.00  0.00    +0.045 A 
ATOM     21  C   UNL     1       0.159  -7.749   9.700  0.00  0.00    +0.004 A 
ATOM     22  C   UNL     1       0.154  -7.361  11.027  0.00  0.00    +0.000 A 
ATOM     23  C   UNL     1       0.131  -6.019  11.357  0.00  0.00    +0.004 A 
ATOM     24  C   UNL     1       0.119  -5.061  10.361  0.00  0.00    +0.045 A 
ENDBRANCH  18  19
ENDBRANCH  17  18
ENDBRANCH  14  17
ENDBRANCH   9  13
BRANCH  12  25
ATOM     25  C   UNL     1       0.068  -5.186  -0.820  0.00  0.00    +0.117 C 
BRANCH  25  26
ATOM     26  C   UNL     1       1.514  -5.526  -1.188  0.00  0.00    +0.060 C 
BRANCH  26  27
ATOM     27  C   UNL     1       1.523  -6.604  -2.274  0.00  0.00    +0.230 C 
BRANCH  27  28
ATOM     28  O   UNL     1       2.873  -6.922  -2.619  0.00  0.00    -0.491 OA
BRANCH  28  29
ATOM     29  C   UNL     1       3.060  -7.869  -3.575  0.00  0.00    +0.134 A 
ATOM     30  C   UNL     1       1.966  -8.476  -4.175  0.00  0.00    +0.047 A 
ATOM     31  C   UNL     1       2.158  -9.438  -5.147  0.00  0.00    +0.004 A 
ATOM     32  C   UNL     1       3.439  -9.796  -5.524  0.00  0.00    +0.001 A 
ATOM     33  C   UNL     1       4.531  -9.193  -4.928  0.00  0.00    +0.019 A 
ATOM     34  C   UNL     1       4.345  -8.226  -3.959  0.00  0.00    +0.059 A 
ATOM     35 BR   UNL     1       5.839  -7.395  -3.151  0.00  0.00    -0.047 Br
ENDBRANCH  28  29
ENDBRANCH  27  28
ENDBRANCH  26  27
ENDBRANCH  25  26
ENDBRANCH  12  25
TORSDOF 9
