REMARK  Name = ZINC36288121
REMARK  8 active torsions:
REMARK  status: ('A' for Active; 'I' for Inactive)
REMARK    1  A    between atoms: C_1  and  O_2
REMARK    2  A    between atoms: O_2  and  C_3
REMARK    3  A    between atoms: C_5  and  C_13
REMARK    4  A    between atoms: C_7  and  N_10
REMARK    5  A    between atoms: C_8  and  O_9
REMARK    6  A    between atoms: N_14  and  N_15
REMARK    7  A    between atoms: C_16  and  C_18
REMARK    8  A    between atoms: C_27  and  O_28
REMARK                            x       y       z     vdW  Elec       q    Type
REMARK                         _______ _______ _______ _____ _____    ______ ____
ROOT
ATOM      1  N   UNL     1       3.633   0.471   6.202  0.00  0.00    -0.203 N 
ATOM      2  C   UNL     1       4.250  -0.143   7.231  0.00  0.00    +0.267 C 
ATOM      3  O   UNL     1       4.300  -1.358   7.273  0.00  0.00    -0.268 OA
ATOM      4  H   UNL     1       3.593   1.439   6.169  0.00  0.00    +0.178 HD
ENDROOT
BRANCH   2   5
ATOM      5  C   UNL     1       4.864   0.657   8.307  0.00  0.00    +0.080 A 
ATOM      6  C   UNL     1       4.800   2.041   8.258  0.00  0.00    +0.025 A 
ATOM      7  C   UNL     1       5.386   2.796   9.283  0.00  0.00    -0.017 A 
ATOM      8  C   UNL     1       5.339   4.202   9.266  0.00  0.00    +0.008 A 
ATOM      9  C   UNL     1       5.917   4.908  10.276  0.00  0.00    +0.001 A 
ATOM     10  C   UNL     1       6.557   4.259  11.330  0.00  0.00    +0.001 A 
ATOM     11  C   UNL     1       6.622   2.901  11.381  0.00  0.00    +0.008 A 
ATOM     12  C   UNL     1       6.037   2.135  10.357  0.00  0.00    -0.014 A 
ATOM     13  C   UNL     1       6.089   0.732  10.383  0.00  0.00    +0.054 A 
ATOM     14  C   UNL     1       5.509   0.010   9.382  0.00  0.00    +0.130 A 
BRANCH  14  15
ATOM     15  O   UNL     1       5.558  -1.346   9.418  0.00  0.00    -0.506 OA
ATOM     16  H   UNL     1       6.334  -1.724   8.980  0.00  0.00    +0.292 HD
ENDBRANCH  14  15
ENDBRANCH   2   5
BRANCH   1  18
ATOM     17  C   UNL     1       2.455   0.302   4.190  0.00  0.00    +0.138 C 
ATOM     18  N   UNL     1       3.049  -0.290   5.181  0.00  0.00    -0.187 NA
BRANCH  17  21
ATOM     19  C   UNL     1       0.626  -0.619   1.042  0.00  0.00    +0.164 A 
ATOM     20  C   UNL     1       1.200   0.137   2.048  0.00  0.00    +0.059 A 
ATOM     21  C   UNL     1       1.840  -0.498   3.115  0.00  0.00    +0.000 A 
ATOM     22  C   UNL     1       1.897  -1.894   3.161  0.00  0.00    +0.046 A 
ATOM     23  C   UNL     1       1.322  -2.640   2.154  0.00  0.00    +0.172 A 
ATOM     24  C   UNL     1       0.682  -2.010   1.097  0.00  0.00    +0.189 A 
BRANCH  23  25
ATOM     25  N   UNL     1       1.383  -4.119   2.204  0.00  0.00    +0.060 N 
ATOM     26  O   UNL     1       1.937  -4.670   3.127  0.00  0.00    -0.126 OA
ATOM     27  O   UNL     1       0.880  -4.775   1.323  0.00  0.00    -0.126 OA
ENDBRANCH  23  25
BRANCH  19  29
ATOM     28  C   UNL     1      -0.017   1.425   0.010  0.00  0.00    +0.277 C 
ATOM     29  O   UNL     1       0.002  -0.004   0.002  0.00  0.00    -0.491 OA
ENDBRANCH  19  29
BRANCH  24  30
ATOM     30  O   UNL     1       0.113  -2.751   0.110  0.00  0.00    -0.502 OA
ATOM     31  H   UNL     1       0.709  -2.952  -0.624  0.00  0.00    +0.292 HD
ENDBRANCH  24  30
ENDBRANCH  17  21
ENDBRANCH   1  18
TORSDOF 7
