REMARK  Name = ZINC22313524
REMARK  9 active torsions:
REMARK  status: ('A' for Active; 'I' for Inactive)
REMARK    1  A    between atoms: C_1  and  C_2
REMARK    2  A    between atoms: C_4  and  C_32
REMARK    3  A    between atoms: C_8  and  N_31
REMARK    4  A    between atoms: C_9  and  C_11
REMARK    5  A    between atoms: C_11  and  O_13
REMARK    6  A    between atoms: O_13  and  C_14
REMARK    7  A    between atoms: C_14  and  C_16
REMARK    8  A    between atoms: C_14  and  C_22
REMARK    9  A    between atoms: C_27  and  C_30
REMARK                            x       y       z     vdW  Elec       q    Type
REMARK                         _______ _______ _______ _____ _____    ______ ____
ROOT
ATOM      1  O   UNL     1      -1.113  -0.526  -1.343  0.00  0.00    -0.443 OA
ENDROOT
BRANCH   1   2
ATOM      2  C   UNL     1      -1.312  -1.854  -1.475  0.00  0.00    +0.349 C 
ATOM      3  O   UNL     1      -0.361  -2.602  -1.605  0.00  0.00    -0.244 OA
BRANCH   2  12
ATOM      4  C   UNL     1      -4.287  -6.507  -1.820  0.00  0.00    +0.044 C 
ATOM      5  C   UNL     1      -5.093  -5.246  -1.643  0.00  0.00    -0.037 A 
ATOM      6  C   UNL     1      -6.466  -5.298  -1.578  0.00  0.00    +0.025 A 
ATOM      7  C   UNL     1      -7.205  -4.136  -1.415  0.00  0.00    +0.014 A 
ATOM      8  N   UNL     1      -6.601  -2.967  -1.321  0.00  0.00    -0.353 N 
ATOM      9  C   UNL     1      -5.291  -2.865  -1.377  0.00  0.00    +0.088 A 
ATOM     10  C   UNL     1      -4.448  -3.988  -1.541  0.00  0.00    +0.030 A 
ATOM     11  C   UNL     1      -3.025  -3.691  -1.589  0.00  0.00    +0.055 A 
ATOM     12  C   UNL     1      -2.627  -2.377  -1.463  0.00  0.00    +0.119 A 
ATOM     13  S   UNL     1      -4.165  -1.495  -1.289  0.00  0.00    -0.062 S 
ATOM     14  C   UNL     1      -8.709  -4.209  -1.345  0.00  0.00    +0.063 C 
ATOM     15  H   UNL     1      -7.195  -2.050  -1.192  0.00  0.00    +0.166 HD
BRANCH  11  16
ATOM     16  N   UNL     1      -2.092  -4.704  -1.754  0.00  0.00    -0.356 N 
ATOM     17  H   UNL     1      -1.019  -4.464  -1.788  0.00  0.00    +0.142 HD
ATOM     18  H   UNL     1      -2.425  -5.748  -1.849  0.00  0.00    +0.142 HD
ENDBRANCH  11  16
ENDBRANCH   2  12
ENDBRANCH   1   2
BRANCH   1  19
ATOM     19  C   UNL     1       0.240  -0.067  -1.364  0.00  0.00    +0.292 C 
BRANCH  19  20
ATOM     20  C   UNL     1       0.289   1.327  -1.932  0.00  0.00    +0.264 C 
ATOM     21  O   UNL     1      -0.740   1.910  -2.200  0.00  0.00    -0.271 OA
ATOM     22  N   UNL     1       1.477   1.928  -2.143  0.00  0.00    -0.264 N 
ATOM     23  C   UNL     1       1.523   3.219  -2.669  0.00  0.00    +0.168 A 
ATOM     24  C   UNL     1       0.416   4.031  -3.032  0.00  0.00    +0.091 A 
ATOM     25  C   UNL     1       0.983   5.174  -3.482  0.00  0.00    +0.136 A 
ATOM     26  O   UNL     1       2.309   5.010  -3.376  0.00  0.00    -0.358 OA
ATOM     27  N   UNL     1       2.593   3.927  -2.920  0.00  0.00    -0.063 NA
ATOM     28  C   UNL     1       0.264   6.393  -4.000  0.00  0.00    +0.089 C 
ATOM     29  H   UNL     1       2.411   1.400  -1.900  0.00  0.00    +0.156 HD
ENDBRANCH  19  20
BRANCH  19  30
ATOM     30  C   UNL     1       0.789  -0.058   0.040  0.00  0.00    +0.002 A 
ATOM     31  C   UNL     1      -0.034   0.267   1.101  0.00  0.00    +0.008 A 
ATOM     32  C   UNL     1       0.468   0.272   2.389  0.00  0.00    +0.000 A 
ATOM     33  C   UNL     1       1.796  -0.040   2.614  0.00  0.00    +0.000 A 
ATOM     34  C   UNL     1       2.621  -0.359   1.552  0.00  0.00    +0.000 A 
ATOM     35  C   UNL     1       2.117  -0.368   0.264  0.00  0.00    +0.008 A 
ENDBRANCH  19  30
ENDBRANCH   1  19
TORSDOF 6
