REMARK  Name = ZINC67102310
REMARK  6 active torsions:
REMARK  status: ('A' for Active; 'I' for Inactive)
REMARK    1  A    between atoms: C_1  and  C_2
REMARK    2  A    between atoms: C_6  and  C_7
REMARK    3  A    between atoms: N_9  and  N_10
REMARK    4  A    between atoms: N_13  and  C_14
REMARK    5  A    between atoms: C_18  and  C_25
REMARK    6  A    between atoms: C_18  and  C_26
REMARK                            x       y       z     vdW  Elec       q    Type
REMARK                         _______ _______ _______ _____ _____    ______ ____
ROOT
ATOM      1  N   UNL     1       0.058  -0.732   4.900  0.00  0.00    -0.218 N 
ATOM      2  C   UNL     1       0.080  -1.625   5.909  0.00  0.00    +0.316 C 
ATOM      3  O   UNL     1       0.086  -1.239   7.062  0.00  0.00    -0.251 OA
ATOM      4  N   UNL     1       0.096  -2.945   5.640  0.00  0.00    -0.291 N 
ATOM      5  H   UNL     1       0.047   0.219   5.094  0.00  0.00    +0.174 HD
ATOM      6  H   UNL     1       0.091  -3.253   4.720  0.00  0.00    +0.151 HD
ENDROOT
BRANCH   4   7
ATOM      7  C   UNL     1       0.119  -3.916   6.737  0.00  0.00    +0.105 C 
ATOM      8  C   UNL     1       0.754  -5.216   6.246  0.00  0.00    +0.028 C 
ATOM      9  C   UNL     1       0.573  -6.283   7.332  0.00  0.00    +0.013 C 
ATOM     10  C   UNL     1      -0.907  -6.655   7.399  0.00  0.00    -0.009 C 
ATOM     11  C   UNL     1      -1.759  -5.418   7.522  0.00  0.00    -0.037 A 
ATOM     12  C   UNL     1      -1.289  -4.162   7.213  0.00  0.00    -0.023 A 
ATOM     13  C   UNL     1      -2.129  -3.064   7.341  0.00  0.00    +0.006 A 
ATOM     14  C   UNL     1      -3.428  -3.222   7.777  0.00  0.00    +0.000 A 
ATOM     15  C   UNL     1      -3.898  -4.484   8.090  0.00  0.00    +0.000 A 
ATOM     16  C   UNL     1      -3.066  -5.575   7.963  0.00  0.00    +0.004 A 
ATOM     17  C   UNL     1      -1.146  -7.554   8.614  0.00  0.00    +0.016 C 
ATOM     18  C   UNL     1      -1.296  -7.411   6.128  0.00  0.00    +0.016 C 
ENDBRANCH   4   7
BRANCH   1  21
ATOM     19  C   UNL     1       0.030  -0.283   2.562  0.00  0.00    +0.267 C 
ATOM     20  O   UNL     1       0.016   0.910   2.805  0.00  0.00    -0.268 OA
ATOM     21  N   UNL     1       0.052  -1.176   3.571  0.00  0.00    -0.229 N 
ATOM     22  H   UNL     1       0.063  -2.126   3.378  0.00  0.00    +0.173 HD
BRANCH  19  28
ATOM     23  C   UNL     1      -0.018   1.503   0.010  0.00  0.00    +0.045 C 
ATOM     24  C   UNL     1       0.002  -0.004   0.002  0.00  0.00    -0.031 A 
ATOM     25  C   UNL     1       0.007  -0.729  -1.166  0.00  0.00    +0.011 A 
ATOM     26  C   UNL     1       0.026  -2.083  -1.101  0.00  0.00    +0.046 A 
ATOM     27  S   UNL     1       0.038  -2.416   0.545  0.00  0.00    -0.092 S 
ATOM     28  C   UNL     1       0.023  -0.748   1.172  0.00  0.00    +0.078 A 
ENDBRANCH  19  28
ENDBRANCH   1  21
TORSDOF 3
