REMARK  Name = ZINC40317736
REMARK  12 active torsions:
REMARK  status: ('A' for Active; 'I' for Inactive)
REMARK    1  A    between atoms: C_1  and  C_2
REMARK    2  A    between atoms: C_4  and  C_36
REMARK    3  A    between atoms: C_6  and  O_8
REMARK    4  A    between atoms: O_8  and  C_9
REMARK    5  A    between atoms: C_9  and  C_10
REMARK    6  A    between atoms: C_10  and  C_12
REMARK    7  A    between atoms: C_10  and  O_35
REMARK    8  A    between atoms: C_12  and  N_13
REMARK    9  A    between atoms: N_13  and  C_14
REMARK   10  A    between atoms: N_13  and  C_27
REMARK   11  A    between atoms: C_14  and  C_15
REMARK   12  A    between atoms: C_18  and  C_20
REMARK                            x       y       z     vdW  Elec       q    Type
REMARK                         _______ _______ _______ _____ _____    ______ ____
ROOT
ATOM      1  N   UNL     1       0.561  -3.064   7.094  0.00  0.00    +0.389 N 
ATOM      2  H   UNL     1       1.202  -3.611   7.649  0.00  0.00    -0.081 HD
ENDROOT
BRANCH   1   3
ATOM      3  C   UNL     1      -0.529  -3.923   6.614  0.00  0.00    -0.045 C 
ATOM      4  C   UNL     1      -1.753  -3.061   6.261  0.00  0.00    +0.009 C 
ATOM      5  C   UNL     1      -2.995  -3.963   6.065  0.00  0.00    +0.164 C 
ATOM      6  S   UNL     1      -2.624  -5.402   7.148  0.00  0.00    -0.033 S 
ATOM      7  O   UNL     1      -2.516  -6.569   6.345  0.00  0.00    -0.174 OA
ATOM      8  O   UNL     1      -3.520  -5.393   8.251  0.00  0.00    -0.174 OA
ATOM      9  C   UNL     1      -0.946  -4.919   7.734  0.00  0.00    +0.151 C 
ENDBRANCH   1   3
BRANCH   1  10
ATOM     10  C   UNL     1       1.276  -2.491   5.946  0.00  0.00    -0.043 C 
BRANCH  10  11
ATOM     11  C   UNL     1       2.080  -3.588   5.247  0.00  0.00    +0.135 C 
BRANCH  11  12
ATOM     12  O   UNL     1       1.187  -4.491   4.592  0.00  0.00    -0.390 OA
ATOM     13  H   UNL     1       0.685  -4.092   3.868  0.00  0.00    +0.210 HD
ENDBRANCH  11  12
BRANCH  11  14
ATOM     14  C   UNL     1       3.014  -2.956   4.213  0.00  0.00    +0.258 C 
BRANCH  14  15
ATOM     15  O   UNL     1       3.848  -3.967   3.643  0.00  0.00    -0.489 OA
BRANCH  15  21
ATOM     16  C   UNL     1       5.806  -0.383   0.969  0.00  0.00    +0.044 C 
ATOM     17  C   UNL     1       5.725  -1.834   1.371  0.00  0.00    -0.047 A 
ATOM     18  C   UNL     1       6.562  -2.761   0.779  0.00  0.00    +0.007 A 
ATOM     19  C   UNL     1       6.491  -4.093   1.146  0.00  0.00    -0.047 A 
ATOM     20  C   UNL     1       5.583  -4.499   2.104  0.00  0.00    +0.049 A 
ATOM     21  C   UNL     1       4.742  -3.570   2.699  0.00  0.00    +0.121 A 
ATOM     22  C   UNL     1       4.819  -2.234   2.334  0.00  0.00    +0.049 A 
ATOM     23  C   UNL     1       7.405  -5.102   0.499  0.00  0.00    +0.044 C 
ENDBRANCH  15  21
ENDBRANCH  14  15
ENDBRANCH  11  14
ENDBRANCH  10  11
ENDBRANCH   1  10
BRANCH   1  24
ATOM     24  C   UNL     1       0.005  -1.980   7.915  0.00  0.00    -0.003 C 
BRANCH  24  25
ATOM     25  C   UNL     1      -0.605  -2.559   9.165  0.00  0.00    +0.089 A 
ATOM     26  C   UNL     1       0.063  -2.878  10.290  0.00  0.00    +0.043 A 
ATOM     27  C   UNL     1      -0.884  -3.384  11.204  0.00  0.00    +0.050 A 
ATOM     28  C   UNL     1      -2.091  -3.344  10.579  0.00  0.00    +0.135 A 
ATOM     29  O   UNL     1      -1.907  -2.837   9.345  0.00  0.00    -0.462 OA
BRANCH  28  30
ATOM     30  C   UNL     1      -3.381  -3.778  11.155  0.00  0.00    +0.019 A 
ATOM     31  C   UNL     1      -3.446  -4.208  12.482  0.00  0.00    +0.011 A 
ATOM     32  C   UNL     1      -4.653  -4.612  13.014  0.00  0.00    +0.002 A 
ATOM     33  C   UNL     1      -5.797  -4.592  12.236  0.00  0.00    +0.020 A 
ATOM     34  C   UNL     1      -5.739  -4.168  10.919  0.00  0.00    +0.042 A 
ATOM     35  C   UNL     1      -4.539  -3.755  10.377  0.00  0.00    +0.031 A 
ATOM     36 CL   UNL     1      -7.181  -4.148   9.952  0.00  0.00    -0.084 Cl
ENDBRANCH  28  30
ENDBRANCH  24  25
ENDBRANCH   1  24
TORSDOF 10
