REMARK  Name = ZINC67238003
REMARK  11 active torsions:
REMARK  status: ('A' for Active; 'I' for Inactive)
REMARK    1  A    between atoms: C_1  and  C_2
REMARK    2  A    between atoms: C_2  and  C_3
REMARK    3  A    between atoms: C_10  and  C_12
REMARK    4  A    between atoms: C_12  and  S_13
REMARK    5  A    between atoms: S_13  and  C_14
REMARK    6  A    between atoms: C_18  and  C_30
REMARK    7  A    between atoms: N_24  and  C_25
REMARK    8  A    between atoms: C_25  and  C_26
REMARK    9  A    between atoms: C_26  and  C_27
REMARK   10  A    between atoms: C_27  and  C_28
REMARK   11  A    between atoms: C_27  and  C_29
REMARK                            x       y       z     vdW  Elec       q    Type
REMARK                         _______ _______ _______ _____ _____    ______ ____
ROOT
ATOM      1  C   UNL     1       6.132   2.336   1.199  0.00  0.00    +0.173 A 
ATOM      2  N   UNL     1       6.830   1.810   0.220  0.00  0.00    -0.222 NA
ATOM      3  C   UNL     1       8.150   2.055   0.101  0.00  0.00    +0.097 A 
ATOM      4  C   UNL     1       9.142   1.646  -0.818  0.00  0.00    +0.051 A 
ATOM      5  C   UNL     1      10.310   2.206  -0.443  0.00  0.00    +0.016 A 
ATOM      6  N   UNL     1      10.115   2.957   0.676  0.00  0.00    -0.353 N 
ATOM      7  H   UNL     1      10.799   3.462   1.143  0.00  0.00    +0.166 HD
ATOM      8  C   UNL     1       8.786   2.881   1.035  0.00  0.00    +0.131 A 
ATOM      9  C   UNL     1       8.022   3.436   2.078  0.00  0.00    +0.279 A 
ATOM     10  O   UNL     1       8.539   4.161   2.912  0.00  0.00    -0.265 OA
ATOM     11  N   UNL     1       6.702   3.152   2.132  0.00  0.00    -0.286 N 
ATOM     12  C   UNL     1      11.627   2.027  -1.153  0.00  0.00    +0.063 C 
ENDROOT
BRANCH   1  13
ATOM     13  S   UNL     1       4.409   1.983   1.308  0.00  0.00    -0.078 S 
BRANCH  13  14
ATOM     14  C   UNL     1       4.096   0.886  -0.103  0.00  0.00    +0.173 C 
BRANCH  14  21
ATOM     15  C   UNL     1       0.735  -0.599  -1.203  0.00  0.00    +0.076 C 
ATOM     16  C   UNL     1       0.532  -2.118  -1.211  0.00  0.00    +0.022 C 
ATOM     17  C   UNL     1       1.382  -2.736  -2.323  0.00  0.00    +0.003 C 
ATOM     18  C   UNL     1       2.862  -2.448  -2.057  0.00  0.00    +0.019 C 
ATOM     19  C   UNL     1       3.091  -0.934  -2.058  0.00  0.00    +0.108 C 
ATOM     20  N   UNL     1       2.172  -0.312  -1.095  0.00  0.00    -0.298 N 
ATOM     21  C   UNL     1       2.638   0.503  -0.128  0.00  0.00    +0.226 C 
ATOM     22  O   UNL     1       1.885   0.928   0.722  0.00  0.00    -0.275 OA
BRANCH  15  24
ATOM     23  C   UNL     1      -1.497  -0.289  -0.125  0.00  0.00    +0.006 C 
ATOM     24  C   UNL     1      -0.001   0.011  -0.009  0.00  0.00    +0.019 C 
ENDBRANCH  15  24
ENDBRANCH  14  21
ENDBRANCH  13  14
ENDBRANCH   1  13
BRANCH  11  25
ATOM     25  C   UNL     1       5.879   3.720   3.203  0.00  0.00    +0.128 C 
BRANCH  25  26
ATOM     26  C   UNL     1       5.879   2.772   4.404  0.00  0.00    +0.025 C 
BRANCH  26  27
ATOM     27  C   UNL     1       5.019   3.365   5.522  0.00  0.00    -0.016 C 
ATOM     28  C   UNL     1       4.917   2.362   6.673  0.00  0.00    +0.007 C 
ATOM     29  C   UNL     1       5.662   4.658   6.028  0.00  0.00    +0.007 C 
ENDBRANCH  26  27
ENDBRANCH  25  26
ENDBRANCH  11  25
TORSDOF 7
