REMARK  Name = ZINC13283457
REMARK  5 active torsions:
REMARK  status: ('A' for Active; 'I' for Inactive)
REMARK    1  A    between atoms: C_3  and  C_7
REMARK    2  A    between atoms: C_8  and  C_9
REMARK    3  A    between atoms: C_10  and  C_11
REMARK    4  A    between atoms: C_12  and  C_19
REMARK    5  A    between atoms: C_13  and  N_18
REMARK                            x       y       z     vdW  Elec       q    Type
REMARK                         _______ _______ _______ _____ _____    ______ ____
ROOT
ATOM      1  C   UNL     1       3.374   1.167   1.071  0.00  0.00    +0.078 A 
ATOM      2  C   UNL     1       2.479   1.072  -0.015  0.00  0.00    +0.047 A 
ATOM      3  C   UNL     1       2.854   0.281  -1.114  0.00  0.00    +0.130 A 
ATOM      4  N   UNL     1       4.025  -0.346  -1.087  0.00  0.00    -0.199 NA
ATOM      5  C   UNL     1       4.837  -0.236  -0.044  0.00  0.00    +0.215 A 
ATOM      6  N   UNL     1       4.529   0.495   1.013  0.00  0.00    -0.215 NA
ATOM      7  N   UNL     1       6.045  -0.910  -0.063  0.00  0.00    -0.327 N 
ATOM      8  H   UNL     1       6.286  -1.452  -0.831  0.00  0.00    +0.145 HD
ATOM      9  H   UNL     1       6.651  -0.841   0.691  0.00  0.00    +0.145 HD
ENDROOT
BRANCH   2  10
ATOM     10  C   UNL     1       1.186   1.791   0.000  0.00  0.00    -0.011 A 
ATOM     11  C   UNL     1      -0.013   1.076   0.008  0.00  0.00    +0.010 A 
ATOM     12  C   UNL     1      -1.216   1.750   0.017  0.00  0.00    +0.022 A 
ATOM     13  C   UNL     1      -1.237   3.135   0.030  0.00  0.00    +0.059 A 
ATOM     14  C   UNL     1      -0.050   3.851   0.022  0.00  0.00    +0.060 A 
ATOM     15  C   UNL     1       1.160   3.186   0.008  0.00  0.00    +0.030 A 
ATOM     16 CL   UNL     1      -0.086   5.586   0.031  0.00  0.00    -0.082 Cl
ATOM     17 CL   UNL     1      -2.755   3.977   0.048  0.00  0.00    -0.082 Cl
ENDBRANCH   2  10
BRANCH   3  18
ATOM     18  N   UNL     1       2.017   0.158  -2.209  0.00  0.00    -0.343 N 
ATOM     19  H   UNL     1       1.164   0.620  -2.221  0.00  0.00    +0.144 HD
ATOM     20  H   UNL     1       2.283  -0.390  -2.964  0.00  0.00    +0.144 HD
ENDBRANCH   3  18
BRANCH   1  22
ATOM     21  C   UNL     1       3.909   2.063   3.279  0.00  0.00    +0.002 C 
ATOM     22  C   UNL     1       3.041   1.982   2.244  0.00  0.00    +0.028 C 
BRANCH  21  24
ATOM     23  C   UNL     1       4.454   2.931   5.444  0.00  0.00    +0.009 C 
ATOM     24  C   UNL     1       3.588   2.849   4.411  0.00  0.00    +0.001 C 
BRANCH  23  27
ATOM     25  C   UNL     1       4.648   4.623   8.783  0.00  0.00    +0.020 A 
ATOM     26  C   UNL     1       5.010   3.842   7.701  0.00  0.00    +0.011 A 
ATOM     27  C   UNL     1       4.120   3.748   6.621  0.00  0.00    -0.007 A 
ATOM     28  C   UNL     1       2.912   4.450   6.680  0.00  0.00    +0.118 A 
ATOM     29  N   UNL     1       2.612   5.177   7.737  0.00  0.00    -0.263 NA
ATOM     30  C   UNL     1       3.431   5.282   8.766  0.00  0.00    +0.111 A 
ENDBRANCH  23  27
ENDBRANCH  21  24
ENDBRANCH   1  22
TORSDOF 5
