REMARK  Name = ZINC35356135
REMARK  13 active torsions:
REMARK  status: ('A' for Active; 'I' for Inactive)
REMARK    1  A    between atoms: C_1  and  C_2
REMARK    2  A    between atoms: C_2  and  C_3
REMARK    3  A    between atoms: C_6  and  N_9
REMARK    4  A    between atoms: N_12  and  C_13
REMARK    5  A    between atoms: N_12  and  C_34
REMARK    6  A    between atoms: C_13  and  C_14
REMARK    7  A    between atoms: N_16  and  C_17
REMARK    8  A    between atoms: N_16  and  C_27
REMARK    9  A    between atoms: C_17  and  C_18
REMARK   10  A    between atoms: C_27  and  C_28
REMARK   11  A    between atoms: C_31  and  C_33
REMARK   12  A    between atoms: C_34  and  C_35
REMARK   13  A    between atoms: C_34  and  C_36
REMARK                            x       y       z     vdW  Elec       q    Type
REMARK                         _______ _______ _______ _____ _____    ______ ____
ROOT
ATOM      1  C   UNL     1      -7.852  -4.180  -2.733  0.00  0.00    +0.234 C 
ATOM      2  O   UNL     1      -7.221  -4.930  -2.019  0.00  0.00    -0.274 OA
ATOM      3  N   UNL     1      -8.424  -4.645  -3.861  0.00  0.00    -0.289 N 
ENDROOT
BRANCH   1   4
ATOM      4  C   UNL     1      -7.998  -2.728  -2.357  0.00  0.00    +0.205 C 
BRANCH   4   8
ATOM      5  N   UNL     1      -5.304  -2.025   0.039  0.00  0.00    -0.269 N 
ATOM      6  C   UNL     1      -5.996  -2.107  -1.115  0.00  0.00    +0.307 C 
ATOM      7  O   UNL     1      -5.451  -1.850  -2.171  0.00  0.00    -0.252 OA
ATOM      8  N   UNL     1      -7.293  -2.475  -1.099  0.00  0.00    -0.274 N 
ATOM      9  H   UNL     1      -5.695  -2.355   0.863  0.00  0.00    +0.156 HD
BRANCH   5  13
ATOM     10  C   UNL     1      -1.490  -0.349   0.065  0.00  0.00    -0.048 A 
ATOM     11  C   UNL     1      -2.236  -0.385   1.229  0.00  0.00    +0.005 A 
ATOM     12  C   UNL     1      -3.501  -0.940   1.224  0.00  0.00    +0.023 A 
ATOM     13  C   UNL     1      -4.023  -1.462   0.048  0.00  0.00    +0.035 A 
ATOM     14  C   UNL     1      -3.272  -1.424  -1.120  0.00  0.00    +0.023 A 
ATOM     15  C   UNL     1      -2.010  -0.863  -1.109  0.00  0.00    +0.005 A 
BRANCH  10  17
ATOM     16  C   UNL     1      -0.207   1.752  -0.236  0.00  0.00    +0.009 C 
ATOM     17  C   UNL     1      -0.110   0.257   0.075  0.00  0.00    +0.032 C 
ENDBRANCH  10  17
ENDBRANCH   5  13
BRANCH   8  18
ATOM     18  C   UNL     1      -7.996  -2.623   0.178  0.00  0.00    +0.072 C 
ATOM     19  C   UNL     1      -9.108  -1.576   0.271  0.00  0.00    +0.028 C 
ATOM     20  C   UNL     1      -8.605  -4.024   0.266  0.00  0.00    +0.028 C 
ENDBRANCH   8  18
ENDBRANCH   4   8
ENDBRANCH   1   4
BRANCH   3  21
ATOM     21  C   UNL     1      -8.281  -6.056  -4.226  0.00  0.00    +0.143 C 
BRANCH  21  22
ATOM     22  C   UNL     1      -9.416  -6.847  -3.627  0.00  0.00    -0.026 A 
ATOM     23  C   UNL     1      -9.284  -7.393  -2.364  0.00  0.00    +0.009 A 
ATOM     24  C   UNL     1     -10.321  -8.119  -1.809  0.00  0.00    +0.050 A 
ATOM     25  C   UNL     1     -11.497  -8.301  -2.519  0.00  0.00    +0.166 A 
ATOM     26  C   UNL     1     -11.630  -7.750  -3.792  0.00  0.00    +0.167 A 
ATOM     27  C   UNL     1     -10.588  -7.020  -4.339  0.00  0.00    +0.054 A 
ATOM     28  O   UNL     1     -12.866  -8.067  -4.277  0.00  0.00    -0.453 OA
ATOM     29  C   UNL     1     -13.332  -9.157  -3.459  0.00  0.00    +0.466 C 
ATOM     30  O   UNL     1     -12.650  -8.962  -2.207  0.00  0.00    -0.453 OA
ENDBRANCH  21  22
ENDBRANCH   3  21
BRANCH   3  31
ATOM     31  C   UNL     1      -9.186  -3.739  -4.723  0.00  0.00    +0.182 C 
BRANCH  31  32
ATOM     32  C   UNL     1      -8.265  -3.121  -5.744  0.00  0.00    +0.122 A 
ATOM     33  C   UNL     1      -7.994  -3.621  -6.963  0.00  0.00    +0.046 A 
ATOM     34  C   UNL     1      -7.088  -2.728  -7.580  0.00  0.00    +0.045 A 
ATOM     35  C   UNL     1      -6.860  -1.736  -6.700  0.00  0.00    +0.102 A 
ATOM     36  O   UNL     1      -7.580  -1.976  -5.592  0.00  0.00    -0.463 OA
ATOM     37  C   UNL     1      -5.954  -0.552  -6.923  0.00  0.00    +0.086 C 
ENDBRANCH  31  32
ENDBRANCH   3  31
TORSDOF 9
