REMARK  Name = ZINC10058527
REMARK  14 active torsions:
REMARK  status: ('A' for Active; 'I' for Inactive)
REMARK    1  A    between atoms: C_1  and  C_2
REMARK    2  A    between atoms: C_2  and  C_3
REMARK    3  A    between atoms: C_3  and  C_5
REMARK    4  A    between atoms: C_3  and  C_6
REMARK    5  A    between atoms: C_11  and  N_12
REMARK    6  A    between atoms: C_13  and  C_15
REMARK    7  A    between atoms: C_15  and  C_17
REMARK    8  A    between atoms: C_15  and  S_18
REMARK    9  A    between atoms: S_18  and  C_19
REMARK   10  A    between atoms: N_32  and  C_33
REMARK   11  A    between atoms: C_33  and  C_34
REMARK   12  A    between atoms: C_34  and  C_35
REMARK   13  A    between atoms: C_35  and  C_36
REMARK   14  A    between atoms: C_35  and  C_37
REMARK                            x       y       z     vdW  Elec       q    Type
REMARK                         _______ _______ _______ _____ _____    ______ ____
ROOT
ATOM      1  C   UNL     1       1.269   1.813  -0.032  0.00  0.00    +0.198 A 
ATOM      2  N   UNL     1       2.051   0.761  -0.052  0.00  0.00    -0.120 NA
ATOM      3  N   UNL     1       1.242  -0.381  -0.060  0.00  0.00    -0.109 NA
ATOM      4  C   UNL     1      -0.014   0.007  -0.045  0.00  0.00    +0.240 A 
ATOM      5  N   UNL     1      -0.028   1.375  -0.026  0.00  0.00    -0.256 N 
ATOM      6  C   UNL     1      -1.235   2.071  -0.012  0.00  0.00    +0.064 A 
ATOM      7  C   UNL     1      -1.261   3.457   0.011  0.00  0.00    +0.027 A 
ATOM      8  C   UNL     1      -2.471   4.121   0.029  0.00  0.00    +0.002 A 
ATOM      9  C   UNL     1      -3.664   3.415   0.029  0.00  0.00    +0.001 A 
ATOM     10  C   UNL     1      -3.657   2.036   0.012  0.00  0.00    +0.015 A 
ATOM     11  C   UNL     1      -2.442   1.354  -0.006  0.00  0.00    +0.064 A 
ATOM     12  C   UNL     1      -2.391  -0.120  -0.026  0.00  0.00    +0.263 A 
ATOM     13  O   UNL     1      -3.417  -0.774  -0.026  0.00  0.00    -0.267 OA
ATOM     14  N   UNL     1      -1.189  -0.729  -0.045  0.00  0.00    -0.277 N 
ENDROOT
BRANCH   1  15
ATOM     15  S   UNL     1       1.794   3.495  -0.015  0.00  0.00    -0.073 S 
BRANCH  15  16
ATOM     16  C   UNL     1       3.605   3.389  -0.031  0.00  0.00    +0.137 C 
ATOM     17  C   UNL     1       4.090   2.734   1.264  0.00  0.00    +0.029 C 
BRANCH  16  19
ATOM     18  N   UNL     1       5.418   4.947  -0.666  0.00  0.00    -0.284 N 
ATOM     19  C   UNL     1       4.189   4.774  -0.142  0.00  0.00    +0.230 C 
ATOM     20  O   UNL     1       3.552   5.732   0.240  0.00  0.00    -0.274 OA
ATOM     21  H   UNL     1       5.960   4.176  -0.898  0.00  0.00    +0.155 HD
BRANCH  18  27
ATOM     22  C   UNL     1       7.284   6.462  -0.904  0.00  0.00    -0.023 A 
ATOM     23  C   UNL     1       7.770   7.738  -1.116  0.00  0.00    +0.006 A 
ATOM     24  C   UNL     1       6.893   8.793  -1.290  0.00  0.00    +0.000 A 
ATOM     25  C   UNL     1       5.528   8.574  -1.257  0.00  0.00    +0.002 A 
ATOM     26  C   UNL     1       5.036   7.301  -1.050  0.00  0.00    +0.023 A 
ATOM     27  C   UNL     1       5.914   6.239  -0.876  0.00  0.00    +0.037 A 
BRANCH  22  28
ATOM     28  C   UNL     1       8.240   5.314  -0.708  0.00  0.00    +0.017 C 
ATOM     29  C   UNL     1       9.027   5.521   0.587  0.00  0.00    +0.012 C 
BRANCH  28  31
ATOM     30  C   UNL     1      10.098   4.012  -1.754  0.00  0.00    +0.004 C 
ATOM     31  C   UNL     1       9.209   5.250  -1.890  0.00  0.00    +0.004 C 
ENDBRANCH  28  31
ENDBRANCH  22  28
ENDBRANCH  18  27
ENDBRANCH  16  19
ENDBRANCH  15  16
ENDBRANCH   1  15
BRANCH  14  32
ATOM     32  C   UNL     1      -1.122  -2.193  -0.064  0.00  0.00    +0.128 C 
BRANCH  32  33
ATOM     33  C   UNL     1      -1.087  -2.721   1.371  0.00  0.00    +0.025 C 
BRANCH  33  34
ATOM     34  C   UNL     1      -1.018  -4.249   1.351  0.00  0.00    -0.016 C 
ATOM     35  C   UNL     1       0.306  -4.691   0.725  0.00  0.00    +0.007 C 
ATOM     36  C   UNL     1      -1.109  -4.783   2.782  0.00  0.00    +0.007 C 
ENDBRANCH  33  34
ENDBRANCH  32  33
ENDBRANCH  14  32
TORSDOF 9
