REMARK  Name = ZINC11319428
REMARK  11 active torsions:
REMARK  status: ('A' for Active; 'I' for Inactive)
REMARK    1  A    between atoms: C_1  and  C_2
REMARK    2  A    between atoms: C_5  and  C_8
REMARK    3  A    between atoms: C_8  and  N_9
REMARK    4  A    between atoms: C_10  and  C_34
REMARK    5  A    between atoms: C_11  and  C_15
REMARK    6  A    between atoms: C_12  and  C_14
REMARK    7  A    between atoms: C_16  and  C_17
REMARK    8  A    between atoms: C_17  and  O_19
REMARK    9  A    between atoms: O_19  and  C_20
REMARK   10  A    between atoms: C_20  and  C_21
REMARK   11  A    between atoms: N_23  and  C_24
REMARK                            x       y       z     vdW  Elec       q    Type
REMARK                         _______ _______ _______ _____ _____    ______ ____
ROOT
ATOM      1  C   UNL     1       5.790  -4.948   0.320  0.00  0.00    +0.332 C 
ATOM      2  O   UNL     1       6.908  -4.468   0.323  0.00  0.00    -0.246 OA
ENDROOT
BRANCH   1   4
ATOM      3  C   UNL     1       6.705  -7.156   0.502  0.00  0.00    +0.018 C 
ATOM      4  C   UNL     1       5.623  -6.351   0.412  0.00  0.00    +0.092 C 
BRANCH   3   7
ATOM      5  N   UNL     1       6.731 -10.770   0.236  0.00  0.00    -0.263 N 
ATOM      6  C   UNL     1       7.172  -9.568  -0.171  0.00  0.00    +0.044 A 
ATOM      7  C   UNL     1       6.532  -8.612   0.598  0.00  0.00    +0.018 A 
ATOM      8  C   UNL     1       5.683  -9.300   1.496  0.00  0.00    +0.067 A 
ATOM      9  N   UNL     1       5.806 -10.579   1.268  0.00  0.00    -0.175 NA
ATOM     10  C   UNL     1       4.791  -8.667   2.533  0.00  0.00    +0.068 C 
ATOM     11  C   UNL     1       8.178  -9.309  -1.262  0.00  0.00    +0.066 C 
BRANCH   5  12
ATOM     12  C   UNL     1       7.148 -12.064  -0.310  0.00  0.00    +0.178 C 
BRANCH  12  17
ATOM     13  C   UNL     1      11.729 -14.008   2.628  0.00  0.00    +0.044 C 
ATOM     14  C   UNL     1      10.534 -13.501   1.862  0.00  0.00    -0.050 A 
ATOM     15  C   UNL     1       9.257 -13.828   2.278  0.00  0.00    +0.004 A 
ATOM     16  C   UNL     1       8.161 -13.363   1.575  0.00  0.00    +0.006 A 
ATOM     17  C   UNL     1       8.342 -12.571   0.457  0.00  0.00    -0.026 A 
ATOM     18  C   UNL     1       9.620 -12.249   0.037  0.00  0.00    +0.006 A 
ATOM     19  C   UNL     1      10.716 -12.711   0.742  0.00  0.00    +0.004 A 
ENDBRANCH  12  17
ENDBRANCH   5  12
ENDBRANCH   3   7
ENDBRANCH   1   4
BRANCH   1  20
ATOM     20  O   UNL     1       4.710  -4.145   0.230  0.00  0.00    -0.452 OA
BRANCH  20  21
ATOM     21  C   UNL     1       4.953  -2.739   0.140  0.00  0.00    +0.328 C 
BRANCH  21  22
ATOM     22  C   UNL     1       3.639  -2.007   0.048  0.00  0.00    +0.255 C 
ATOM     23  O   UNL     1       2.597  -2.628   0.057  0.00  0.00    -0.272 OA
ATOM     24  N   UNL     1       3.621  -0.663  -0.046  0.00  0.00    -0.283 N 
ATOM     25  H   UNL     1       4.453  -0.172  -0.131  0.00  0.00    +0.155 HD
BRANCH  24  26
ATOM     26  C   UNL     1       2.401   0.025  -0.021  0.00  0.00    +0.037 A 
ATOM     27  C   UNL     1       1.346  -0.460   0.740  0.00  0.00    +0.027 A 
ATOM     28  C   UNL     1       0.142   0.217   0.764  0.00  0.00    +0.051 A 
ATOM     29  C   UNL     1      -0.016   1.384   0.030  0.00  0.00    +0.162 A 
ATOM     30  C   UNL     1       1.040   1.873  -0.730  0.00  0.00    +0.164 A 
ATOM     31  C   UNL     1       2.247   1.192  -0.756  0.00  0.00    +0.072 A 
ATOM     32  O   UNL     1       0.906   3.021  -1.451  0.00  0.00    -0.485 OA
ATOM     33  C   UNL     1      -0.429   3.473  -1.699  0.00  0.00    +0.270 C 
ATOM     34  C   UNL     1      -1.216   3.395  -0.384  0.00  0.00    +0.270 C 
ATOM     35  O   UNL     1      -1.213   2.033   0.059  0.00  0.00    -0.485 OA
ENDBRANCH  24  26
ENDBRANCH  21  22
ENDBRANCH  20  21
ENDBRANCH   1  20
TORSDOF 8
