REMARK  Name = ZINC16604684
REMARK  11 active torsions:
REMARK  status: ('A' for Active; 'I' for Inactive)
REMARK    1  A    between atoms: C_1  and  C_2
REMARK    2  A    between atoms: C_2  and  C_3
REMARK    3  A    between atoms: C_3  and  C_4
REMARK    4  A    between atoms: C_4  and  C_5
REMARK    5  A    between atoms: C_5  and  C_6
REMARK    6  A    between atoms: C_13  and  C_15
REMARK    7  A    between atoms: C_20  and  S_22
REMARK    8  A    between atoms: S_22  and  C_23
REMARK    9  A    between atoms: C_23  and  C_24
REMARK   10  A    between atoms: N_26  and  C_27
REMARK   11  A    between atoms: C_27  and  C_28
REMARK                            x       y       z     vdW  Elec       q    Type
REMARK                         _______ _______ _______ _____ _____    ______ ____
ROOT
ATOM      1  C   UNL     1       2.279  -8.629  -7.697  0.00  0.00    +0.216 C 
ATOM      2  O   UNL     1       2.868  -7.972  -8.530  0.00  0.00    -0.276 OA
ATOM      3  N   UNL     1       2.585  -8.494  -6.392  0.00  0.00    -0.296 N 
ATOM      4  C   UNL     1       1.815  -9.203  -5.359  0.00  0.00    +0.127 C 
ATOM      5  C   UNL     1       1.378  -8.189  -4.296  0.00  0.00    +0.125 C 
ATOM      6  N   UNL     1       2.555  -7.462  -3.804  0.00  0.00    -0.312 N 
ATOM      7  C   UNL     1       3.187  -6.681  -4.877  0.00  0.00    +0.128 C 
ATOM      8  C   UNL     1       3.698  -7.634  -5.963  0.00  0.00    +0.090 C 
ATOM      9  C   UNL     1       4.212  -6.824  -7.155  0.00  0.00    +0.029 C 
ATOM     10  C   UNL     1       2.225  -6.652  -2.729  0.00  0.00    +0.127 A 
ATOM     11  C   UNL     1       1.619  -7.193  -1.594  0.00  0.00    +0.083 A 
ATOM     12  C   UNL     1       1.308  -6.347  -0.545  0.00  0.00    +0.135 A 
ATOM     13  N   UNL     1       1.591  -5.056  -0.648  0.00  0.00    -0.210 NA
ATOM     14  C   UNL     1       2.167  -4.570  -1.738  0.00  0.00    +0.192 A 
ATOM     15  N   UNL     1       2.477  -5.347  -2.766  0.00  0.00    -0.207 NA
ATOM     16 CL   UNL     1       0.553  -6.969   0.889  0.00  0.00    -0.062 Cl
ENDROOT
BRANCH   1  17
ATOM     17  C   UNL     1       1.206  -9.598  -8.123  0.00  0.00    +0.096 C 
BRANCH  17  18
ATOM     18  C   UNL     1       1.057  -9.557  -9.646  0.00  0.00    +0.009 C 
BRANCH  18  19
ATOM     19  C   UNL     1      -0.033 -10.540 -10.078  0.00  0.00    +0.000 C 
BRANCH  19  21
ATOM     20  C   UNL     1      -1.271 -11.483 -12.032  0.00  0.00    +0.004 C 
ATOM     21  C   UNL     1      -0.181 -10.500 -11.600  0.00  0.00    -0.003 C 
ENDBRANCH  19  21
ENDBRANCH  18  19
ENDBRANCH  17  18
ENDBRANCH   1  17
BRANCH  14  22
ATOM     22  S   UNL     1       2.523  -2.846  -1.826  0.00  0.00    -0.077 S 
BRANCH  22  23
ATOM     23  C   UNL     1       1.901  -2.314  -0.212  0.00  0.00    +0.173 C 
BRANCH  23  24
ATOM     24  C   UNL     1       2.106  -0.829  -0.059  0.00  0.00    +0.224 C 
ATOM     25  O   UNL     1       2.622  -0.193  -0.954  0.00  0.00    -0.275 OA
ATOM     26  N   UNL     1       1.716  -0.208   1.071  0.00  0.00    -0.311 N 
ATOM     27  H   UNL     1       1.303  -0.716   1.787  0.00  0.00    +0.149 HD
BRANCH  26  28
ATOM     28  C   UNL     1       1.915   1.236   1.220  0.00  0.00    +0.139 C 
BRANCH  28  29
ATOM     29  C   UNL     1       1.397   1.679   2.564  0.00  0.00    -0.030 A 
ATOM     30  C   UNL     1       0.083   2.086   2.697  0.00  0.00    +0.008 A 
ATOM     31  C   UNL     1      -0.395   2.488   3.930  0.00  0.00    +0.038 A 
ATOM     32  C   UNL     1       0.446   2.493   5.030  0.00  0.00    +0.123 A 
ATOM     33  C   UNL     1       1.764   2.090   4.894  0.00  0.00    +0.038 A 
ATOM     34  C   UNL     1       2.238   1.684   3.661  0.00  0.00    +0.008 A 
ATOM     35  F   UNL     1      -0.018   2.890   6.235  0.00  0.00    -0.205 F 
ENDBRANCH  28  29
ENDBRANCH  26  28
ENDBRANCH  23  24
ENDBRANCH  22  23
ENDBRANCH  14  22
TORSDOF 9
