REMARK  Name = ZINC13231536
REMARK  8 active torsions:
REMARK  status: ('A' for Active; 'I' for Inactive)
REMARK    1  A    between atoms: C_3  and  S_22
REMARK    2  A    between atoms: C_6  and  C_7
REMARK    3  A    between atoms: C_7  and  N_8
REMARK    4  A    between atoms: C_9  and  C_11
REMARK    5  A    between atoms: C_11  and  O_12
REMARK    6  A    between atoms: O_12  and  C_13
REMARK    7  A    between atoms: C_16  and  C_20
REMARK    8  A    between atoms: S_22  and  N_25
REMARK                            x       y       z     vdW  Elec       q    Type
REMARK                         _______ _______ _______ _____ _____    ______ ____
ROOT
ATOM      1  N   UNL     1       3.896  -2.202  -0.047  0.00  0.00    -0.308 N 
ATOM      2  C   UNL     1       3.705  -0.868  -0.038  0.00  0.00    +0.251 C 
ATOM      3  O   UNL     1       4.658  -0.118  -0.043  0.00  0.00    -0.272 OA
ATOM      4  H   UNL     1       3.134  -2.801  -0.043  0.00  0.00    +0.149 HD
ENDROOT
BRANCH   1   5
ATOM      5  C   UNL     1       5.256  -2.747  -0.063  0.00  0.00    +0.139 C 
BRANCH   5  11
ATOM      6  C   UNL     1       5.182  -4.949   1.123  0.00  0.00    +0.007 A 
ATOM      7  C   UNL     1       5.121  -6.330   1.116  0.00  0.00    +0.029 A 
ATOM      8  C   UNL     1       5.080  -7.015  -0.084  0.00  0.00    +0.105 A 
ATOM      9  C   UNL     1       5.097  -6.318  -1.278  0.00  0.00    +0.029 A 
ATOM     10  C   UNL     1       5.154  -4.936  -1.271  0.00  0.00    +0.007 A 
ATOM     11  C   UNL     1       5.194  -4.252  -0.070  0.00  0.00    -0.030 A 
BRANCH   8  12
ATOM     12  S   UNL     1       5.006  -8.775  -0.093  0.00  0.00    +0.056 S 
ATOM     13  O   UNL     1       4.452  -9.164   1.156  0.00  0.00    -0.153 OA
ATOM     14  O   UNL     1       4.426  -9.151  -1.334  0.00  0.00    -0.153 OA
BRANCH  12  15
ATOM     15  N   UNL     1       6.566  -9.331  -0.112  0.00  0.00    -0.204 NA
ATOM     16  H   UNL     1       7.305  -8.702  -0.116  0.00  0.00    +0.144 HD
ATOM     17  H   UNL     1       6.741 -10.285  -0.119  0.00  0.00    +0.144 HD
ENDBRANCH  12  15
ENDBRANCH   8  12
ENDBRANCH   5  11
ENDBRANCH   1   5
BRANCH   2  18
ATOM     18  C   UNL     1       2.306  -0.307  -0.022  0.00  0.00    +0.324 C 
BRANCH  18  19
ATOM     19  O   UNL     1       2.365   1.121  -0.015  0.00  0.00    -0.482 OA
BRANCH  19  20
ATOM     20  C   UNL     1       1.182   1.786   0.000  0.00  0.00    +0.135 A 
ATOM     21  C   UNL     1      -0.013   1.076   0.008  0.00  0.00    +0.047 A 
ATOM     22  C   UNL     1      -1.215   1.747   0.017  0.00  0.00    +0.019 A 
ATOM     23  C   UNL     1      -1.233   3.145   0.029  0.00  0.00    +0.064 A 
ATOM     24  C   UNL     1      -0.030   3.856   0.022  0.00  0.00    +0.034 A 
ATOM     25  C   UNL     1       1.169   3.177   0.007  0.00  0.00    +0.060 A 
ATOM     26 BR   UNL     1       2.798   4.137  -0.003  0.00  0.00    -0.046 Br
BRANCH  23  27
ATOM     27  C   UNL     1      -2.518   3.867   0.044  0.00  0.00    +0.387 C 
ATOM     28  O   UNL     1      -2.533   5.082   0.050  0.00  0.00    -0.241 OA
ATOM     29  O   UNL     1      -3.678   3.180   0.052  0.00  0.00    -0.241 OA
ENDBRANCH  23  27
ENDBRANCH  19  20
ENDBRANCH  18  19
ENDBRANCH   2  18
TORSDOF 8
