REMARK  Name = ZINC13283478
REMARK  6 active torsions:
REMARK  status: ('A' for Active; 'I' for Inactive)
REMARK    1  A    between atoms: C_3  and  N_10
REMARK    2  A    between atoms: C_5  and  N_7
REMARK    3  A    between atoms: N_10  and  C_11
REMARK    4  A    between atoms: C_11  and  C_12
REMARK    5  A    between atoms: C_13  and  C_20
REMARK    6  A    between atoms: C_14  and  N_19
REMARK                            x       y       z     vdW  Elec       q    Type
REMARK                         _______ _______ _______ _____ _____    ______ ____
ROOT
ATOM      1  C   UNL     1       4.979   4.107  -0.025  0.00  0.00    +0.047 A 
ATOM      2  C   UNL     1       5.699   4.166  -1.216  0.00  0.00    +0.042 A 
ATOM      3  C   UNL     1       7.016   4.659  -1.173  0.00  0.00    +0.129 A 
ATOM      4  N   UNL     1       7.519   5.048  -0.007  0.00  0.00    -0.201 NA
ATOM      5  C   UNL     1       6.795   4.973   1.101  0.00  0.00    +0.192 A 
ATOM      6  N   UNL     1       5.550   4.518   1.095  0.00  0.00    -0.329 N 
ATOM      7  N   UNL     1       7.354   5.387   2.296  0.00  0.00    -0.329 N 
ATOM      8  H   UNL     1       8.262   5.726   2.316  0.00  0.00    +0.145 HD
ATOM      9  H   UNL     1       6.836   5.339   3.116  0.00  0.00    +0.145 HD
ATOM     10  H   UNL     1       5.052   4.483   1.927  0.00  0.00    +0.168 HD
ENDROOT
BRANCH   2  11
ATOM     11  C   UNL     1       5.095   3.720  -2.494  0.00  0.00    -0.013 A 
ATOM     12  C   UNL     1       4.747   2.382  -2.674  0.00  0.00    +0.010 A 
ATOM     13  C   UNL     1       4.184   1.972  -3.865  0.00  0.00    +0.020 A 
ATOM     14  C   UNL     1       3.965   2.886  -4.881  0.00  0.00    +0.041 A 
ATOM     15  C   UNL     1       4.309   4.216  -4.707  0.00  0.00    +0.020 A 
ATOM     16  C   UNL     1       4.867   4.638  -3.518  0.00  0.00    +0.010 A 
ATOM     17 CL   UNL     1       3.258   2.364  -6.378  0.00  0.00    -0.084 Cl
ENDBRANCH   2  11
BRANCH   3  18
ATOM     18  N   UNL     1       7.776   4.738  -2.327  0.00  0.00    -0.343 N 
ATOM     19  H   UNL     1       7.401   4.452  -3.175  0.00  0.00    +0.144 HD
ATOM     20  H   UNL     1       8.683   5.080  -2.288  0.00  0.00    +0.144 HD
ENDBRANCH   3  18
BRANCH   1  21
ATOM     21  C   UNL     1       3.564   3.587  -0.014  0.00  0.00    +0.155 C 
BRANCH  21  22
ATOM     22  N   UNL     1       3.582   2.122  -0.021  0.00  0.00    -0.338 N 
ATOM     23  H   UNL     1       4.428   1.647  -0.032  0.00  0.00    +0.146 HD
BRANCH  22  26
ATOM     24  C   UNL     1      -0.017   1.378   0.010  0.00  0.00    +0.004 A 
ATOM     25  C   UNL     1       1.169   2.087   0.002  0.00  0.00    +0.023 A 
ATOM     26  C   UNL     1       2.381   1.409  -0.013  0.00  0.00    +0.030 A 
ATOM     27  C   UNL     1       2.396   0.020  -0.021  0.00  0.00    +0.055 A 
ATOM     28  C   UNL     1       1.207  -0.682  -0.013  0.00  0.00    +0.128 A 
ATOM     29  C   UNL     1       0.002  -0.004   0.002  0.00  0.00    +0.033 A 
BRANCH  28  30
ATOM     30  N   UNL     1       1.222  -2.162  -0.021  0.00  0.00    +0.056 N 
ATOM     31  O   UNL     1       2.276  -2.756  -0.035  0.00  0.00    -0.126 OA
ATOM     32  O   UNL     1       0.182  -2.778  -0.015  0.00  0.00    -0.126 OA
ENDBRANCH  28  30
ENDBRANCH  22  26
ENDBRANCH  21  22
ENDBRANCH   1  21
TORSDOF 6
