REMARK  Name = ZINC11789418
REMARK  11 active torsions:
REMARK  status: ('A' for Active; 'I' for Inactive)
REMARK    1  A    between atoms: C_1  and  C_2
REMARK    2  A    between atoms: C_2  and  C_3
REMARK    3  A    between atoms: C_3  and  C_4
REMARK    4  A    between atoms: C_4  and  C_5
REMARK    5  A    between atoms: C_9  and  C_11
REMARK    6  A    between atoms: C_11  and  N_72
REMARK    7  A    between atoms: C_17  and  C_34
REMARK    8  A    between atoms: N_22  and  C_23
REMARK    9  A    between atoms: C_23  and  C_24
REMARK   10  A    between atoms: C_34  and  O_36
REMARK   11  A    between atoms: O_36  and  C_37
REMARK                            x       y       z     vdW  Elec       q    Type
REMARK                         _______ _______ _______ _____ _____    ______ ____
ROOT
ATOM      1  C   UNL     1       4.495  -6.779  -2.108  0.00  0.00    -0.076 C 
ATOM      2  C   UNL     1       5.367  -7.686  -2.982  0.00  0.00    +0.008 C 
ATOM      3  C   UNL     1       5.583  -9.018  -2.267  0.00  0.00    +0.048 C 
ATOM      4  C   UNL     1       6.203  -8.783  -0.891  0.00  0.00    +0.008 C 
ATOM      5  C   UNL     1       5.304  -7.842  -0.085  0.00  0.00    -0.076 C 
ATOM      6  C   UNL     1       6.507  -9.919  -3.110  0.00  0.00    +0.130 C 
ATOM      7  C   UNL     1       5.481 -10.758  -3.908  0.00  0.00    +0.112 C 
ATOM      8  C   UNL     1       4.232 -10.729  -3.055  0.00  0.00    +0.217 C 
ATOM      9  O   UNL     1       3.290 -11.484  -3.176  0.00  0.00    -0.276 OA
ATOM     10  N   UNL     1       4.319  -9.745  -2.142  0.00  0.00    -0.291 N 
ATOM     11  N   UNL     1       5.176  -6.562  -0.814  0.00  0.00    +0.384 N 
ATOM     12  H   UNL     1       6.114  -6.184  -0.992  0.00  0.00    -0.081 HD
ENDROOT
BRANCH   6  13
ATOM     13  C   UNL     1       7.354 -10.798  -2.227  0.00  0.00    +0.312 C 
ATOM     14  O   UNL     1       6.935 -11.871  -1.861  0.00  0.00    -0.250 OA
BRANCH  13  15
ATOM     15  O   UNL     1       8.576 -10.390  -1.848  0.00  0.00    -0.468 OA
ATOM     16  C   UNL     1       9.336 -11.289  -0.998  0.00  0.00    +0.280 C 
ENDBRANCH  13  15
ENDBRANCH   6  13
BRANCH  11  17
ATOM     17  C   UNL     1       4.415  -5.592  -0.001  0.00  0.00    -0.021 C 
BRANCH  17  22
ATOM     18  C   UNL     1       5.427  -2.269  -1.005  0.00  0.00    +0.107 A 
ATOM     19  N   UNL     1       4.314  -2.397  -1.759  0.00  0.00    -0.348 N 
ATOM     20  H   UNL     1       3.942  -1.715  -2.388  0.00  0.00    +0.166 HD
ATOM     21  C   UNL     1       3.790  -3.635  -1.502  0.00  0.00    +0.105 A 
ATOM     22  C   UNL     1       4.596  -4.218  -0.593  0.00  0.00    +0.043 A 
ATOM     23  N   UNL     1       5.587  -3.361  -0.307  0.00  0.00    -0.239 NA
BRANCH  18  24
ATOM     24  C   UNL     1       6.330  -1.064  -0.969  0.00  0.00    +0.074 C 
BRANCH  24  25
ATOM     25  C   UNL     1       6.467  -0.571   0.473  0.00  0.00    +0.007 C 
BRANCH  25  27
ATOM     26  C   UNL     1       7.521   1.146   1.950  0.00  0.00    +0.004 C 
ATOM     27  C   UNL     1       7.385   0.653   0.508  0.00  0.00    -0.003 C 
ENDBRANCH  25  27
ENDBRANCH  24  25
ENDBRANCH  18  24
ENDBRANCH  17  22
ENDBRANCH  11  17
BRANCH  10  28
ATOM     28  C   UNL     1       3.282  -9.440  -1.153  0.00  0.00    +0.143 C 
BRANCH  28  29
ATOM     29  C   UNL     1       3.465 -10.323   0.055  0.00  0.00    -0.029 A 
ATOM     30  C   UNL     1       3.846 -11.652  -0.119  0.00  0.00    +0.006 A 
ATOM     31  C   UNL     1       4.025 -12.475   0.950  0.00  0.00    +0.009 A 
ATOM     32  C   UNL     1       3.812 -11.984   2.249  0.00  0.00    -0.018 A 
ATOM     33  C   UNL     1       3.981 -12.805   3.377  0.00  0.00    +0.008 A 
ATOM     34  C   UNL     1       3.765 -12.294   4.620  0.00  0.00    +0.001 A 
ATOM     35  C   UNL     1       3.379 -10.966   4.794  0.00  0.00    +0.001 A 
ATOM     36  C   UNL     1       3.206 -10.142   3.725  0.00  0.00    +0.008 A 
ATOM     37  C   UNL     1       3.419 -10.633   2.426  0.00  0.00    -0.018 A 
ATOM     38  C   UNL     1       3.250  -9.812   1.298  0.00  0.00    +0.013 A 
ENDBRANCH  28  29
ENDBRANCH  10  28
TORSDOF 9
