REMARK  Name = ZINC27532253
REMARK  8 active torsions:
REMARK  status: ('A' for Active; 'I' for Inactive)
REMARK    1  A    between atoms: C_1  and  C_2
REMARK    2  A    between atoms: C_2  and  O_3
REMARK    3  A    between atoms: O_3  and  C_4
REMARK    4  A    between atoms: C_9  and  C_10
REMARK    5  A    between atoms: C_10  and  N_11
REMARK    6  A    between atoms: N_11  and  N_12
REMARK    7  A    between atoms: C_22  and  C_23
REMARK    8  A    between atoms: C_27  and  C_29
REMARK                            x       y       z     vdW  Elec       q    Type
REMARK                         _______ _______ _______ _____ _____    ______ ____
ROOT
ATOM      1  N   UNL     1      -3.685   1.685   0.106  0.00  0.00    -0.211 N 
ATOM      2  C   UNL     1      -4.780   1.037   0.567  0.00  0.00    +0.279 A 
ATOM      3  O   UNL     1      -5.699   1.642   1.089  0.00  0.00    -0.265 OA
ATOM      4  C   UNL     1      -4.816  -0.425   0.417  0.00  0.00    +0.066 A 
ATOM      5  C   UNL     1      -5.896  -1.184   0.864  0.00  0.00    +0.015 A 
ATOM      6  C   UNL     1      -5.877  -2.552   0.697  0.00  0.00    +0.001 A 
ATOM      7  C   UNL     1      -4.794  -3.175   0.091  0.00  0.00    +0.002 A 
ATOM      8  C   UNL     1      -3.724  -2.450  -0.354  0.00  0.00    +0.028 A 
ATOM      9  C   UNL     1      -3.714  -1.060  -0.199  0.00  0.00    +0.079 A 
ATOM     10  N   UNL     1      -2.677  -0.311  -0.625  0.00  0.00    -0.227 NA
ATOM     11  C   UNL     1      -2.665   0.989  -0.483  0.00  0.00    +0.161 A 
ENDROOT
BRANCH  11  12
ATOM     12  C   UNL     1      -1.492   1.740  -0.975  0.00  0.00    +0.019 A 
ATOM     13  C   UNL     1      -1.077   2.902  -0.321  0.00  0.00    +0.011 A 
ATOM     14  C   UNL     1       0.016   3.601  -0.789  0.00  0.00    +0.001 A 
ATOM     15  C   UNL     1       0.704   3.152  -1.902  0.00  0.00    +0.003 A 
ATOM     16  C   UNL     1       0.301   1.999  -2.553  0.00  0.00    -0.050 A 
ATOM     17  C   UNL     1      -0.790   1.290  -2.095  0.00  0.00    +0.015 A 
ATOM     18  C   UNL     1       1.056   1.518  -3.765  0.00  0.00    +0.044 C 
ENDBRANCH  11  12
BRANCH   1  19
ATOM     19  N   UNL     1      -3.600   3.043   0.225  0.00  0.00    -0.276 N 
ATOM     20  H   UNL     1      -3.189   3.642   1.051  0.00  0.00    +0.167 HD
BRANCH  19  21
ATOM     21  C   UNL     1      -4.157   3.711  -0.959  0.00  0.00    +0.159 C 
BRANCH  21  27
ATOM     22  C   UNL     1      -6.136   4.891   0.029  0.00  0.00    +0.125 A 
ATOM     23  C   UNL     1      -7.506   5.046   0.185  0.00  0.00    +0.046 A 
ATOM     24  C   UNL     1      -8.376   4.196  -0.470  0.00  0.00    +0.004 A 
ATOM     25  C   UNL     1      -7.882   3.191  -1.282  0.00  0.00    +0.001 A 
ATOM     26  C   UNL     1      -6.518   3.038  -1.444  0.00  0.00    +0.009 A 
ATOM     27  C   UNL     1      -5.644   3.882  -0.786  0.00  0.00    +0.013 A 
BRANCH  22  28
ATOM     28  O   UNL     1      -5.279   5.726   0.672  0.00  0.00    -0.492 OA
BRANCH  28  30
ATOM     29  C   UNL     1      -4.747   7.563   2.150  0.00  0.00    +0.048 C 
ATOM     30  C   UNL     1      -5.851   6.669   1.581  0.00  0.00    +0.225 C 
ENDBRANCH  28  30
ENDBRANCH  22  28
ENDBRANCH  21  27
ENDBRANCH  19  21
ENDBRANCH   1  19
TORSDOF 6
