REMARK  Name = ZINC36704286
REMARK  9 active torsions:
REMARK  status: ('A' for Active; 'I' for Inactive)
REMARK    1  A    between atoms: C_1  and  N_2
REMARK    2  A    between atoms: N_2  and  C_3
REMARK    3  A    between atoms: N_2  and  C_4
REMARK    4  A    between atoms: C_4  and  C_5
REMARK    5  A    between atoms: C_5  and  C_6
REMARK    6  A    between atoms: C_6  and  N_7
REMARK    7  A    between atoms: C_18  and  C_20
REMARK    8  A    between atoms: N_23  and  S_26
REMARK    9  A    between atoms: S_26  and  C_29
REMARK                            x       y       z     vdW  Elec       q    Type
REMARK                         _______ _______ _______ _____ _____    ______ ____
ROOT
ATOM      1  N   UNL     1      -3.131  -4.047  -0.298  0.00  0.00    -0.250 N 
ATOM      2  C   UNL     1      -3.334  -4.867   0.800  0.00  0.00    +0.168 A 
ATOM      3  N   UNL     1      -3.684  -4.537   2.021  0.00  0.00    -0.223 NA
ATOM      4  C   UNL     1      -3.849  -5.451   3.002  0.00  0.00    +0.099 A 
ATOM      5  C   UNL     1      -3.620  -6.795   2.631  0.00  0.00    +0.042 A 
ATOM      6  S   UNL     1      -3.195  -6.646   0.912  0.00  0.00    -0.052 S 
ATOM      7  C   UNL     1      -3.746  -7.839   3.513  0.00  0.00    +0.017 A 
ATOM      8  C   UNL     1      -4.111  -7.587   4.823  0.00  0.00    +0.003 A 
ATOM      9  C   UNL     1      -4.345  -6.279   5.223  0.00  0.00    +0.022 A 
ATOM     10  C   UNL     1      -4.222  -5.229   4.349  0.00  0.00    +0.067 A 
ATOM     11 CL   UNL     1      -4.525  -3.612   4.901  0.00  0.00    -0.081 Cl
ATOM     12  C   UNL     1      -2.896  -4.589  -1.509  0.00  0.00    +0.224 C 
ATOM     13  O   UNL     1      -2.615  -3.875  -2.449  0.00  0.00    -0.275 OA
ENDROOT
BRANCH  12  14
ATOM     14  C   UNL     1      -2.982  -6.082  -1.697  0.00  0.00    +0.078 C 
ATOM     15  C   UNL     1      -1.656  -6.725  -1.282  0.00  0.00    +0.030 C 
ATOM     16  C   UNL     1      -1.759  -8.245  -1.440  0.00  0.00    +0.110 C 
ATOM     17  N   UNL     1      -2.173  -8.550  -2.817  0.00  0.00    -0.176 NA
ATOM     18  C   UNL     1      -3.385  -7.912  -3.348  0.00  0.00    +0.110 C 
ATOM     19  C   UNL     1      -3.264  -6.396  -3.167  0.00  0.00    +0.030 C 
BRANCH  17  20
ATOM     20  S   UNL     1      -1.289  -9.591  -3.753  0.00  0.00    +0.067 S 
ATOM     21  O   UNL     1      -1.571  -9.261  -5.106  0.00  0.00    -0.152 OA
ATOM     22  O   UNL     1       0.032  -9.589  -3.227  0.00  0.00    -0.152 OA
BRANCH  20  23
ATOM     23  C   UNL     1      -1.934 -11.209  -3.484  0.00  0.00    +0.143 A 
ATOM     24  C   UNL     1      -2.921 -11.856  -4.152  0.00  0.00    +0.036 A 
ATOM     25  C   UNL     1      -3.265 -13.137  -3.763  0.00  0.00    +0.010 A 
ATOM     26  C   UNL     1      -2.606 -13.708  -2.725  0.00  0.00    +0.047 A 
ATOM     27  S   UNL     1      -1.454 -12.423  -2.267  0.00  0.00    -0.077 S 
ENDBRANCH  20  23
ENDBRANCH  17  20
ENDBRANCH  12  14
BRANCH   1  28
ATOM     28  C   UNL     1      -3.170  -2.591  -0.142  0.00  0.00    +0.114 C 
BRANCH  28  29
ATOM     29  C   UNL     1      -1.752  -2.063   0.082  0.00  0.00    +0.001 C 
BRANCH  29  30
ATOM     30  C   UNL     1      -1.793  -0.543   0.245  0.00  0.00    -0.078 C 
BRANCH  30  32
ATOM     31  C   UNL     1      -0.455   1.433   0.496  0.00  0.00    -0.097 C 
ATOM     32  N   UNL     1      -0.431  -0.036   0.459  0.00  0.00    +0.376 N 
ATOM     33  C   UNL     1       0.087  -0.549   1.734  0.00  0.00    -0.097 C 
ATOM     34  H   UNL     1       0.165  -0.344  -0.294  0.00  0.00    -0.083 HD
ENDBRANCH  30  32
ENDBRANCH  29  30
ENDBRANCH  28  29
ENDBRANCH   1  28
TORSDOF 7
