REMARK  Name = ZINC30978119
REMARK  14 active torsions:
REMARK  status: ('A' for Active; 'I' for Inactive)
REMARK    1  A    between atoms: C_1  and  C_2
REMARK    2  A    between atoms: C_7  and  C_8
REMARK    3  A    between atoms: C_8  and  C_10
REMARK    4  A    between atoms: C_8  and  N_13
REMARK    5  A    between atoms: C_10  and  C_11
REMARK    6  A    between atoms: C_10  and  C_12
REMARK    7  A    between atoms: C_14  and  C_16
REMARK    8  A    between atoms: N_19  and  C_22
REMARK    9  A    between atoms: C_22  and  C_23
REMARK   10  A    between atoms: C_25  and  C_28
REMARK   11  A    between atoms: C_31  and  C_34
REMARK   12  A    between atoms: C_34  and  C_35
REMARK   13  A    between atoms: C_34  and  C_36
REMARK   14  A    between atoms: C_34  and  C_37
REMARK                            x       y       z     vdW  Elec       q    Type
REMARK                         _______ _______ _______ _____ _____    ______ ____
ROOT
ATOM      1  C   UNL     1      -2.016   5.683  -0.609  0.00  0.00    +0.071 C 
ATOM      2  C   UNL     1      -2.504   4.854  -1.800  0.00  0.00    -0.006 C 
ATOM      3  C   UNL     1      -3.918   5.301  -2.180  0.00  0.00    -0.077 C 
ATOM      4  N   UNL     1      -3.905   6.728  -2.527  0.00  0.00    +0.386 N 
ATOM      5  C   UNL     1      -3.484   7.548  -1.384  0.00  0.00    -0.077 C 
ATOM      6  C   UNL     1      -2.058   7.168  -0.979  0.00  0.00    -0.006 C 
ATOM      7  H   UNL     1      -3.168   6.871  -3.331  0.00  0.00    -0.081 HD
ENDROOT
BRANCH   1   9
ATOM      8  N   UNL     1      -0.324   4.020   0.092  0.00  0.00    -0.308 N 
ATOM      9  C   UNL     1      -0.602   5.289  -0.267  0.00  0.00    +0.216 C 
ATOM     10  O   UNL     1       0.286   6.114  -0.315  0.00  0.00    -0.276 OA
ATOM     11  H   UNL     1      -1.129   3.272   0.135  0.00  0.00    +0.149 HD
BRANCH   8  12
ATOM     12  C   UNL     1       1.050   3.637   0.424  0.00  0.00    +0.106 C 
BRANCH  12  19
ATOM     13  C   UNL     1       1.607   3.303  -2.391  0.00  0.00    +0.044 C 
ATOM     14  C   UNL     1       1.603   2.105  -1.476  0.00  0.00    -0.045 A 
ATOM     15  C   UNL     1       1.866   0.847  -1.984  0.00  0.00    +0.004 A 
ATOM     16  C   UNL     1       1.863  -0.252  -1.145  0.00  0.00    +0.000 A 
ATOM     17  C   UNL     1       1.597  -0.092   0.202  0.00  0.00    +0.000 A 
ATOM     18  C   UNL     1       1.334   1.166   0.710  0.00  0.00    +0.006 A 
ATOM     19  C   UNL     1       1.337   2.265  -0.130  0.00  0.00    -0.024 A 
ENDBRANCH  12  19
BRANCH  12  20
ATOM     20  C   UNL     1       1.222   3.619   1.944  0.00  0.00    +0.008 C 
ATOM     21  C   UNL     1       2.687   3.347   2.289  0.00  0.00    +0.009 C 
ATOM     22  C   UNL     1       0.806   4.975   2.520  0.00  0.00    +0.009 C 
ENDBRANCH  12  20
ENDBRANCH   8  12
ENDBRANCH   1   9
BRANCH   4  23
ATOM     23  C   UNL     1      -5.215   7.160  -3.030  0.00  0.00    +0.022 C 
BRANCH  23  24
ATOM     24  C   UNL     1      -5.503   6.470  -4.339  0.00  0.00    +0.211 A 
ATOM     25  N   UNL     1      -6.111   5.321  -4.496  0.00  0.00    -0.193 NA
ATOM     26  C   UNL     1      -6.142   5.105  -5.830  0.00  0.00    +0.202 A 
ATOM     27  N   UNL     1      -5.557   6.126  -6.400  0.00  0.00    -0.056 NA
ATOM     28  O   UNL     1      -5.189   6.919  -5.559  0.00  0.00    -0.340 OA
BRANCH  26  29
ATOM     29  C   UNL     1      -6.731   3.930  -6.519  0.00  0.00    +0.022 A 
ATOM     30  C   UNL     1      -7.321   2.908  -5.779  0.00  0.00    +0.012 A 
ATOM     31  C   UNL     1      -7.872   1.820  -6.425  0.00  0.00    +0.005 A 
ATOM     32  C   UNL     1      -7.829   1.737  -7.805  0.00  0.00    -0.042 A 
ATOM     33  C   UNL     1      -7.239   2.746  -8.545  0.00  0.00    +0.005 A 
ATOM     34  C   UNL     1      -6.690   3.841  -7.909  0.00  0.00    +0.012 A 
BRANCH  32  35
ATOM     35  C   UNL     1      -8.425   0.543  -8.505  0.00  0.00    -0.013 C 
ATOM     36  C   UNL     1      -7.338  -0.173  -9.309  0.00  0.00    +0.015 C 
ATOM     37  C   UNL     1      -9.008  -0.418  -7.466  0.00  0.00    +0.015 C 
ATOM     38  C   UNL     1      -9.536   1.008  -9.449  0.00  0.00    +0.015 C 
ENDBRANCH  32  35
ENDBRANCH  26  29
ENDBRANCH  23  24
ENDBRANCH   4  23
TORSDOF 8
