REMARK  Name = ZINC31166975
REMARK  13 active torsions:
REMARK  status: ('A' for Active; 'I' for Inactive)
REMARK    1  A    between atoms: CD1_1  and  CG_2
REMARK    2  A    between atoms: CG_2  and  CD2_3
REMARK    3  A    between atoms: CG_2  and  CB_4
REMARK    4  A    between atoms: CB_4  and  CA_5
REMARK    5  A    between atoms: N_9  and  C_43
REMARK    6  A    between atoms: CA_10  and  CB_36
REMARK    7  A    between atoms: N_14  and  C_35
REMARK    8  A    between atoms: CA_15  and  CB_28
REMARK    9  A    between atoms: CA_20  and  CB_25
REMARK   10  A    between atoms: CB_25  and  CG1_26
REMARK   11  A    between atoms: CB_25  and  CG2_27
REMARK   12  A    between atoms: CB_28  and  CG_29
REMARK   13  A    between atoms: CB_36  and  CG_37
REMARK                            x       y       z     vdW  Elec       q    Type
REMARK                         _______ _______ _______ _____ _____    ______ ____
ROOT
ATOM      1  CA  LEU A   4      -3.964   9.198  -2.879  0.00  0.00    +0.159 C 
ATOM      2  C   LEU A   4      -3.567   7.748  -3.002  0.00  0.00    +0.236 C 
ATOM      3  O   LEU A   4      -2.790   7.388  -3.860  0.00  0.00    -0.274 OA
ATOM      4  N   PHE A   1      -4.108   6.844  -2.117  0.00  0.00    -0.291 N 
ATOM      5  CA  PHE A   1      -3.282   5.605  -1.996  0.00  0.00    +0.166 C 
ATOM      6  C   PHE A   1      -1.948   6.016  -1.425  0.00  0.00    +0.237 C 
ATOM      7  O   PHE A   1      -1.824   6.225  -0.237  0.00  0.00    -0.274 OA
ATOM      8  N   PHE A   2      -0.881   6.148  -2.267  0.00  0.00    -0.291 N 
ATOM      9  CA  PHE A   2       0.331   6.747  -1.658  0.00  0.00    +0.166 C 
ATOM     10  C   PHE A   2       0.092   8.231  -1.526  0.00  0.00    +0.234 C 
ATOM     11  O   PHE A   2       0.413   8.997  -2.411  0.00  0.00    -0.274 OA
ATOM     12  N   VAL A   3      -0.501   8.690  -0.372  0.00  0.00    -0.302 N 
ATOM     13  CA  VAL A   3      -1.132  10.032  -0.544  0.00  0.00    +0.161 C 
ATOM     14  C   VAL A   3      -2.534   9.807  -1.052  0.00  0.00    +0.234 C 
ATOM     15  O   VAL A   3      -3.428   9.507  -0.289  0.00  0.00    -0.274 OA
ATOM     16  N   LEU A   4      -2.778   9.950  -2.392  0.00  0.00    -0.302 N 
ATOM     17  C   ACE A   0      -0.931   5.729  -3.670  0.00  0.00    +0.133 C 
ATOM     18  C   ACE A   0      -5.353   7.070  -1.379  0.00  0.00    +0.133 C 
ATOM     19  H   VAL A   3      -0.546   8.182   0.603  0.00  0.00    +0.150 HD
ATOM     20  H   LEU A   4      -2.183  10.553  -3.093  0.00  0.00    +0.150 HD
ENDROOT
BRANCH  13  21
ATOM     21  CB  VAL A   3      -1.175  10.763   0.799  0.00  0.00    +0.012 C 
ATOM     22  CG1 VAL A   3       0.252  11.056   1.267  0.00  0.00    +0.009 C 
ATOM     23  CG2 VAL A   3      -1.940  12.078   0.640  0.00  0.00    +0.009 C 
ENDBRANCH  13  21
BRANCH   1  24
ATOM     24  CB  LEU A   4      -4.395   9.735  -4.245  0.00  0.00    +0.034 C 
BRANCH  24  26
ATOM     25  CD1 LEU A   4      -5.101  11.783  -5.490  0.00  0.00    +0.007 C 
ATOM     26  CG  LEU A   4      -4.833  11.194  -4.104  0.00  0.00    -0.015 C 
ATOM     27  CD2 LEU A   4      -6.109  11.265  -3.264  0.00  0.00    +0.007 C 
ENDBRANCH  24  26
ENDBRANCH   1  24
BRANCH   9  28
ATOM     28  CB  PHE A   2       0.574   6.136  -0.276  0.00  0.00    +0.067 C 
BRANCH  28  29
ATOM     29  CG  PHE A   2       1.905   6.603   0.254  0.00  0.00    -0.045 A 
ATOM     30  CD2 PHE A   2       1.966   7.686   1.110  0.00  0.00    +0.004 A 
ATOM     31  CE2 PHE A   2       3.187   8.114   1.597  0.00  0.00    +0.000 A 
ATOM     32  CZ  PHE A   2       4.347   7.459   1.227  0.00  0.00    +0.000 A 
ATOM     33  CE1 PHE A   2       4.286   6.380   0.365  0.00  0.00    +0.000 A 
ATOM     34  CD1 PHE A   2       3.064   5.949  -0.117  0.00  0.00    +0.004 A 
ENDBRANCH  28  29
ENDBRANCH   9  28
BRANCH   5  35
ATOM     35  CB  PHE A   1      -3.968   4.611  -1.056  0.00  0.00    +0.067 C 
BRANCH  35  36
ATOM     36  CG  PHE A   1      -3.215   3.306  -1.069  0.00  0.00    -0.045 A 
ATOM     37  CD2 PHE A   1      -3.468   2.372  -2.056  0.00  0.00    +0.004 A 
ATOM     38  CE2 PHE A   1      -2.775   1.176  -2.070  0.00  0.00    +0.000 A 
ATOM     39  CZ  PHE A   1      -1.835   0.910  -1.092  0.00  0.00    +0.000 A 
ATOM     40  CE1 PHE A   1      -1.585   1.842  -0.102  0.00  0.00    +0.000 A 
ATOM     41  CD1 PHE A   1      -2.276   3.040  -0.090  0.00  0.00    +0.004 A 
ENDBRANCH  35  36
ENDBRANCH   5  35
TORSDOF 7
