REMARK  Name = ZINC06142670
REMARK  7 active torsions:
REMARK  status: ('A' for Active; 'I' for Inactive)
REMARK    1  A    between atoms: C_1  and  N_2
REMARK    2  A    between atoms: N_2  and  S_3
REMARK    3  A    between atoms: S_3  and  C_6
REMARK    4  A    between atoms: C_10  and  N_11
REMARK    5  A    between atoms: N_14  and  C_17
REMARK    6  A    between atoms: C_20  and  S_23
REMARK    7  A    between atoms: S_23  and  N_26
REMARK                            x       y       z     vdW  Elec       q    Type
REMARK                         _______ _______ _______ _____ _____    ______ ____
ROOT
ATOM      1  N   UNL     1       1.334   6.311  -1.154  0.00  0.00    -0.325 N 
ATOM      2  C   UNL     1       1.862   5.738   0.092  0.00  0.00    +0.124 C 
ATOM      3  C   UNL     1       1.751   4.212   0.036  0.00  0.00    +0.124 C 
ATOM      4  N   UNL     1       0.345   3.833  -0.161  0.00  0.00    -0.327 N 
ATOM      5  C   UNL     1      -0.183   4.406  -1.407  0.00  0.00    +0.124 C 
ATOM      6  C   UNL     1      -0.072   5.931  -1.351  0.00  0.00    +0.124 C 
ENDROOT
BRANCH   1  11
ATOM      7  C   UNL     1       2.260   8.318  -2.147  0.00  0.00    +0.142 A 
ATOM      8  C   UNL     1       2.384   9.692  -2.127  0.00  0.00    +0.113 A 
ATOM      9  C   UNL     1       1.038   9.859  -0.260  0.00  0.00    +0.084 A 
ATOM     10  C   UNL     1       0.859   8.493  -0.213  0.00  0.00    +0.042 A 
ATOM     11  C   UNL     1       1.485   7.694  -1.170  0.00  0.00    +0.059 A 
ATOM     12  N   UNL     1       1.789  10.493  -1.202  0.00  0.00    -0.365 N 
ATOM     13  H   UNL     1       1.901  11.514  -1.213  0.00  0.00    +0.165 HD
BRANCH   7  14
ATOM     14  S   UNL     1       3.069   7.366  -3.389  0.00  0.00    +0.061 S 
ATOM     15  O   UNL     1       3.736   8.289  -4.239  0.00  0.00    -0.153 OA
ATOM     16  O   UNL     1       3.755   6.319  -2.715  0.00  0.00    -0.153 OA
BRANCH  14  18
ATOM     17  C   UNL     1       0.976   7.472  -5.098  0.00  0.00    +0.127 C 
ATOM     18  N   UNL     1       1.889   6.648  -4.302  0.00  0.00    -0.193 NA
ATOM     19  H   UNL     1       1.803   5.682  -4.310  0.00  0.00    +0.148 HD
ENDBRANCH  14  18
ENDBRANCH   7  14
ENDBRANCH   1  11
BRANCH   4  20
ATOM     20  C   UNL     1       0.194   2.445  -0.145  0.00  0.00    +0.030 A 
ATOM     21  C   UNL     1      -1.063   1.879  -0.314  0.00  0.00    +0.025 A 
ATOM     22  C   UNL     1      -1.209   0.506  -0.298  0.00  0.00    +0.030 A 
ATOM     23  C   UNL     1      -0.105  -0.306  -0.113  0.00  0.00    +0.105 A 
ATOM     24  C   UNL     1       1.148   0.254   0.057  0.00  0.00    +0.030 A 
ATOM     25  C   UNL     1       1.301   1.626   0.042  0.00  0.00    +0.025 A 
BRANCH  23  26
ATOM     26  S   UNL     1      -0.295  -2.058  -0.093  0.00  0.00    +0.056 S 
ATOM     27  O   UNL     1       0.805  -2.577   0.640  0.00  0.00    -0.153 OA
ATOM     28  O   UNL     1      -1.644  -2.316   0.272  0.00  0.00    -0.153 OA
BRANCH  26  29
ATOM     29  N   UNL     1      -0.118  -2.587  -1.652  0.00  0.00    -0.204 NA
ATOM     30  H   UNL     1       0.241  -3.472  -1.826  0.00  0.00    +0.144 HD
ATOM     31  H   UNL     1      -0.372  -2.013  -2.391  0.00  0.00    +0.144 HD
ENDBRANCH  26  29
ENDBRANCH  23  26
ENDBRANCH   4  20
TORSDOF 6
