REMARK  Name = ZINC12282833
REMARK  7 active torsions:
REMARK  status: ('A' for Active; 'I' for Inactive)
REMARK    1  A    between atoms: C_1  and  C_2
REMARK    2  A    between atoms: C_2  and  O_3
REMARK    3  A    between atoms: O_3  and  C_4
REMARK    4  A    between atoms: C_9  and  N_71
REMARK    5  A    between atoms: C_18  and  C_28
REMARK    6  A    between atoms: C_20  and  O_21
REMARK    7  A    between atoms: O_21  and  C_22
REMARK                            x       y       z     vdW  Elec       q    Type
REMARK                         _______ _______ _______ _____ _____    ______ ____
ROOT
ATOM      1  C   UNL     1       3.382   4.134  -1.534  0.00  0.00    -0.036 C 
ATOM      2  C   UNL     1       3.989   2.751  -1.442  0.00  0.00    +0.211 C 
ATOM      3  O   UNL     1       3.653   2.129  -0.196  0.00  0.00    -0.490 OA
ATOM      4  C   UNL     1       2.458   1.473  -0.175  0.00  0.00    +0.163 A 
ATOM      5  C   UNL     1       1.281   2.191  -0.259  0.00  0.00    -0.018 A 
ATOM      6  C   UNL     1       0.065   1.541  -0.291  0.00  0.00    +0.014 A 
ATOM      7  C   UNL     1       0.024   0.148  -0.220  0.00  0.00    -0.013 A 
ATOM      8  C   UNL     1       1.210  -0.578  -0.118  0.00  0.00    +0.058 A 
ATOM      9  C   UNL     1       2.426   0.083  -0.095  0.00  0.00    +0.163 A 
ATOM     10  C   UNL     1       1.331   3.706  -0.293  0.00  0.00    -0.039 C 
ATOM     11  N   UNL     1       1.906   4.112  -1.598  0.00  0.00    +0.387 N 
ATOM     12  H   UNL     1       1.617   3.432  -2.311  0.00  0.00    -0.081 HD
ENDROOT
BRANCH   7  13
ATOM     13  C   UNL     1      -1.279  -0.559  -0.254  0.00  0.00    -0.003 A 
ATOM     14  C   UNL     1      -2.287  -0.183   0.566  0.00  0.00    +0.055 A 
ATOM     15  S   UNL     1      -3.603  -1.311   0.151  0.00  0.00    -0.096 S 
ATOM     16  C   UNL     1      -2.778  -2.255  -1.103  0.00  0.00    +0.020 A 
ATOM     17  C   UNL     1      -1.498  -1.671  -1.179  0.00  0.00    -0.003 A 
ATOM     18  C   UNL     1      -0.598  -2.232  -2.112  0.00  0.00    +0.009 A 
ATOM     19  C   UNL     1      -0.971  -3.279  -2.896  0.00  0.00    +0.001 A 
ATOM     20  C   UNL     1      -2.240  -3.834  -2.807  0.00  0.00    +0.001 A 
ATOM     21  C   UNL     1      -3.147  -3.316  -1.904  0.00  0.00    +0.015 A 
ENDBRANCH   7  13
BRANCH  11  27
ATOM     22  C   UNL     1      -1.355   8.408  -1.288  0.00  0.00    +0.403 C 
ATOM     23  O   UNL     1      -2.481   8.276  -1.726  0.00  0.00    -0.226 OA
ATOM     24  N   UNL     1      -0.350   7.654  -1.774  0.00  0.00    -0.268 N 
ATOM     25  C   UNL     1      -0.599   6.668  -2.834  0.00  0.00    +0.109 C 
ATOM     26  C   UNL     1      -0.069   5.306  -2.375  0.00  0.00    +0.004 C 
ATOM     27  C   UNL     1       1.402   5.442  -1.977  0.00  0.00    -0.065 C 
ATOM     28  C   UNL     1       1.527   6.427  -0.812  0.00  0.00    +0.004 C 
ATOM     29  C   UNL     1       1.016   7.802  -1.254  0.00  0.00    +0.109 C 
BRANCH  22  30
ATOM     30  O   UNL     1      -1.113   9.308  -0.316  0.00  0.00    -0.451 OA
BRANCH  30  32
ATOM     31  C   UNL     1      -1.777  11.047   1.254  0.00  0.00    +0.048 C 
ATOM     32  C   UNL     1      -2.244  10.085   0.159  0.00  0.00    +0.230 C 
ENDBRANCH  30  32
ENDBRANCH  22  30
ENDBRANCH  11  27
BRANCH   9  33
ATOM     33  O   UNL     1       3.584  -0.622   0.005  0.00  0.00    -0.483 OA
BRANCH  33  34
ATOM     34  C   UNL     1       3.470  -2.034   0.189  0.00  0.00    +0.201 C 
ATOM     35  C   UNL     1       4.792  -2.617   0.745  0.00  0.00    +0.075 C 
ATOM     36  C   UNL     1       4.925  -3.939  -0.052  0.00  0.00    +0.163 C 
ATOM     37  O   UNL     1       4.428  -3.594  -1.363  0.00  0.00    -0.376 OA
ATOM     38  C   UNL     1       3.287  -2.742  -1.168  0.00  0.00    +0.204 C 
ENDBRANCH  33  34
ENDBRANCH   9  33
TORSDOF 6
