REMARK  Name = ZINC05941376
REMARK  9 active torsions:
REMARK  status: ('A' for Active; 'I' for Inactive)
REMARK    1  A    between atoms: C_1  and  C_2
REMARK    2  A    between atoms: C_2  and  C_8
REMARK    3  A    between atoms: N_3  and  N_4
REMARK    4  A    between atoms: N_4  and  C_5
REMARK    5  A    between atoms: C_5  and  N_7
REMARK    6  A    between atoms: C_8  and  C_9
REMARK    7  A    between atoms: C_9  and  C_10
REMARK    8  A    between atoms: C_9  and  C_14
REMARK    9  A    between atoms: C_9  and  O_18
REMARK                            x       y       z     vdW  Elec       q    Type
REMARK                         _______ _______ _______ _____ _____    ______ ____
ROOT
ATOM      1  C   UNL     1      -2.207   1.805   1.222  0.00  0.00    +0.102 C 
ENDROOT
BRANCH   1   3
ATOM      2  C   UNL     1      -0.032   0.960   0.052  0.00  0.00    +0.062 C 
ATOM      3  C   UNL     1      -0.718   1.572   1.246  0.00  0.00    +0.037 C 
ATOM      4  N   UNL     1      -0.036   1.895   2.280  0.00  0.00    -0.190 NA
BRANCH   4   5
ATOM      5  N   UNL     1      -0.654   2.558   3.348  0.00  0.00    -0.219 N 
ATOM      6  H   UNL     1      -1.612   2.707   3.337  0.00  0.00    +0.176 HD
BRANCH   5   7
ATOM      7  C   UNL     1       0.083   2.988   4.391  0.00  0.00    +0.147 C 
ATOM      8  S   UNL     1      -0.673   3.798   5.697  0.00  0.00    -0.017 S 
BRANCH   7   9
ATOM      9  N   UNL     1       1.414   2.780   4.407  0.00  0.00    -0.339 N 
ATOM     10  H   UNL     1       1.842   2.321   3.668  0.00  0.00    +0.144 HD
ATOM     11  H   UNL     1       1.944   3.090   5.158  0.00  0.00    +0.144 HD
ENDBRANCH   7   9
ENDBRANCH   5   7
ENDBRANCH   4   5
ENDBRANCH   1   3
BRANCH   1  12
ATOM     12  C   UNL     1      -2.542   2.861   0.168  0.00  0.00    +0.227 C 
BRANCH  12  13
ATOM     13  C   UNL     1      -4.035   3.188   0.229  0.00  0.00    +0.358 C 
ATOM     14  F   UNL     1      -4.777   2.028  -0.020  0.00  0.00    -0.184 F 
ATOM     15  F   UNL     1      -4.353   3.680   1.500  0.00  0.00    -0.184 F 
ATOM     16 CL   UNL     1      -4.429   4.433  -1.014  0.00  0.00    -0.044 Cl
ENDBRANCH  12  13
BRANCH  12  17
ATOM     17  C   UNL     1      -1.730   4.129   0.441  0.00  0.00    +0.358 C 
ATOM     18  F   UNL     1      -0.365   3.830   0.384  0.00  0.00    -0.184 F 
ATOM     19  F   UNL     1      -2.037   5.095  -0.524  0.00  0.00    -0.184 F 
ATOM     20 CL   UNL     1      -2.140   4.764   2.078  0.00  0.00    -0.044 Cl
ENDBRANCH  12  17
BRANCH  12  21
ATOM     21  O   UNL     1      -2.217   2.358  -1.130  0.00  0.00    -0.375 OA
ATOM     22  H   UNL     1      -2.696   1.553  -1.371  0.00  0.00    +0.211 HD
ENDBRANCH  12  21
ENDBRANCH   1  12
TORSDOF 8
