REMARK  Name = ZINC11841151
REMARK  8 active torsions:
REMARK  status: ('A' for Active; 'I' for Inactive)
REMARK    1  A    between atoms: C_6  and  C_7
REMARK    2  A    between atoms: C_7  and  C_8
REMARK    3  A    between atoms: C_8  and  N_9
REMARK    4  A    between atoms: C_10  and  C_12
REMARK    5  A    between atoms: C_15  and  N_31
REMARK    6  A    between atoms: C_18  and  C_19
REMARK    7  A    between atoms: C_18  and  N_59
REMARK    8  A    between atoms: C_22  and  C_24
REMARK                            x       y       z     vdW  Elec       q    Type
REMARK                         _______ _______ _______ _____ _____    ______ ____
ROOT
ATOM      1  C   UNL     1      -4.082   0.007  -1.108  0.00  0.00    +0.022 C 
ATOM      2  C   UNL     1      -2.951   1.022  -1.409  0.00  0.00    +0.019 C 
ATOM      3  C   UNL     1      -2.499   1.420   0.020  0.00  0.00    +0.093 C 
ATOM      4  C   UNL     1      -2.650   0.104   0.812  0.00  0.00    -0.050 C 
ATOM      5  N   UNL     1      -3.602  -0.741   0.068  0.00  0.00    +0.393 N 
ATOM      6  H   UNL     1      -3.125  -1.595  -0.245  0.00  0.00    -0.080 HD
ENDROOT
BRANCH   3   7
ATOM      7  N   UNL     1      -1.103   1.865   0.017  0.00  0.00    -0.231 N 
ATOM      8  C   UNL     1      -0.013   1.076   0.008  0.00  0.00    +0.245 A 
ATOM      9  N   UNL     1       1.028   1.873   0.002  0.00  0.00    -0.117 NA
ATOM     10  N   UNL     1       0.599   3.087   0.013  0.00  0.00    -0.023 NA
ATOM     11  N   UNL     1      -0.688   3.086   0.024  0.00  0.00    -0.044 NA
ENDBRANCH   3   7
BRANCH   1  13
ATOM     12  N   UNL     1      -4.694  -0.453  -3.460  0.00  0.00    -0.316 N 
ATOM     13  C   UNL     1      -4.271  -0.930  -2.273  0.00  0.00    +0.200 C 
ATOM     14  O   UNL     1      -4.041  -2.114  -2.143  0.00  0.00    -0.278 OA
ATOM     15  H   UNL     1      -4.878   0.494  -3.565  0.00  0.00    +0.149 HD
BRANCH  12  16
ATOM     16  C   UNL     1      -4.877  -1.363  -4.593  0.00  0.00    +0.109 C 
BRANCH  16  17
ATOM     17  C   UNL     1      -5.360  -0.573  -5.811  0.00  0.00    +0.054 C 
BRANCH  17  23
ATOM     18  C   UNL     1      -4.500  -1.751  -7.844  0.00  0.00    +0.006 A 
ATOM     19  C   UNL     1      -4.670  -2.614  -8.911  0.00  0.00    +0.038 A 
ATOM     20  C   UNL     1      -5.894  -3.228  -9.115  0.00  0.00    +0.123 A 
ATOM     21  C   UNL     1      -6.944  -2.982  -8.247  0.00  0.00    +0.038 A 
ATOM     22  C   UNL     1      -6.771  -2.123  -7.178  0.00  0.00    +0.006 A 
ATOM     23  C   UNL     1      -5.548  -1.510  -6.976  0.00  0.00    -0.046 A 
ATOM     24  F   UNL     1      -6.062  -4.068 -10.159  0.00  0.00    -0.205 F 
ENDBRANCH  17  23
ENDBRANCH  16  17
ENDBRANCH  12  16
ENDBRANCH   1  13
BRANCH   5  25
ATOM     25  C   UNL     1      -4.744  -1.115   0.943  0.00  0.00    -0.002 C 
BRANCH  25  26
ATOM     26  C   UNL     1      -4.270  -2.086   1.993  0.00  0.00    +0.089 A 
ATOM     27  C   UNL     1      -3.787  -1.757   3.207  0.00  0.00    +0.043 A 
ATOM     28  C   UNL     1      -3.467  -2.962   3.864  0.00  0.00    +0.050 A 
ATOM     29  C   UNL     1      -3.768  -3.970   3.003  0.00  0.00    +0.135 A 
ATOM     30  O   UNL     1      -4.255  -3.424   1.872  0.00  0.00    -0.462 OA
BRANCH  29  31
ATOM     31  C   UNL     1      -3.593  -5.414   3.263  0.00  0.00    +0.017 A 
ATOM     32  C   UNL     1      -3.071  -5.848   4.483  0.00  0.00    +0.013 A 
ATOM     33  C   UNL     1      -2.913  -7.198   4.721  0.00  0.00    +0.021 A 
ATOM     34  C   UNL     1      -3.263  -8.121   3.750  0.00  0.00    +0.041 A 
ATOM     35  C   UNL     1      -3.778  -7.696   2.537  0.00  0.00    +0.021 A 
ATOM     36  C   UNL     1      -3.944  -6.349   2.288  0.00  0.00    +0.013 A 
ATOM     37 CL   UNL     1      -3.056  -9.817   4.056  0.00  0.00    -0.084 Cl
ENDBRANCH  29  31
ENDBRANCH  25  26
ENDBRANCH   5  25
TORSDOF 8
