REMARK  Name = ZINC20611218
REMARK  6 active torsions:
REMARK  status: ('A' for Active; 'I' for Inactive)
REMARK    1  A    between atoms: C_1  and  C_2
REMARK    2  A    between atoms: C_2  and  C_3
REMARK    3  A    between atoms: C_2  and  N_4
REMARK    4  A    between atoms: C_7  and  C_14
REMARK    5  A    between atoms: C_20  and  O_26
REMARK    6  A    between atoms: O_26  and  C_27
REMARK                            x       y       z     vdW  Elec       q    Type
REMARK                         _______ _______ _______ _____ _____    ______ ____
ROOT
ATOM      1  C   UNL     1      -3.631  -2.648  -2.103  0.00  0.00    +0.018 C 
ATOM      2  C   UNL     1      -3.650  -1.860  -3.391  0.00  0.00    +0.011 A 
ATOM      3  C   UNL     1      -3.234  -2.373  -4.572  0.00  0.00    -0.022 A 
ATOM      4  C   UNL     1      -3.393  -1.338  -5.569  0.00  0.00    +0.006 A 
ATOM      5  C   UNL     1      -3.130  -1.292  -6.942  0.00  0.00    +0.056 A 
ATOM      6  C   UNL     1      -3.413  -0.100  -7.593  0.00  0.00    +0.121 A 
ATOM      7  C   UNL     1      -3.932   0.998  -6.918  0.00  0.00    +0.047 A 
ATOM      8  C   UNL     1      -4.198   0.971  -5.560  0.00  0.00    +0.030 A 
ATOM      9  C   UNL     1      -3.923  -0.215  -4.883  0.00  0.00    +0.047 A 
ATOM     10  N   UNL     1      -4.065  -0.570  -3.569  0.00  0.00    -0.359 N 
ATOM     11  H   UNL     1      -4.409   0.007  -2.869  0.00  0.00    +0.166 HD
ATOM     12  C   UNL     1      -2.717  -3.782  -4.725  0.00  0.00    +0.018 C 
ATOM     13  C   UNL     1      -3.115  -4.567  -3.468  0.00  0.00    -0.076 C 
ATOM     14  N   UNL     1      -2.739  -3.806  -2.269  0.00  0.00    +0.388 N 
ATOM     15  H   UNL     1      -1.787  -3.483  -2.365  0.00  0.00    -0.084 HD
ATOM     16  H   UNL     1      -2.808  -4.400  -1.456  0.00  0.00    -0.084 HD
ENDROOT
BRANCH   1  20
ATOM     17  N   UNL     1      -1.372  -0.511   0.012  0.00  0.00    -0.258 N 
ATOM     18  C   UNL     1      -1.805  -1.291  -0.998  0.00  0.00    +0.262 A 
ATOM     19  O   UNL     1      -1.058  -1.574  -1.918  0.00  0.00    -0.267 OA
ATOM     20  C   UNL     1      -3.125  -1.775  -0.984  0.00  0.00    +0.073 A 
ATOM     21  C   UNL     1      -3.941  -1.444   0.057  0.00  0.00    +0.260 A 
ATOM     22  N   UNL     1      -3.460  -0.648   1.066  0.00  0.00    -0.275 N 
ATOM     23  H   UNL     1      -4.036  -0.410   1.809  0.00  0.00    +0.173 HD
ATOM     24  C   UNL     1      -2.191  -0.200   1.034  0.00  0.00    +0.332 A 
ATOM     25  O   UNL     1      -1.781   0.501   1.939  0.00  0.00    -0.246 OA
ATOM     26  O   UNL     1      -5.213  -1.896   0.096  0.00  0.00    -0.267 OA
BRANCH  17  28
ATOM     27  C   UNL     1      -0.019   1.526   0.010  0.00  0.00    +0.031 C 
ATOM     28  C   UNL     1       0.002  -0.004   0.002  0.00  0.00    +0.089 C 
ATOM     29  C   UNL     1       0.742  -0.511   1.242  0.00  0.00    +0.031 C 
ENDBRANCH  17  28
ENDBRANCH   1  20
BRANCH   6  30
ATOM     30  O   UNL     1      -3.175  -0.004  -8.928  0.00  0.00    -0.495 OA
ATOM     31  C   UNL     1      -3.483   1.244  -9.553  0.00  0.00    +0.277 C 
ENDBRANCH   6  30
TORSDOF 3
