REMARK  Name = ZINC06161341
REMARK  4 active torsions:
REMARK  status: ('A' for Active; 'I' for Inactive)
REMARK    1  A    between atoms: C_4  and  C_7
REMARK    2  A    between atoms: N_17  and  N_18
REMARK    3  A    between atoms: N_20  and  C_21
REMARK    4  A    between atoms: C_25  and  C_27
REMARK                            x       y       z     vdW  Elec       q    Type
REMARK                         _______ _______ _______ _____ _____    ______ ____
ROOT
ATOM      1  C   UNL     1       3.755  -0.837  -0.169  0.00  0.00    +0.030 C 
ATOM      2  C   UNL     1       3.721  -1.861  -1.314  0.00  0.00    +0.062 C 
ATOM      3  C   UNL     1       4.925  -2.755  -1.138  0.00  0.00    +0.053 C 
ATOM      4  N   UNL     1       5.877  -3.029  -1.916  0.00  0.00    -0.189 NA
ATOM      5  N   UNL     1       6.879  -3.788  -1.309  0.00  0.00    -0.224 N 
ATOM      6  C   UNL     1       6.573  -4.024   0.011  0.00  0.00    +0.129 C 
ATOM      7  C   UNL     1       5.172  -3.497   0.173  0.00  0.00    +0.146 C 
ATOM      8  C   UNL     1       5.063  -2.438   1.247  0.00  0.00    +0.052 C 
ATOM      9  N   UNL     1       5.951  -2.309   2.159  0.00  0.00    -0.198 NA
ATOM     10  C   UNL     1       3.844  -1.537   1.185  0.00  0.00    +0.062 C 
ATOM     11  N   UNL     1       7.326  -4.580   0.917  0.00  0.00    -0.235 NA
ATOM     12  H   UNL     1       7.680  -4.105  -1.756  0.00  0.00    +0.176 HD
ENDROOT
BRANCH   1  16
ATOM     13  C   UNL     1       0.201   1.529  -0.297  0.00  0.00    +0.000 A 
ATOM     14  C   UNL     1       1.438   2.132  -0.434  0.00  0.00    +0.000 A 
ATOM     15  C   UNL     1       2.588   1.366  -0.392  0.00  0.00    +0.004 A 
ATOM     16  C   UNL     1       2.501  -0.002  -0.213  0.00  0.00    -0.044 A 
ATOM     17  C   UNL     1       1.265  -0.604  -0.076  0.00  0.00    +0.004 A 
ATOM     18  C   UNL     1       0.115   0.161  -0.119  0.00  0.00    +0.000 A 
ENDBRANCH   1  16
BRANCH  11  19
ATOM     19  C   UNL     1       8.588  -5.006   0.593  0.00  0.00    +0.066 A 
ATOM     20  C   UNL     1       8.806  -5.718  -0.588  0.00  0.00    +0.028 A 
ATOM     21  C   UNL     1      10.078  -6.143  -0.909  0.00  0.00    +0.003 A 
ATOM     22  C   UNL     1      11.138  -5.866  -0.063  0.00  0.00    +0.012 A 
ATOM     23  C   UNL     1      10.929  -5.162   1.109  0.00  0.00    +0.057 A 
ATOM     24  C   UNL     1       9.662  -4.725   1.439  0.00  0.00    +0.040 A 
BRANCH  23  25
ATOM     25  C   UNL     1      12.088  -4.865   2.025  0.00  0.00    +0.417 C 
ATOM     26  F   UNL     1      13.261  -5.399   1.481  0.00  0.00    -0.166 F 
ATOM     27  F   UNL     1      12.228  -3.481   2.167  0.00  0.00    -0.166 F 
ATOM     28  F   UNL     1      11.852  -5.441   3.278  0.00  0.00    -0.166 F 
ENDBRANCH  23  25
ENDBRANCH  11  19
BRANCH   9  29
ATOM     29  N   UNL     1       5.758  -1.393   3.201  0.00  0.00    -0.283 N 
ATOM     30  H   UNL     1       4.946  -0.864   3.237  0.00  0.00    +0.164 HD
ATOM     31  H   UNL     1       6.437  -1.287   3.886  0.00  0.00    +0.164 HD
ENDBRANCH   9  29
TORSDOF 4
