REMARK  Name = ZINC07001576
REMARK  4 active torsions:
REMARK  status: ('A' for Active; 'I' for Inactive)
REMARK    1  A    between atoms: C_7  and  N_23
REMARK    2  A    between atoms: C_8  and  C_10
REMARK    3  A    between atoms: C_15  and  N_64
REMARK    4  A    between atoms: C_24  and  C_26
REMARK                            x       y       z     vdW  Elec       q    Type
REMARK                         _______ _______ _______ _____ _____    ______ ____
ROOT
ATOM      1  C   UNL     1       0.365   1.024   0.377  0.00  0.00    +0.001 A 
ATOM      2  C   UNL     1       0.250   1.172  -0.998  0.00  0.00    +0.004 A 
ATOM      3  C   UNL     1       0.421   2.404  -1.590  0.00  0.00    +0.047 A 
ATOM      4  C   UNL     1       0.724   3.513  -0.806  0.00  0.00    +0.138 A 
ATOM      5  C   UNL     1       0.844   3.355   0.585  0.00  0.00    +0.042 A 
ATOM      6  C   UNL     1       0.661   2.099   1.167  0.00  0.00    +0.013 A 
ATOM      7  C   UNL     1       1.162   4.687   1.112  0.00  0.00    +0.092 A 
ATOM      8  C   UNL     1       1.206   5.518   0.027  0.00  0.00    +0.212 A 
ATOM      9  O   UNL     1       0.946   4.810  -1.095  0.00  0.00    -0.448 OA
ENDROOT
BRANCH   8  10
ATOM     10  C   UNL     1       1.491   6.951   0.073  0.00  0.00    +0.284 C 
ATOM     11  O   UNL     1       2.644   7.343   0.076  0.00  0.00    -0.267 OA
ATOM     12  N   UNL     1       0.477   7.839   0.112  0.00  0.00    -0.295 N 
ATOM     13  C   UNL     1      -0.914   7.381   0.225  0.00  0.00    +0.106 C 
ATOM     14  C   UNL     1      -1.735   7.998  -0.905  0.00  0.00    +0.004 C 
ATOM     15  C   UNL     1      -1.570   9.520  -0.881  0.00  0.00    -0.066 C 
ATOM     16  C   UNL     1      -0.098   9.878  -1.099  0.00  0.00    +0.004 C 
ATOM     17  C   UNL     1       0.742   9.282   0.035  0.00  0.00    +0.106 C 
BRANCH  15  23
ATOM     18  C   UNL     1      -2.172  11.569  -2.019  0.00  0.00    -0.078 C 
ATOM     19  C   UNL     1      -2.918  12.136  -3.230  0.00  0.00    -0.019 C 
ATOM     20  C   UNL     1      -4.411  11.822  -3.095  0.00  0.00    -0.004 C 
ATOM     21  C   UNL     1      -4.598  10.307  -2.975  0.00  0.00    -0.019 C 
ATOM     22  C   UNL     1      -3.804   9.794  -1.772  0.00  0.00    -0.078 C 
ATOM     23  N   UNL     1      -2.373  10.105  -1.974  0.00  0.00    +0.382 N 
ATOM     24  H   UNL     1      -2.067   9.700  -2.867  0.00  0.00    -0.081 HD
ENDBRANCH  15  23
ENDBRANCH   8  10
BRANCH   7  25
ATOM     25  N   UNL     1       1.374   5.034   2.442  0.00  0.00    -0.282 N 
ATOM     26  C   UNL     1       0.809   4.306   3.426  0.00  0.00    +0.220 C 
ATOM     27  O   UNL     1       0.062   3.391   3.151  0.00  0.00    -0.275 OA
ATOM     28  H   UNL     1       1.928   5.799   2.661  0.00  0.00    +0.155 HD
BRANCH  26  29
ATOM     29  C   UNL     1       1.107   4.630   4.867  0.00  0.00    +0.075 C 
ATOM     30  C   UNL     1       2.608   4.427   5.156  0.00  0.00    +0.013 C 
ATOM     31  C   UNL     1       2.644   3.845   6.591  0.00  0.00    +0.001 C 
ATOM     32  C   UNL     1       1.413   2.905   6.610  0.00  0.00    +0.001 C 
ATOM     33  C   UNL     1       0.347   3.662   5.792  0.00  0.00    +0.013 C 
ENDBRANCH  26  29
ENDBRANCH   7  25
TORSDOF 4
