REMARK  Name = ZINC53113338
REMARK  7 active torsions:
REMARK  status: ('A' for Active; 'I' for Inactive)
REMARK    1  A    between atoms: C_1  and  C_2
REMARK    2  A    between atoms: C_7  and  C_9
REMARK    3  A    between atoms: C_7  and  N_11
REMARK    4  A    between atoms: C_9  and  O_10
REMARK    5  A    between atoms: N_11  and  S_12
REMARK    6  A    between atoms: S_12  and  C_15
REMARK    7  A    between atoms: C_17  and  N_22
REMARK                            x       y       z     vdW  Elec       q    Type
REMARK                         _______ _______ _______ _____ _____    ______ ____
ROOT
ATOM      1  S   UNL     1       3.047   2.762   0.811  0.00  0.00    +0.062 S 
ATOM      2  O   UNL     1       3.389   2.507  -0.544  0.00  0.00    -0.153 OA
ATOM      3  O   UNL     1       2.413   3.965   1.223  0.00  0.00    -0.153 OA
ENDROOT
BRANCH   1   4
ATOM      4  C   UNL     1       4.539   2.636   1.739  0.00  0.00    +0.142 A 
ATOM      5  C   UNL     1       5.736   2.395   1.093  0.00  0.00    +0.054 A 
ATOM      6  C   UNL     1       6.912   2.296   1.825  0.00  0.00    +0.027 A 
ATOM      7  C   UNL     1       6.882   2.439   3.206  0.00  0.00    +0.025 A 
ATOM      8  C   UNL     1       5.683   2.680   3.848  0.00  0.00    +0.042 A 
ATOM      9  C   UNL     1       4.513   2.784   3.115  0.00  0.00    +0.150 A 
ATOM     10  F   UNL     1       3.342   3.026   3.745  0.00  0.00    -0.203 F 
BRANCH   6  11
ATOM     11  N   UNL     1       8.124   2.051   1.172  0.00  0.00    -0.358 N 
ATOM     12  H   UNL     1       8.144   1.951   0.208  0.00  0.00    +0.142 HD
ATOM     13  H   UNL     1       8.945   1.982   1.685  0.00  0.00    +0.142 HD
ENDBRANCH   6  11
ENDBRANCH   1   4
BRANCH   1  14
ATOM     14  N   UNL     1       2.064   1.519   1.293  0.00  0.00    -0.182 NA
ATOM     15  H   UNL     1       1.260   1.706   1.802  0.00  0.00    +0.149 HD
BRANCH  14  21
ATOM     16  C   UNL     1      -0.214   1.267   0.297  0.00  0.00    +0.007 C 
ATOM     17  C   UNL     1       0.146  -0.176  -0.062  0.00  0.00    -0.012 C 
ATOM     18  C   UNL     1       0.775  -0.213  -1.457  0.00  0.00    +0.003 C 
ATOM     19  C   UNL     1       2.040   0.646  -1.469  0.00  0.00    +0.002 C 
ATOM     20  C   UNL     1       3.038   0.100  -0.445  0.00  0.00    +0.026 C 
ATOM     21  C   UNL     1       2.409   0.137   0.949  0.00  0.00    +0.063 C 
ATOM     22  C   UNL     1       1.144  -0.722   0.961  0.00  0.00    +0.029 C 
BRANCH  21  23
ATOM     23  C   UNL     1       3.407  -0.409   1.973  0.00  0.00    +0.179 C 
BRANCH  23  24
ATOM     24  O   UNL     1       4.646   0.292   1.852  0.00  0.00    -0.393 OA
ATOM     25  H   UNL     1       5.327  -0.002   2.472  0.00  0.00    +0.209 HD
ENDBRANCH  23  24
ENDBRANCH  21  23
ENDBRANCH  14  21
ENDBRANCH   1  14
TORSDOF 6
