REMARK  Name = ZINC44737171
REMARK  8 active torsions:
REMARK  status: ('A' for Active; 'I' for Inactive)
REMARK    1  A    between atoms: C_1  and  C_2
REMARK    2  A    between atoms: C_9  and  C_11
REMARK    3  A    between atoms: C_11  and  C_13
REMARK    4  A    between atoms: C_11  and  N_14
REMARK    5  A    between atoms: C_15  and  C_17
REMARK    6  A    between atoms: C_28  and  C_30
REMARK    7  A    between atoms: C_33  and  O_36
REMARK    8  A    between atoms: O_36  and  C_37
REMARK                            x       y       z     vdW  Elec       q    Type
REMARK                         _______ _______ _______ _____ _____    ______ ____
ROOT
ATOM      1  C   UNL     1       2.050  -9.039   0.397  0.00  0.00    +0.100 C 
ATOM      2  C   UNL     1       3.132  -8.144  -0.247  0.00  0.00    +0.121 C 
ATOM      3  N   UNL     1       4.353  -8.396   0.554  0.00  0.00    -0.296 N 
ATOM      4  C   UNL     1       4.319  -9.853   0.829  0.00  0.00    +0.115 C 
ATOM      5  C   UNL     1       2.833 -10.162   1.099  0.00  0.00    -0.004 C 
ATOM      6  C   UNL     1       2.458 -11.517   0.507  0.00  0.00    -0.010 C 
ATOM      7  C   UNL     1       3.205 -12.622   1.260  0.00  0.00    -0.082 C 
ATOM      8  N   UNL     1       2.849 -12.572   2.683  0.00  0.00    +0.379 N 
ATOM      9  C   UNL     1       3.297 -11.302   3.267  0.00  0.00    -0.082 C 
ATOM     10  C   UNL     1       2.554 -10.141   2.599  0.00  0.00    -0.010 C 
ATOM     11  C   UNL     1       5.284  -7.504   0.945  0.00  0.00    +0.247 C 
ATOM     12  O   UNL     1       5.109  -6.317   0.748  0.00  0.00    -0.270 OA
ATOM     13  H   UNL     1       1.849 -12.652   2.782  0.00  0.00    -0.086 HD
ATOM     14  H   UNL     1       3.295 -13.338   3.167  0.00  0.00    -0.086 HD
ENDROOT
BRANCH  11  15
ATOM     15  C   UNL     1       6.516  -7.967   1.612  0.00  0.00    +0.037 A 
ATOM     16  C   UNL     1       6.941  -9.290   1.460  0.00  0.00    +0.016 A 
ATOM     17  C   UNL     1       8.091  -9.718   2.084  0.00  0.00    +0.047 A 
ATOM     18  C   UNL     1       8.830  -8.837   2.865  0.00  0.00    +0.130 A 
ATOM     19  C   UNL     1       8.411  -7.520   3.019  0.00  0.00    +0.047 A 
ATOM     20  C   UNL     1       7.265  -7.083   2.394  0.00  0.00    +0.016 A 
BRANCH  18  21
ATOM     21  O   UNL     1       9.963  -9.263   3.478  0.00  0.00    -0.406 OA
BRANCH  21  22
ATOM     22  C   UNL     1      10.674  -8.305   4.266  0.00  0.00    +0.575 C 
ATOM     23  F   UNL     1       9.844  -7.836   5.290  0.00  0.00    -0.133 F 
ATOM     24  F   UNL     1      11.807  -8.908   4.822  0.00  0.00    -0.133 F 
ATOM     25  F   UNL     1      11.065  -7.234   3.456  0.00  0.00    -0.133 F 
ENDBRANCH  21  22
ENDBRANCH  18  21
ENDBRANCH  11  15
BRANCH   1  27
ATOM     26  N   UNL     1      -0.002  -8.644   1.721  0.00  0.00    -0.305 N 
ATOM     27  C   UNL     1       1.247  -8.252   1.401  0.00  0.00    +0.219 C 
ATOM     28  O   UNL     1       1.725  -7.266   1.920  0.00  0.00    -0.275 OA
ATOM     29  H   UNL     1      -0.384  -9.433   1.306  0.00  0.00    +0.149 HD
BRANCH  26  30
ATOM     30  C   UNL     1      -0.782  -7.879   2.697  0.00  0.00    +0.136 C 
ATOM     31  C   UNL     1      -0.431  -8.347   4.110  0.00  0.00    +0.036 C 
BRANCH  30  40
ATOM     32  C   UNL     1      -8.196  -7.770   2.053  0.00  0.00    +0.044 C 
ATOM     33  C   UNL     1      -6.754  -8.202   1.968  0.00  0.00    -0.048 A 
ATOM     34  C   UNL     1      -6.433  -9.416   1.377  0.00  0.00    +0.005 A 
ATOM     35  C   UNL     1      -5.132  -9.825   1.290  0.00  0.00    +0.030 A 
ATOM     36  C   UNL     1      -4.112  -9.018   1.800  0.00  0.00    +0.089 A 
ATOM     37  C   UNL     1      -4.438  -7.789   2.398  0.00  0.00    +0.067 A 
ATOM     38  C   UNL     1      -5.764  -7.387   2.473  0.00  0.00    +0.031 A 
ATOM     39  N   UNL     1      -3.240  -7.230   2.797  0.00  0.00    -0.340 N 
ATOM     40  C   UNL     1      -2.252  -8.098   2.446  0.00  0.00    +0.128 A 
ATOM     41  N   UNL     1      -2.762  -9.143   1.863  0.00  0.00    -0.231 NA
ATOM     42  H   UNL     1      -3.124  -6.377   3.244  0.00  0.00    +0.167 HD
ENDBRANCH  30  40
ENDBRANCH  26  30
ENDBRANCH   1  27
TORSDOF 6
