REMARK  Name = ZINC36652703
REMARK  14 active torsions:
REMARK  status: ('A' for Active; 'I' for Inactive)
REMARK    1  A    between atoms: C_1  and  C_2
REMARK    2  A    between atoms: C_2  and  N_3
REMARK    3  A    between atoms: N_3  and  C_4
REMARK    4  A    between atoms: N_3  and  C_6
REMARK    5  A    between atoms: C_4  and  C_5
REMARK    6  A    between atoms: C_6  and  C_7
REMARK    7  A    between atoms: C_7  and  N_8
REMARK    8  A    between atoms: C_12  and  C_19
REMARK    9  A    between atoms: C_20  and  C_22
REMARK   10  A    between atoms: C_22  and  C_23
REMARK   11  A    between atoms: C_26  and  S_29
REMARK   12  A    between atoms: S_29  and  C_32
REMARK   13  A    between atoms: C_32  and  C_33
REMARK   14  A    between atoms: C_32  and  C_34
REMARK                            x       y       z     vdW  Elec       q    Type
REMARK                         _______ _______ _______ _____ _____    ______ ____
ROOT
ATOM      1  N   UNL     1       1.720  -4.037   2.451  0.00  0.00    -0.252 N 
ATOM      2  C   UNL     1       2.911  -4.551   1.967  0.00  0.00    +0.168 A 
ATOM      3  N   UNL     1       3.262  -5.806   1.810  0.00  0.00    -0.224 NA
ATOM      4  C   UNL     1       4.469  -6.167   1.321  0.00  0.00    +0.085 A 
ATOM      5  C   UNL     1       4.968  -7.473   1.104  0.00  0.00    -0.006 A 
ATOM      6  C   UNL     1       6.227  -7.665   0.598  0.00  0.00    +0.046 A 
ATOM      7  C   UNL     1       7.053  -6.595   0.281  0.00  0.00    +0.021 A 
ATOM      8  C   UNL     1       6.596  -5.305   0.480  0.00  0.00    +0.019 A 
ATOM      9  C   UNL     1       5.337  -5.103   0.987  0.00  0.00    +0.041 A 
ATOM     10  S   UNL     1       4.358  -3.676   1.389  0.00  0.00    -0.052 S 
ATOM     11 CL   UNL     1       6.803  -9.284   0.347  0.00  0.00    -0.083 Cl
ATOM     12  C   UNL     1       4.107  -8.664   1.435  0.00  0.00    +0.047 C 
ATOM     13  C   UNL     1       0.735  -4.870   2.842  0.00  0.00    +0.225 C 
ATOM     14  O   UNL     1       0.892  -6.070   2.770  0.00  0.00    -0.275 OA
ENDROOT
BRANCH   1  15
ATOM     15  C   UNL     1       1.530  -2.587   2.539  0.00  0.00    +0.097 C 
BRANCH  15  16
ATOM     16  C   UNL     1       0.925  -2.071   1.232  0.00  0.00    -0.059 C 
BRANCH  16  17
ATOM     17  N   UNL     1       0.620  -0.640   1.364  0.00  0.00    +0.380 N 
ATOM     18  H   UNL     1       0.028  -0.495   2.168  0.00  0.00    -0.082 HD
BRANCH  17  20
ATOM     19  C   UNL     1       1.547   1.585   1.795  0.00  0.00    -0.017 C 
ATOM     20  C   UNL     1       1.870   0.112   1.534  0.00  0.00    -0.082 C 
ENDBRANCH  17  20
BRANCH  17  21
ATOM     21  C   UNL     1      -0.072  -0.174   0.155  0.00  0.00    -0.082 C 
ATOM     22  C   UNL     1      -1.445  -0.843   0.063  0.00  0.00    -0.017 C 
ENDBRANCH  17  21
ENDBRANCH  16  17
ENDBRANCH  15  16
ENDBRANCH   1  15
BRANCH  13  23
ATOM     23  C   UNL     1      -0.561  -4.310   3.370  0.00  0.00    +0.131 C 
BRANCH  23  24
ATOM     24  C   UNL     1      -1.486  -5.442   3.734  0.00  0.00    -0.038 A 
ATOM     25  C   UNL     1      -2.354  -5.957   2.789  0.00  0.00    +0.006 A 
ATOM     26  C   UNL     1      -3.203  -6.995   3.124  0.00  0.00    +0.027 A 
ATOM     27  C   UNL     1      -3.183  -7.520   4.403  0.00  0.00    +0.088 A 
ATOM     28  C   UNL     1      -2.314  -7.006   5.347  0.00  0.00    +0.027 A 
ATOM     29  C   UNL     1      -1.462  -5.970   5.011  0.00  0.00    +0.006 A 
BRANCH  27  30
ATOM     30  S   UNL     1      -4.266  -8.843   4.829  0.00  0.00    -0.001 S 
ATOM     31  O   UNL     1      -4.450  -8.723   6.233  0.00  0.00    -0.169 OA
ATOM     32  O   UNL     1      -5.367  -8.711   3.941  0.00  0.00    -0.169 OA
BRANCH  30  33
ATOM     33  C   UNL     1      -3.332 -10.351   4.448  0.00  0.00    +0.130 C 
ATOM     34  C   UNL     1      -4.226 -11.573   4.665  0.00  0.00    +0.032 C 
ATOM     35  C   UNL     1      -2.869 -10.309   2.991  0.00  0.00    +0.032 C 
ENDBRANCH  30  33
ENDBRANCH  27  30
ENDBRANCH  23  24
ENDBRANCH  13  23
TORSDOF 9
