REMARK  Name = ZINC40687473
REMARK  4 active torsions:
REMARK  status: ('A' for Active; 'I' for Inactive)
REMARK    1  A    between atoms: C_1  and  C_2
REMARK    2  A    between atoms: C_11  and  N_12
REMARK    3  A    between atoms: C_14  and  N_28
REMARK    4  A    between atoms: C_15  and  N_19
REMARK                            x       y       z     vdW  Elec       q    Type
REMARK                         _______ _______ _______ _____ _____    ______ ____
ROOT
ATOM      1  N   UNL     1       0.056  -4.886  -1.144  0.00  0.00    -0.299 N 
ATOM      2  C   UNL     1       0.185  -6.269  -1.088  0.00  0.00    +0.126 A 
ATOM      3  C   UNL     1       0.304  -7.019  -2.260  0.00  0.00    +0.104 A 
ATOM      4  C   UNL     1       0.431  -8.404  -2.146  0.00  0.00    +0.151 A 
ATOM      5  N   UNL     1       0.435  -8.954  -0.934  0.00  0.00    -0.220 NA
ATOM      6  C   UNL     1       0.321  -8.210   0.147  0.00  0.00    +0.200 A 
ATOM      7  N   UNL     1       0.204  -6.899   0.085  0.00  0.00    -0.333 N 
ATOM      8  H   UNL     1      -0.047  -4.443  -2.001  0.00  0.00    +0.154 HD
ATOM      9  H   UNL     1       0.127  -6.386   0.904  0.00  0.00    +0.168 HD
ENDROOT
BRANCH   1  20
ATOM     10  C   UNL     1       4.710  -3.638   3.206  0.00  0.00    +0.065 C 
ATOM     11  C   UNL     1       3.479  -3.779   2.348  0.00  0.00    +0.039 A 
ATOM     12  C   UNL     1       3.545  -4.547   1.189  0.00  0.00    +0.024 A 
ATOM     13  C   UNL     1       2.438  -4.686   0.399  0.00  0.00    +0.013 A 
ATOM     14  C   UNL     1       1.256  -4.038   0.794  0.00  0.00    +0.022 A 
ATOM     15  C   UNL     1       1.256  -3.271   1.985  0.00  0.00    +0.073 A 
ATOM     16  N   UNL     1       2.373  -3.179   2.716  0.00  0.00    -0.252 NA
ATOM     17  C   UNL     1       0.076  -2.622   2.383  0.00  0.00    +0.028 A 
ATOM     18  C   UNL     1      -1.052  -2.732   1.627  0.00  0.00    +0.004 A 
ATOM     19  C   UNL     1      -1.063  -3.482   0.457  0.00  0.00    +0.024 A 
ATOM     20  C   UNL     1       0.074  -4.137   0.030  0.00  0.00    +0.042 A 
ENDBRANCH   1  20
BRANCH   4  21
ATOM     21  N   UNL     1       0.552  -9.197  -3.282  0.00  0.00    -0.283 N 
ATOM     22  C   UNL     1       1.810  -9.485  -3.976  0.00  0.00    +0.117 C 
ATOM     23  C   UNL     1       1.423 -10.394  -5.153  0.00  0.00    +0.056 C 
ATOM     24  C   UNL     1      -0.076 -10.556  -5.031  0.00  0.00    -0.025 A 
ATOM     25  C   UNL     1      -0.508  -9.842  -3.924  0.00  0.00    +0.038 A 
ATOM     26  C   UNL     1      -1.867  -9.846  -3.603  0.00  0.00    +0.024 A 
ATOM     27  C   UNL     1      -2.761 -10.555  -4.376  0.00  0.00    +0.002 A 
ATOM     28  C   UNL     1      -2.320 -11.268  -5.475  0.00  0.00    +0.000 A 
ATOM     29  C   UNL     1      -0.977 -11.262  -5.805  0.00  0.00    +0.005 A 
ENDBRANCH   4  21
BRANCH   3  30
ATOM     30  N   UNL     1       0.295  -6.396  -3.518  0.00  0.00    -0.353 N 
ATOM     31  H   UNL     1       0.280  -5.428  -3.580  0.00  0.00    +0.143 HD
ATOM     32  H   UNL     1       0.303  -6.933  -4.325  0.00  0.00    +0.143 HD
ENDBRANCH   3  30
TORSDOF 3
