REMARK  Name = ZINC38054063
REMARK  5 active torsions:
REMARK  status: ('A' for Active; 'I' for Inactive)
REMARK    1  A    between atoms: C_1  and  C_2
REMARK    2  A    between atoms: C_2  and  C_4
REMARK    3  A    between atoms: C_2  and  N_16
REMARK    4  A    between atoms: N_6  and  C_7
REMARK    5  A    between atoms: C_8  and  N_15
REMARK                            x       y       z     vdW  Elec       q    Type
REMARK                         _______ _______ _______ _____ _____    ______ ____
ROOT
ATOM      1  C   UNL     1      -0.539  -1.073  -1.825  0.00  0.00    +0.242 C 
ATOM      2  O   UNL     1      -0.688  -2.178  -2.304  0.00  0.00    -0.273 OA
ATOM      3  N   UNL     1       0.231  -0.164  -2.456  0.00  0.00    -0.281 N 
ATOM      4  H   UNL     1       0.292   0.741  -2.113  0.00  0.00    +0.155 HD
ENDROOT
BRANCH   3   5
ATOM      5  C   UNL     1       0.944  -0.527  -3.608  0.00  0.00    +0.073 A 
ATOM      6  C   UNL     1       0.363  -0.374  -4.866  0.00  0.00    +0.049 A 
ATOM      7  C   UNL     1       1.073  -0.735  -6.002  0.00  0.00    +0.044 A 
ATOM      8  C   UNL     1       2.354  -1.243  -5.885  0.00  0.00    +0.044 A 
ATOM      9  C   UNL     1       2.931  -1.395  -4.636  0.00  0.00    +0.042 A 
ATOM     10  C   UNL     1       2.231  -1.033  -3.499  0.00  0.00    +0.065 A 
ATOM     11 CL   UNL     1       2.961  -1.218  -1.935  0.00  0.00    -0.082 Cl
ATOM     12 CL   UNL     1       3.241  -1.694  -7.308  0.00  0.00    -0.083 Cl
BRANCH   6  13
ATOM     13  N   UNL     1      -0.933   0.140  -4.983  0.00  0.00    -0.356 N 
ATOM     14  H   UNL     1      -1.428   0.391  -4.188  0.00  0.00    +0.142 HD
ATOM     15  H   UNL     1      -1.336   0.245  -5.859  0.00  0.00    +0.142 HD
ENDBRANCH   6  13
ENDBRANCH   3   5
BRANCH   1  17
ATOM     16  C   UNL     1      -0.154  -0.346   0.514  0.00  0.00    +0.042 C 
ATOM     17  C   UNL     1      -1.213  -0.718  -0.525  0.00  0.00    +0.190 C 
BRANCH  17  18
ATOM     18  N   UNL     1      -1.986  -1.867  -0.046  0.00  0.00    -0.259 N 
ATOM     19  C   UNL     1      -1.509  -2.893   0.691  0.00  0.00    +0.124 A 
ATOM     20  C   UNL     1      -2.535  -3.744   0.926  0.00  0.00    +0.055 A 
ATOM     21  C   UNL     1      -3.678  -3.219   0.312  0.00  0.00    +0.149 A 
ATOM     22  N   UNL     1      -3.351  -2.092  -0.266  0.00  0.00    -0.178 NA
ATOM     23 BR   UNL     1      -2.441  -5.356   1.910  0.00  0.00    -0.047 Br
ENDBRANCH  17  18
ENDBRANCH   1  17
TORSDOF 4
