REMARK  Name = ZINC09776419
REMARK  10 active torsions:
REMARK  status: ('A' for Active; 'I' for Inactive)
REMARK    1  A    between atoms: C_1  and  O_2
REMARK    2  A    between atoms: O_2  and  C_3
REMARK    3  A    between atoms: C_6  and  C_9
REMARK    4  A    between atoms: C_11  and  C_30
REMARK    5  A    between atoms: N_21  and  C_22
REMARK    6  A    between atoms: C_25  and  O_28
REMARK    7  A    between atoms: O_28  and  C_29
REMARK    8  A    between atoms: N_32  and  C_33
REMARK    9  A    between atoms: C_33  and  C_34
REMARK   10  A    between atoms: C_34  and  C_35
REMARK                            x       y       z     vdW  Elec       q    Type
REMARK                         _______ _______ _______ _____ _____    ______ ____
ROOT
ATOM      1  C   UNL     1      -2.728   0.840  -0.067  0.00  0.00    +0.128 C 
ATOM      2  C   UNL     1      -3.390   0.949  -1.439  0.00  0.00    +0.131 C 
ATOM      3  C   UNL     1      -3.624   2.393  -1.790  0.00  0.00    -0.021 A 
ATOM      4  C   UNL     1      -3.564   2.818  -3.100  0.00  0.00    +0.005 A 
ATOM      5  C   UNL     1      -3.802   4.146  -3.408  0.00  0.00    +0.000 A 
ATOM      6  C   UNL     1      -4.099   5.055  -2.407  0.00  0.00    +0.001 A 
ATOM      7  C   UNL     1      -4.156   4.644  -1.091  0.00  0.00    +0.013 A 
ATOM      8  C   UNL     1      -3.913   3.308  -0.776  0.00  0.00    +0.041 A 
ATOM      9  C   UNL     1      -3.954   2.839   0.625  0.00  0.00    +0.252 C 
ATOM     10  O   UNL     1      -4.431   3.542   1.495  0.00  0.00    -0.270 OA
ATOM     11  N   UNL     1      -3.458   1.624   0.928  0.00  0.00    -0.259 N 
ENDROOT
BRANCH   1  15
ATOM     12  C   UNL     1       1.285   2.285  -0.331  0.00  0.00    +0.120 A 
ATOM     13  C   UNL     1       1.033   0.921  -0.368  0.00  0.00    +0.046 A 
ATOM     14  C   UNL     1      -0.265   0.456  -0.279  0.00  0.00    +0.009 A 
ATOM     15  C   UNL     1      -1.313   1.349  -0.158  0.00  0.00    -0.025 A 
ATOM     16  C   UNL     1      -1.065   2.709  -0.115  0.00  0.00    +0.009 A 
ATOM     17  C   UNL     1       0.232   3.179  -0.204  0.00  0.00    +0.046 A 
BRANCH  12  19
ATOM     18  C   UNL     1       2.745   4.160  -0.373  0.00  0.00    +0.277 C 
ATOM     19  O   UNL     1       2.561   2.744  -0.418  0.00  0.00    -0.495 OA
ENDBRANCH  12  19
ENDBRANCH   1  15
BRANCH  11  20
ATOM     20  C   UNL     1      -3.643   1.104   2.215  0.00  0.00    +0.037 A 
ATOM     21  C   UNL     1      -4.918   0.768   2.651  0.00  0.00    +0.027 A 
ATOM     22  C   UNL     1      -5.100   0.252   3.918  0.00  0.00    +0.047 A 
ATOM     23  C   UNL     1      -4.011   0.077   4.759  0.00  0.00    +0.120 A 
ATOM     24  C   UNL     1      -2.737   0.417   4.326  0.00  0.00    +0.047 A 
ATOM     25  C   UNL     1      -2.553   0.929   3.057  0.00  0.00    +0.027 A 
BRANCH  23  26
ATOM     26  O   UNL     1      -4.191  -0.427   6.009  0.00  0.00    -0.495 OA
ATOM     27  C   UNL     1      -5.529  -0.755   6.389  0.00  0.00    +0.277 C 
ENDBRANCH  23  26
ENDBRANCH  11  20
BRANCH   2  28
ATOM     28  C   UNL     1      -4.708   0.220  -1.417  0.00  0.00    +0.223 C 
ATOM     29  O   UNL     1      -5.080  -0.332  -0.402  0.00  0.00    -0.275 OA
ATOM     30  N   UNL     1      -5.475   0.180  -2.525  0.00  0.00    -0.314 N 
ATOM     31  H   UNL     1      -5.178   0.621  -3.336  0.00  0.00    +0.149 HD
BRANCH  30  32
ATOM     32  C   UNL     1      -6.757  -0.529  -2.503  0.00  0.00    +0.108 C 
BRANCH  32  33
ATOM     33  C   UNL     1      -7.422  -0.421  -3.877  0.00  0.00    +0.049 C 
BRANCH  33  34
ATOM     34  C   UNL     1      -8.741  -1.150  -3.855  0.00  0.00    -0.072 C 
ATOM     35  C   UNL     1      -9.810  -0.463  -3.613  0.00  0.00    -0.028 C 
ATOM     36  C   UNL     1     -11.190  -1.049  -3.550  0.00  0.00    +0.027 C 
ATOM     37  C   UNL     1     -11.208  -2.429  -4.212  0.00  0.00    +0.004 C 
ATOM     38  C   UNL     1     -10.046  -3.254  -3.644  0.00  0.00    +0.005 C 
ATOM     39  C   UNL     1      -8.732  -2.627  -4.121  0.00  0.00    +0.030 C 
ENDBRANCH  33  34
ENDBRANCH  32  33
ENDBRANCH  30  32
ENDBRANCH   2  28
TORSDOF 8
