REMARK  Name = ZINC39710978
REMARK  15 active torsions:
REMARK  status: ('A' for Active; 'I' for Inactive)
REMARK    1  A    between atoms: C_1  and  C_2
REMARK    2  A    between atoms: C_2  and  O_3
REMARK    3  A    between atoms: O_3  and  C_4
REMARK    4  A    between atoms: C_7  and  C_10
REMARK    5  A    between atoms: C_10  and  N_11
REMARK    6  A    between atoms: N_11  and  C_12
REMARK    7  A    between atoms: N_11  and  C_18
REMARK    8  A    between atoms: C_12  and  C_13
REMARK    9  A    between atoms: C_18  and  C_20
REMARK   10  A    between atoms: C_18  and  C_33
REMARK   11  A    between atoms: C_27  and  C_32
REMARK   12  A    between atoms: N_38  and  C_39
REMARK   13  A    between atoms: C_39  and  C_40
REMARK   14  A    between atoms: C_39  and  C_41
REMARK   15  A    between atoms: C_39  and  C_42
REMARK                            x       y       z     vdW  Elec       q    Type
REMARK                         _______ _______ _______ _____ _____    ______ ____
ROOT
ATOM      1  C   UNL     1      -2.834  -7.948   1.562  0.00  0.00    -0.008 C 
ENDROOT
BRANCH   1   2
ATOM      2  C   UNL     1      -3.531  -8.798   2.626  0.00  0.00    +0.088 C 
ATOM      3  C   UNL     1      -3.484 -10.244   2.171  0.00  0.00    -0.006 C 
ATOM      4  C   UNL     1      -4.674 -10.893   2.028  0.00  0.00    -0.007 A 
ATOM      5  C   UNL     1      -4.721 -12.289   1.593  0.00  0.00    +0.009 A 
ATOM      6  C   UNL     1      -5.929 -12.895   1.463  0.00  0.00    +0.001 A 
ATOM      7  C   UNL     1      -7.116 -12.214   1.735  0.00  0.00    +0.005 A 
ATOM      8  C   UNL     1      -7.141 -10.918   2.142  0.00  0.00    -0.029 A 
ATOM      9  C   UNL     1      -5.943 -10.198   2.309  0.00  0.00    +0.043 A 
ATOM     10  N   UNL     1      -5.979  -8.928   2.709  0.00  0.00    -0.284 N 
ATOM     11  C   UNL     1      -4.893  -8.195   2.883  0.00  0.00    +0.223 C 
ATOM     12  O   UNL     1      -4.990  -7.039   3.250  0.00  0.00    -0.275 OA
ATOM     13  C   UNL     1      -8.461 -10.246   2.417  0.00  0.00    +0.045 C 
ATOM     14  H   UNL     1      -6.843  -8.522   2.880  0.00  0.00    +0.155 HD
ENDBRANCH   1   2
BRANCH   1  15
ATOM     15  C   UNL     1      -1.367  -8.370   1.453  0.00  0.00    +0.205 C 
ATOM     16  N   UNL     1      -0.744  -7.755   0.273  0.00  0.00    -0.152 NA
ATOM     17  N   UNL     1      -0.363  -8.647  -0.487  0.00  0.00    -0.070 NA
ATOM     18  N   UNL     1      -0.635  -9.926  -0.003  0.00  0.00    -0.179 N 
ATOM     19  N   UNL     1      -1.265  -9.824   1.214  0.00  0.00    -0.183 NA
ATOM     20  H   UNL     1      -0.415 -10.756  -0.453  0.00  0.00    +0.191 HD
BRANCH  19  21
ATOM     21  C   UNL     1      -0.481 -10.478   2.270  0.00  0.00    +0.035 C 
ATOM     22  C   UNL     1      -1.088 -10.146   3.635  0.00  0.00    +0.029 C 
ATOM     23  C   UNL     1      -0.502 -11.993   2.058  0.00  0.00    +0.029 C 
ATOM     24  C   UNL     1       0.963  -9.975   2.219  0.00  0.00    +0.029 C 
ENDBRANCH  19  21
ENDBRANCH   1  15
BRANCH   1  25
ATOM     25  N   UNL     1      -2.909  -6.531   1.940  0.00  0.00    +0.392 N 
ATOM     26  H   UNL     1      -3.875  -6.269   2.073  0.00  0.00    -0.080 HD
BRANCH  25  27
ATOM     27  C   UNL     1      -2.168  -6.318   3.190  0.00  0.00    -0.042 C 
BRANCH  27  31
ATOM     28  C   UNL     1      -2.740  -2.296   4.518  0.00  0.00    +0.121 A 
ATOM     29  C   UNL     1      -3.610  -3.295   4.932  0.00  0.00    +0.046 A 
ATOM     30  C   UNL     1      -3.423  -4.594   4.501  0.00  0.00    +0.005 A 
ATOM     31  C   UNL     1      -2.370  -4.899   3.658  0.00  0.00    -0.064 A 
ATOM     32  C   UNL     1      -1.502  -3.906   3.245  0.00  0.00    +0.005 A 
ATOM     33  C   UNL     1      -1.688  -2.604   3.668  0.00  0.00    +0.046 A 
BRANCH  28  34
ATOM     34  O   UNL     1      -2.922  -1.017   4.940  0.00  0.00    -0.492 OA
BRANCH  34  36
ATOM     35  C   UNL     1      -4.069   0.712   6.179  0.00  0.00    +0.048 C 
ATOM     36  C   UNL     1      -4.026  -0.773   5.814  0.00  0.00    +0.225 C 
ENDBRANCH  34  36
ENDBRANCH  28  34
ENDBRANCH  27  31
ENDBRANCH  25  27
BRANCH  25  37
ATOM     37  C   UNL     1      -2.321  -5.708   0.875  0.00  0.00    -0.002 C 
BRANCH  37  38
ATOM     38  C   UNL     1      -3.121  -5.877  -0.391  0.00  0.00    +0.089 A 
ATOM     39  C   UNL     1      -4.235  -5.196  -0.714  0.00  0.00    +0.042 A 
ATOM     40  C   UNL     1      -4.652  -5.670  -1.979  0.00  0.00    +0.041 A 
ATOM     41  C   UNL     1      -3.768  -6.612  -2.353  0.00  0.00    +0.195 A 
ATOM     42  O   UNL     1      -2.840  -6.729  -1.389  0.00  0.00    -0.470 OA
ENDBRANCH  37  38
ENDBRANCH  25  37
ENDBRANCH   1  25
TORSDOF 10
