REMARK  Name = ZINC36119089
REMARK  15 active torsions:
REMARK  status: ('A' for Active; 'I' for Inactive)
REMARK    1  A    between atoms: C_1  and  C_2
REMARK    2  A    between atoms: C_2  and  C_3
REMARK    3  A    between atoms: C_3  and  C_5
REMARK    4  A    between atoms: C_3  and  C_6
REMARK    5  A    between atoms: C_6  and  N_7
REMARK    6  A    between atoms: N_7  and  C_8
REMARK    7  A    between atoms: C_8  and  C_9
REMARK    8  A    between atoms: C_19  and  C_21
REMARK    9  A    between atoms: C_21  and  O_22
REMARK   10  A    between atoms: O_22  and  C_23
REMARK   11  A    between atoms: C_26  and  C_30
REMARK   12  A    between atoms: C_28  and  C_29
REMARK   13  A    between atoms: C_31  and  C_33
REMARK   14  A    between atoms: C_36  and  O_39
REMARK   15  A    between atoms: O_39  and  C_40
REMARK                            x       y       z     vdW  Elec       q    Type
REMARK                         _______ _______ _______ _____ _____    ______ ____
ROOT
ATOM      1  C   UNL     1       3.348  -3.288  -2.260  0.00  0.00    +0.234 C 
ATOM      2  O   UNL     1       2.660  -4.226  -1.917  0.00  0.00    -0.274 OA
ATOM      3  N   UNL     1       4.691  -3.401  -2.256  0.00  0.00    -0.289 N 
ATOM      4  C   UNL     1       5.536  -2.268  -2.663  0.00  0.00    +0.114 C 
ATOM      5  C   UNL     1       6.289  -2.663  -3.943  0.00  0.00    +0.061 C 
ATOM      6  C   UNL     1       6.794  -4.061  -3.789  0.00  0.00    -0.004 A 
ATOM      7  C   UNL     1       6.403  -4.996  -2.881  0.00  0.00    -0.014 A 
ATOM      8  C   UNL     1       7.029  -6.239  -2.954  0.00  0.00    +0.013 A 
ATOM      9  C   UNL     1       7.978  -6.465  -3.891  0.00  0.00    +0.046 A 
ATOM     10  S   UNL     1       8.036  -4.894  -4.741  0.00  0.00    -0.101 S 
ATOM     11  C   UNL     1       5.332  -4.655  -1.840  0.00  0.00    +0.144 C 
ENDROOT
BRANCH   1  12
ATOM     12  C   UNL     1       2.702  -1.996  -2.688  0.00  0.00    +0.204 C 
BRANCH  12  13
ATOM     13  N   UNL     1       1.245  -2.127  -2.604  0.00  0.00    -0.288 N 
ATOM     14  C   UNL     1       0.532  -2.443  -3.704  0.00  0.00    +0.247 C 
ATOM     15  O   UNL     1      -0.681  -2.500  -3.646  0.00  0.00    -0.270 OA
BRANCH  14  16
ATOM     16  C   UNL     1       1.224  -2.720  -4.978  0.00  0.00    +0.037 A 
ATOM     17  C   UNL     1       2.373  -3.515  -4.993  0.00  0.00    +0.016 A 
ATOM     18  C   UNL     1       3.016  -3.771  -6.183  0.00  0.00    +0.046 A 
ATOM     19  C   UNL     1       2.523  -3.239  -7.369  0.00  0.00    +0.120 A 
ATOM     20  C   UNL     1       1.381  -2.448  -7.359  0.00  0.00    +0.046 A 
ATOM     21  C   UNL     1       0.729  -2.192  -6.173  0.00  0.00    +0.016 A 
BRANCH  19  22
ATOM     22  O   UNL     1       3.160  -3.493  -8.541  0.00  0.00    -0.495 OA
ATOM     23  C   UNL     1       2.600  -2.916  -9.722  0.00  0.00    +0.277 C 
ENDBRANCH  19  22
ENDBRANCH  14  16
BRANCH  13  24
ATOM     24  C   UNL     1       0.563  -1.916  -1.325  0.00  0.00    +0.112 C 
BRANCH  24  25
ATOM     25  C   UNL     1       0.057  -0.474  -1.250  0.00  0.00    +0.003 C 
ATOM     26  C   UNL     1       1.248   0.485  -1.236  0.00  0.00    +0.009 C 
BRANCH  25  28
ATOM     27  C   UNL     1      -1.372   1.115   0.044  0.00  0.00    +0.004 C 
ATOM     28  C   UNL     1      -0.762  -0.288   0.029  0.00  0.00    +0.001 C 
ENDBRANCH  25  28
ENDBRANCH  24  25
ENDBRANCH  13  24
ENDBRANCH  12  13
ENDBRANCH   1  12
BRANCH  11  29
ATOM     29  C   UNL     1       5.979  -4.476  -0.465  0.00  0.00    +0.256 C 
BRANCH  29  30
ATOM     30  O   UNL     1       7.042  -3.525  -0.559  0.00  0.00    -0.490 OA
BRANCH  30  31
ATOM     31  C   UNL     1       7.725  -3.249   0.583  0.00  0.00    +0.124 A 
ATOM     32  C   UNL     1       7.383  -3.884   1.768  0.00  0.00    +0.046 A 
ATOM     33  C   UNL     1       8.080  -3.601   2.927  0.00  0.00    +0.007 A 
ATOM     34  C   UNL     1       9.117  -2.687   2.906  0.00  0.00    -0.050 A 
ATOM     35  C   UNL     1       9.459  -2.053   1.727  0.00  0.00    +0.010 A 
ATOM     36  C   UNL     1       8.769  -2.336   0.564  0.00  0.00    -0.009 A 
ATOM     37  C   UNL     1       9.147  -1.649  -0.724  0.00  0.00    +0.047 C 
ATOM     38  C   UNL     1       9.875  -2.380   4.173  0.00  0.00    +0.044 C 
ENDBRANCH  30  31
ENDBRANCH  29  30
ENDBRANCH  11  29
TORSDOF 10
