REMARK  Name = ZINC22673209
REMARK  12 active torsions:
REMARK  status: ('A' for Active; 'I' for Inactive)
REMARK    1  A    between atoms: C_1  and  C_2
REMARK    2  A    between atoms: C_2  and  C_3
REMARK    3  A    between atoms: C_3  and  C_5
REMARK    4  A    between atoms: C_3  and  C_6
REMARK    5  A    between atoms: C_11  and  N_12
REMARK    6  A    between atoms: C_13  and  C_15
REMARK    7  A    between atoms: C_15  and  C_17
REMARK    8  A    between atoms: C_15  and  S_18
REMARK    9  A    between atoms: S_18  and  C_19
REMARK   10  A    between atoms: C_22  and  C_30
REMARK   11  A    between atoms: N_23  and  C_24
REMARK   12  A    between atoms: C_30  and  N_31
REMARK                            x       y       z     vdW  Elec       q    Type
REMARK                         _______ _______ _______ _____ _____    ______ ____
ROOT
ATOM      1  C   UNL     1       0.005  -0.015   0.028  0.00  0.00    +0.197 A 
ATOM      2  N   UNL     1      -0.010   1.297   0.039  0.00  0.00    -0.122 NA
ATOM      3  N   UNL     1       1.194   1.749   0.038  0.00  0.00    -0.135 NA
ATOM      4  C   UNL     1       2.043   0.761   0.025  0.00  0.00    +0.122 A 
ATOM      5  N   UNL     1       1.317  -0.401   0.019  0.00  0.00    -0.276 N 
ENDROOT
BRANCH   5   6
ATOM      6  C   UNL     1       1.816  -1.712   0.005  0.00  0.00    +0.050 A 
ATOM      7  C   UNL     1       2.547  -2.188   1.084  0.00  0.00    +0.026 A 
ATOM      8  C   UNL     1       3.033  -3.482   1.071  0.00  0.00    +0.002 A 
ATOM      9  C   UNL     1       2.799  -4.298  -0.021  0.00  0.00    +0.000 A 
ATOM     10  C   UNL     1       2.075  -3.824  -1.100  0.00  0.00    +0.002 A 
ATOM     11  C   UNL     1       1.583  -2.533  -1.089  0.00  0.00    +0.026 A 
ENDBRANCH   5   6
BRANCH   1  12
ATOM     12  S   UNL     1      -1.400  -1.079   0.024  0.00  0.00    -0.073 S 
BRANCH  12  13
ATOM     13  C   UNL     1      -2.727   0.152   0.041  0.00  0.00    +0.137 C 
ATOM     14  C   UNL     1      -2.691   0.957  -1.260  0.00  0.00    +0.029 C 
BRANCH  13  16
ATOM     15  N   UNL     1      -5.137   0.136   0.596  0.00  0.00    -0.284 N 
ATOM     16  C   UNL     1      -4.057  -0.545   0.164  0.00  0.00    +0.230 C 
ATOM     17  O   UNL     1      -4.156  -1.718  -0.126  0.00  0.00    -0.274 OA
ATOM     18  H   UNL     1      -5.032   1.179   0.929  0.00  0.00    +0.155 HD
BRANCH  15  24
ATOM     19  C   UNL     1      -7.536   0.252   0.342  0.00  0.00    -0.023 A 
ATOM     20  C   UNL     1      -8.773  -0.363   0.366  0.00  0.00    +0.006 A 
ATOM     21  C   UNL     1      -8.872  -1.709   0.668  0.00  0.00    +0.000 A 
ATOM     22  C   UNL     1      -7.733  -2.444   0.945  0.00  0.00    +0.002 A 
ATOM     23  C   UNL     1      -6.493  -1.837   0.916  0.00  0.00    +0.023 A 
ATOM     24  C   UNL     1      -6.391  -0.483   0.620  0.00  0.00    +0.037 A 
BRANCH  19  25
ATOM     25  C   UNL     1      -7.429   1.718   0.013  0.00  0.00    +0.017 C 
ATOM     26  C   UNL     1      -8.106   1.990  -1.332  0.00  0.00    +0.012 C 
BRANCH  25  28
ATOM     27  C   UNL     1      -7.903   4.029   0.838  0.00  0.00    +0.004 C 
ATOM     28  C   UNL     1      -8.119   2.538   1.106  0.00  0.00    +0.004 C 
ENDBRANCH  25  28
ENDBRANCH  19  25
ENDBRANCH  15  24
ENDBRANCH  13  16
ENDBRANCH  12  13
ENDBRANCH   1  12
BRANCH   4  29
ATOM     29  C   UNL     1       3.546   0.875   0.020  0.00  0.00    -0.001 C 
BRANCH  29  30
ATOM     30  N   UNL     1       4.029   0.924  -1.366  0.00  0.00    +0.384 N 
ATOM     31  C   UNL     1       3.767  -0.344  -2.059  0.00  0.00    -0.078 C 
ATOM     32  C   UNL     1       4.149  -0.208  -3.535  0.00  0.00    -0.019 C 
ATOM     33  C   UNL     1       5.632   0.157  -3.642  0.00  0.00    -0.004 C 
ATOM     34  C   UNL     1       5.886   1.455  -2.872  0.00  0.00    -0.019 C 
ATOM     35  C   UNL     1       5.455   1.271  -1.415  0.00  0.00    -0.078 C 
ATOM     36  H   UNL     1       3.473   1.714  -1.892  0.00  0.00    -0.081 HD
ENDBRANCH  29  30
ENDBRANCH   4  29
TORSDOF 9
