REMARK  Name = ZINC08200247
REMARK  7 active torsions:
REMARK  status: ('A' for Active; 'I' for Inactive)
REMARK    1  A    between atoms: C_1  and  C_2
REMARK    2  A    between atoms: C_2  and  C_3
REMARK    3  A    between atoms: C_6  and  O_10
REMARK    4  A    between atoms: O_10  and  C_11
REMARK    5  A    between atoms: C_11  and  C_12
REMARK    6  A    between atoms: N_14  and  C_15
REMARK    7  A    between atoms: C_19  and  N_21
REMARK                            x       y       z     vdW  Elec       q    Type
REMARK                         _______ _______ _______ _____ _____    ______ ____
ROOT
ATOM      1  C   UNL     1      -3.043   4.484   6.402  0.00  0.00    +0.255 C 
ATOM      2  O   UNL     1      -3.901   3.714   6.780  0.00  0.00    -0.272 OA
ATOM      3  N   UNL     1      -2.821   5.629   7.078  0.00  0.00    -0.283 N 
ATOM      4  H   UNL     1      -2.091   6.212   6.816  0.00  0.00    +0.155 HD
ENDROOT
BRANCH   3   5
ATOM      5  C   UNL     1      -3.643   5.976   8.156  0.00  0.00    +0.036 A 
ATOM      6  C   UNL     1      -3.949   7.309   8.396  0.00  0.00    +0.025 A 
ATOM      7  C   UNL     1      -4.764   7.649   9.458  0.00  0.00    +0.024 A 
ATOM      8  C   UNL     1      -5.267   6.663  10.289  0.00  0.00    +0.071 A 
ATOM      9  C   UNL     1      -4.959   5.335  10.055  0.00  0.00    +0.146 A 
ATOM     10  C   UNL     1      -4.148   4.989   8.991  0.00  0.00    +0.057 A 
ATOM     11 CL   UNL     1      -6.286   7.094  11.626  0.00  0.00    -0.081 Cl
BRANCH   9  12
ATOM     12  N   UNL     1      -5.498   4.283  10.946  0.00  0.00    +0.058 N 
ATOM     13  O   UNL     1      -5.228   3.113  10.741  0.00  0.00    -0.126 OA
ATOM     14  O   UNL     1      -6.213   4.587  11.884  0.00  0.00    -0.126 OA
ENDBRANCH   9  12
ENDBRANCH   3   5
BRANCH   1  15
ATOM     15  C   UNL     1      -2.226   4.160   5.178  0.00  0.00    +0.324 C 
BRANCH  15  16
ATOM     16  O   UNL     1      -2.646   2.903   4.644  0.00  0.00    -0.482 OA
BRANCH  16  20
ATOM     17  C   UNL     1      -0.702   1.561   1.261  0.00  0.00    -0.046 A 
ATOM     18  C   UNL     1      -0.340   2.767   1.833  0.00  0.00    +0.007 A 
ATOM     19  C   UNL     1      -0.994   3.221   2.962  0.00  0.00    +0.047 A 
ATOM     20  C   UNL     1      -2.006   2.461   3.530  0.00  0.00    +0.135 A 
ATOM     21  C   UNL     1      -2.363   1.248   2.958  0.00  0.00    +0.060 A 
ATOM     22  C   UNL     1      -1.710   0.801   1.824  0.00  0.00    +0.022 A 
ATOM     23 BR   UNL     1      -3.741   0.207   3.728  0.00  0.00    -0.047 Br
BRANCH  17  25
ATOM     24  C   UNL     1      -0.721   1.582  -1.218  0.00  0.00    +0.009 C 
ATOM     25  C   UNL     1       0.009   1.072   0.026  0.00  0.00    +0.032 C 
ENDBRANCH  17  25
ENDBRANCH  16  20
ENDBRANCH  15  16
ENDBRANCH   1  15
TORSDOF 6
