REMARK  Name = ZINC40353687
REMARK  9 active torsions:
REMARK  status: ('A' for Active; 'I' for Inactive)
REMARK    1  A    between atoms: C_1  and  C_2
REMARK    2  A    between atoms: C_2  and  C_3
REMARK    3  A    between atoms: C_3  and  C_4
REMARK    4  A    between atoms: C_4  and  C_6
REMARK    5  A    between atoms: C_4  and  N_9
REMARK    6  A    between atoms: C_6  and  N_8
REMARK    7  A    between atoms: C_10  and  C_12
REMARK    8  A    between atoms: C_14  and  C_19
REMARK    9  A    between atoms: C_17  and  O_18
REMARK                            x       y       z     vdW  Elec       q    Type
REMARK                         _______ _______ _______ _____ _____    ______ ____
ROOT
ATOM      1  N   UNL     1       1.551  -2.512   0.092  0.00  0.00    -0.303 N 
ATOM      2  C   UNL     1       1.321  -3.735  -0.427  0.00  0.00    +0.248 C 
ATOM      3  O   UNL     1       0.459  -4.446   0.052  0.00  0.00    -0.270 OA
ATOM      4  H   UNL     1       2.238  -1.944  -0.291  0.00  0.00    +0.150 HD
ENDROOT
BRANCH   2   5
ATOM      5  C   UNL     1       2.114  -4.209  -1.577  0.00  0.00    +0.078 A 
ATOM      6  C   UNL     1       3.109  -3.397  -2.127  0.00  0.00    +0.020 A 
ATOM      7  C   UNL     1       3.847  -3.847  -3.200  0.00  0.00    -0.050 A 
ATOM      8  C   UNL     1       3.607  -5.101  -3.737  0.00  0.00    +0.007 A 
ATOM      9  C   UNL     1       2.627  -5.914  -3.204  0.00  0.00    +0.046 A 
ATOM     10  C   UNL     1       1.878  -5.480  -2.120  0.00  0.00    +0.129 A 
ATOM     11  C   UNL     1       4.920  -2.970  -3.793  0.00  0.00    +0.044 C 
BRANCH  10  12
ATOM     12  O   UNL     1       0.918  -6.279  -1.591  0.00  0.00    -0.506 OA
ATOM     13  H   UNL     1       0.046  -6.164  -1.991  0.00  0.00    +0.292 HD
ENDBRANCH  10  12
ENDBRANCH   2   5
BRANCH   1  14
ATOM     14  C   UNL     1       0.763  -2.041   1.233  0.00  0.00    +0.125 C 
BRANCH  14  15
ATOM     15  C   UNL     1       1.382  -2.542   2.512  0.00  0.00    +0.067 C 
ATOM     16  S   UNL     1       2.823  -3.235   2.485  0.00  0.00    -0.039 S 
BRANCH  15  17
ATOM     17  N   UNL     1       0.722  -2.405   3.679  0.00  0.00    -0.354 N 
ATOM     18  H   UNL     1      -0.152  -1.985   3.696  0.00  0.00    +0.143 HD
ATOM     19  H   UNL     1       1.121  -2.728   4.503  0.00  0.00    +0.143 HD
ENDBRANCH  15  17
ENDBRANCH  14  15
BRANCH  14  20
ATOM     20  C   UNL     1       0.742  -0.511   1.242  0.00  0.00    +0.028 C 
BRANCH  20  22
ATOM     21  C   UNL     1      -0.019   1.526   0.010  0.00  0.00    +0.004 C 
ATOM     22  C   UNL     1       0.002  -0.004   0.002  0.00  0.00    -0.001 C 
ENDBRANCH  20  22
ENDBRANCH  14  20
ENDBRANCH   1  14
TORSDOF 7
