REMARK  Name = ZINC20067610
REMARK  9 active torsions:
REMARK  status: ('A' for Active; 'I' for Inactive)
REMARK    1  A    between atoms: C_1  and  C_2
REMARK    2  A    between atoms: C_5  and  N_8
REMARK    3  A    between atoms: C_9  and  C_28
REMARK    4  A    between atoms: C_12  and  S_13
REMARK    5  A    between atoms: S_13  and  C_14
REMARK    6  A    between atoms: C_14  and  C_15
REMARK    7  A    between atoms: N_20  and  C_21
REMARK    8  A    between atoms: C_21  and  C_22
REMARK    9  A    between atoms: C_22  and  C_23
REMARK                            x       y       z     vdW  Elec       q    Type
REMARK                         _______ _______ _______ _____ _____    ______ ____
ROOT
ATOM      1  N   UNL     1      11.450  -1.904  -6.261  0.00  0.00    -0.270 N 
ATOM      2  C   UNL     1      12.578  -2.304  -5.579  0.00  0.00    +0.169 A 
ATOM      3  N   UNL     1      12.307  -2.209  -4.298  0.00  0.00    -0.128 NA
ATOM      4  N   UNL     1      11.107  -1.780  -4.133  0.00  0.00    -0.122 NA
ATOM      5  C   UNL     1      10.536  -1.573  -5.298  0.00  0.00    +0.197 A 
ENDROOT
BRANCH   1  10
ATOM      6  C   UNL     1      10.745  -1.670 -11.888  0.00  0.00    +0.044 C 
ATOM      7  C   UNL     1      10.932  -1.732 -10.394  0.00  0.00    -0.050 A 
ATOM      8  C   UNL     1      10.912  -0.569  -9.647  0.00  0.00    +0.005 A 
ATOM      9  C   UNL     1      11.083  -0.622  -8.277  0.00  0.00    +0.026 A 
ATOM     10  C   UNL     1      11.275  -1.846  -7.651  0.00  0.00    +0.051 A 
ATOM     11  C   UNL     1      11.300  -3.012  -8.404  0.00  0.00    +0.026 A 
ATOM     12  C   UNL     1      11.123  -2.953  -9.772  0.00  0.00    +0.005 A 
ENDBRANCH   1  10
BRANCH   2  13
ATOM     13  C   UNL     1      13.851  -2.760  -6.176  0.00  0.00    +0.020 A 
ATOM     14  C   UNL     1      14.114  -2.526  -7.527  0.00  0.00    +0.011 A 
ATOM     15  C   UNL     1      15.306  -2.949  -8.078  0.00  0.00    +0.001 A 
ATOM     16  C   UNL     1      16.235  -3.614  -7.296  0.00  0.00    +0.000 A 
ATOM     17  C   UNL     1      15.978  -3.853  -5.958  0.00  0.00    +0.001 A 
ATOM     18  C   UNL     1      14.792  -3.430  -5.394  0.00  0.00    +0.011 A 
ENDBRANCH   2  13
BRANCH   5  19
ATOM     19  S   UNL     1       8.897  -0.985  -5.570  0.00  0.00    -0.076 S 
BRANCH  19  20
ATOM     20  C   UNL     1       8.345  -0.791  -3.857  0.00  0.00    +0.173 C 
BRANCH  20  21
ATOM     21  C   UNL     1       6.926  -0.283  -3.841  0.00  0.00    +0.231 C 
ATOM     22  O   UNL     1       6.346  -0.073  -4.885  0.00  0.00    -0.274 OA
ATOM     23  N   UNL     1       6.303  -0.062  -2.667  0.00  0.00    -0.240 N 
ATOM     24  C   UNL     1       5.034   0.392  -2.653  0.00  0.00    +0.306 C 
ATOM     25  O   UNL     1       4.452   0.603  -3.699  0.00  0.00    -0.252 OA
ATOM     26  N   UNL     1       4.410   0.614  -1.478  0.00  0.00    -0.299 N 
ATOM     27  H   UNL     1       6.830  -0.252  -1.720  0.00  0.00    +0.159 HD
ATOM     28  H   UNL     1       4.937   0.423  -0.532  0.00  0.00    +0.150 HD
BRANCH  26  29
ATOM     29  C   UNL     1       3.031   1.107  -1.463  0.00  0.00    +0.111 C 
BRANCH  29  30
ATOM     30  C   UNL     1       2.565   1.272  -0.015  0.00  0.00    +0.061 C 
BRANCH  30  31
ATOM     31  C   UNL     1       1.146   1.780   0.001  0.00  0.00    -0.009 A 
ATOM     32  C   UNL     1      -0.013   1.076   0.008  0.00  0.00    +0.011 A 
ATOM     33  C   UNL     1      -1.213   1.761   0.017  0.00  0.00    +0.008 A 
ATOM     34  C   UNL     1      -1.196   3.116   0.030  0.00  0.00    +0.045 A 
ATOM     35  S   UNL     1       0.555   3.464   0.015  0.00  0.00    -0.102 S 
ENDBRANCH  30  31
ENDBRANCH  29  30
ENDBRANCH  26  29
ENDBRANCH  20  21
ENDBRANCH  19  20
ENDBRANCH   5  19
TORSDOF 8
