REMARK  Name = ZINC06443647
REMARK  10 active torsions:
REMARK  status: ('A' for Active; 'I' for Inactive)
REMARK    1  A    between atoms: C_1  and  C_2
REMARK    2  A    between atoms: C_12  and  C_14
REMARK    3  A    between atoms: C_14  and  C_16
REMARK    4  A    between atoms: C_14  and  N_76
REMARK    5  A    between atoms: N_20  and  C_21
REMARK    6  A    between atoms: C_27  and  C_28
REMARK    7  A    between atoms: C_27  and  N_76
REMARK    8  A    between atoms: C_28  and  C_29
REMARK    9  A    between atoms: C_35  and  C_36
REMARK   10  A    between atoms: C_35  and  N_76
REMARK                            x       y       z     vdW  Elec       q    Type
REMARK                         _______ _______ _______ _____ _____    ______ ____
ROOT
ATOM      1  C   UNL     1       0.110  -2.823   5.008  0.00  0.00    +0.039 C 
ENDROOT
BRANCH   1  13
ATOM      2  C   UNL     1       0.350   1.794   0.336  0.00  0.00    +0.046 C 
ATOM      3  C   UNL     1       0.293   0.291   0.247  0.00  0.00    -0.026 A 
ATOM      4  C   UNL     1       0.280  -0.330  -0.983  0.00  0.00    +0.005 A 
ATOM      5  C   UNL     1       0.234  -1.714  -1.078  0.00  0.00    +0.001 A 
ATOM      6  C   UNL     1       0.189  -2.486   0.047  0.00  0.00    +0.010 A 
ATOM      7  C   UNL     1       0.196  -1.878   1.307  0.00  0.00    -0.001 A 
ATOM      8  C   UNL     1       0.249  -0.475   1.407  0.00  0.00    +0.052 A 
ATOM      9  N   UNL     1       0.255   0.119   2.651  0.00  0.00    -0.322 N 
ATOM     10  H   UNL     1       0.292   1.086   2.719  0.00  0.00    +0.169 HD
ATOM     11  C   UNL     1       0.211  -0.622   3.772  0.00  0.00    +0.251 A 
ATOM     12  O   UNL     1       0.218  -0.063   4.855  0.00  0.00    -0.268 OA
ATOM     13  C   UNL     1       0.158  -2.032   3.726  0.00  0.00    +0.011 A 
ATOM     14  C   UNL     1       0.149  -2.676   2.533  0.00  0.00    +0.017 A 
ENDBRANCH   1  13
BRANCH   1  15
ATOM     15  C   UNL     1       1.417  -2.668   5.742  0.00  0.00    +0.143 A 
ATOM     16  N   UNL     1       1.818  -1.616   6.413  0.00  0.00    -0.115 NA
ATOM     17  N   UNL     1       2.985  -1.872   6.895  0.00  0.00    -0.023 NA
ATOM     18  N   UNL     1       3.338  -3.061   6.550  0.00  0.00    -0.044 NA
ATOM     19  N   UNL     1       2.396  -3.586   5.843  0.00  0.00    -0.227 N 
BRANCH  19  20
ATOM     20  C   UNL     1       2.394  -4.929   5.256  0.00  0.00    +0.111 C 
ATOM     21  C   UNL     1       2.516  -5.972   6.368  0.00  0.00    +0.027 C 
ATOM     22  C   UNL     1       2.514  -7.374   5.755  0.00  0.00    +0.002 C 
ATOM     23  C   UNL     1       3.696  -7.512   4.794  0.00  0.00    +0.000 C 
ATOM     24  C   UNL     1       3.574  -6.469   3.682  0.00  0.00    +0.002 C 
ATOM     25  C   UNL     1       3.576  -5.067   4.295  0.00  0.00    +0.027 C 
ENDBRANCH  19  20
ENDBRANCH   1  15
BRANCH   1  26
ATOM     26  N   UNL     1      -0.983  -2.299   5.853  0.00  0.00    +0.392 N 
ATOM     27  H   UNL     1      -0.847  -1.290   5.985  0.00  0.00    -0.080 HD
BRANCH  26  28
ATOM     28  C   UNL     1      -0.964  -2.963   7.173  0.00  0.00    -0.072 C 
BRANCH  28  29
ATOM     29  C   UNL     1      -1.856  -2.174   8.134  0.00  0.00    +0.016 C 
BRANCH  29  30
ATOM     30  C   UNL     1      -1.733  -2.749   9.521  0.00  0.00    -0.049 A 
ATOM     31  C   UNL     1      -2.587  -3.756   9.930  0.00  0.00    +0.003 A 
ATOM     32  C   UNL     1      -2.470  -4.287  11.201  0.00  0.00    +0.000 A 
ATOM     33  C   UNL     1      -1.506  -3.804  12.067  0.00  0.00    +0.000 A 
ATOM     34  C   UNL     1      -0.656  -2.793  11.659  0.00  0.00    +0.000 A 
ATOM     35  C   UNL     1      -0.769  -2.266  10.386  0.00  0.00    +0.003 A 
ENDBRANCH  29  30
ENDBRANCH  28  29
ENDBRANCH  26  28
BRANCH  26  36
ATOM     36  C   UNL     1      -2.286  -2.525   5.192  0.00  0.00    -0.042 C 
BRANCH  36  37
ATOM     37  C   UNL     1      -2.568  -4.001   5.073  0.00  0.00    -0.064 A 
ATOM     38  C   UNL     1      -2.104  -4.707   3.979  0.00  0.00    +0.002 A 
ATOM     39  C   UNL     1      -2.359  -6.061   3.872  0.00  0.00    +0.000 A 
ATOM     40  C   UNL     1      -3.086  -6.708   4.854  0.00  0.00    +0.000 A 
ATOM     41  C   UNL     1      -3.554  -6.000   5.946  0.00  0.00    +0.000 A 
ATOM     42  C   UNL     1      -3.295  -4.647   6.055  0.00  0.00    +0.002 A 
ENDBRANCH  36  37
ENDBRANCH  26  36
ENDBRANCH   1  26
TORSDOF 9
