REMARK  Name = ZINC40334439
REMARK  5 active torsions:
REMARK  status: ('A' for Active; 'I' for Inactive)
REMARK    1  A    between atoms: C_1  and  C_2
REMARK    2  A    between atoms: C_6  and  C_21
REMARK    3  A    between atoms: N_9  and  S_10
REMARK    4  A    between atoms: S_10  and  C_13
REMARK    5  A    between atoms: C_18  and  N_19
REMARK                            x       y       z     vdW  Elec       q    Type
REMARK                         _______ _______ _______ _____ _____    ______ ____
ROOT
ATOM      1  S   UNL     1       1.650   0.564   2.066  0.00  0.00    +0.063 S 
ATOM      2  O   UNL     1       0.766   1.486   2.688  0.00  0.00    -0.153 OA
ATOM      3  O   UNL     1       2.501  -0.297   2.811  0.00  0.00    -0.153 OA
ENDROOT
BRANCH   1  10
ATOM      4  C   UNL     1      -0.632   1.607   0.755  0.00  0.00    +0.026 C 
ATOM      5  C   UNL     1      -0.417   0.146   0.354  0.00  0.00    +0.077 C 
ATOM      6  C   UNL     1      -1.674  -0.667   0.682  0.00  0.00    +0.021 C 
ATOM      7  C   UNL     1      -1.404  -2.148   0.409  0.00  0.00    +0.015 C 
ATOM      8  C   UNL     1      -0.265  -2.636   1.307  0.00  0.00    +0.090 C 
ATOM      9  C   UNL     1       1.007  -1.845   0.986  0.00  0.00    +0.122 C 
ATOM     10  N   UNL     1       0.718  -0.409   1.103  0.00  0.00    -0.173 NA
BRANCH   8  11
ATOM     11  C   UNL     1      -0.023  -4.103   1.061  0.00  0.00    +0.215 C 
ATOM     12  O   UNL     1       1.061  -4.481   0.670  0.00  0.00    -0.276 OA
ATOM     13  N   UNL     1      -1.010  -4.994   1.275  0.00  0.00    -0.329 N 
ATOM     14  H   UNL     1      -1.877  -4.692   1.588  0.00  0.00    +0.145 HD
ATOM     15  H   UNL     1      -0.854  -5.938   1.117  0.00  0.00    +0.145 HD
ENDBRANCH   8  11
ENDBRANCH   1  10
BRANCH   1  16
ATOM     16  C   UNL     1       2.692   1.505   1.002  0.00  0.00    +0.126 A 
ATOM     17  C   UNL     1       2.564   2.879   0.947  0.00  0.00    +0.032 A 
ATOM     18  C   UNL     1       3.381   3.619   0.113  0.00  0.00    +0.022 A 
ATOM     19  C   UNL     1       4.330   2.985  -0.671  0.00  0.00    +0.043 A 
ATOM     20  C   UNL     1       4.463   1.610  -0.621  0.00  0.00    +0.044 A 
ATOM     21  C   UNL     1       3.647   0.866   0.221  0.00  0.00    +0.053 A 
ATOM     22 CL   UNL     1       5.354   3.917  -1.718  0.00  0.00    -0.083 Cl
BRANCH  21  23
ATOM     23  N   UNL     1       3.783  -0.523   0.279  0.00  0.00    -0.356 N 
ATOM     24  H   UNL     1       3.264  -1.035   0.920  0.00  0.00    +0.142 HD
ATOM     25  H   UNL     1       4.395  -0.976  -0.322  0.00  0.00    +0.142 HD
ENDBRANCH  21  23
ENDBRANCH   1  16
TORSDOF 4
