REMARK  Name = ZINC12635780
REMARK  3 active torsions:
REMARK  status: ('A' for Active; 'I' for Inactive)
REMARK    1  A    between atoms: C_9  and  O_17
REMARK    2  A    between atoms: C_10  and  C_11
REMARK    3  A    between atoms: N_12  and  N_13
REMARK                            x       y       z     vdW  Elec       q    Type
REMARK                         _______ _______ _______ _____ _____    ______ ____
ROOT
ATOM      1  C   UNL     1       0.015   1.477   0.164  0.00  0.00    +0.001 A 
ATOM      2  C   UNL     1       1.217   2.181   0.178  0.00  0.00    +0.001 A 
ATOM      3  C   UNL     1       2.412   1.528   0.106  0.00  0.00    +0.009 A 
ATOM      4  C   UNL     1       2.433   0.131   0.018  0.00  0.00    -0.006 A 
ATOM      5  C   UNL     1       1.213  -0.588   0.005  0.00  0.00    -0.017 A 
ATOM      6  C   UNL     1      -0.000   0.118   0.080  0.00  0.00    +0.008 A 
ATOM      7  C   UNL     1       1.236  -1.991  -0.083  0.00  0.00    +0.012 A 
ATOM      8  C   UNL     1       2.415  -2.664  -0.155  0.00  0.00    +0.046 A 
ATOM      9  C   UNL     1       3.641  -2.001  -0.144  0.00  0.00    +0.126 A 
ATOM     10  C   UNL     1       3.691  -0.609  -0.059  0.00  0.00    +0.044 A 
ENDROOT
BRANCH  10  11
ATOM     11  C   UNL     1       4.979   0.097  -0.049  0.00  0.00    +0.144 C 
ATOM     12  N   UNL     1       5.272   0.901   0.930  0.00  0.00    -0.180 NA
BRANCH  12  13
ATOM     13  N   UNL     1       4.423   0.991   2.040  0.00  0.00    -0.258 N 
ATOM     14  C   UNL     1       4.777   1.762   3.111  0.00  0.00    +0.156 C 
ATOM     15  N   UNL     1       3.948   1.850   4.196  0.00  0.00    -0.338 N 
ATOM     16  S   UNL     1       6.214   2.593   3.096  0.00  0.00    -0.015 SA
ATOM     17  H   UNL     1       3.108   1.365   4.204  0.00  0.00    +0.144 HD
ATOM     18  H   UNL     1       4.200   2.398   4.956  0.00  0.00    +0.144 HD
ATOM     19  H   UNL     1       3.583   0.505   2.049  0.00  0.00    +0.191 HD
ENDBRANCH  12  13
ENDBRANCH  10  11
BRANCH   9  20
ATOM     20  O   UNL     1       4.794  -2.713  -0.217  0.00  0.00    -0.506 OA
ATOM     21  H   UNL     1       5.066  -2.931  -1.119  0.00  0.00    +0.292 HD
ENDBRANCH   9  20
TORSDOF 3
