REMARK  Name = ZINC66089423
REMARK  2 active torsions:
REMARK  status: ('A' for Active; 'I' for Inactive)
REMARK    1  A    between atoms: N_15  and  C_17
REMARK    2  A    between atoms: C_17  and  N_19
REMARK                            x       y       z     vdW  Elec       q    Type
REMARK                         _______ _______ _______ _____ _____    ______ ____
ROOT
ATOM      1  C   UNL     1      -0.021   1.360   0.014  0.00  0.00    +0.007 A 
ATOM      2  C   UNL     1       1.195   2.052   0.004  0.00  0.00    +0.022 A 
ATOM      3  C   UNL     1       2.374   1.378  -0.044  0.00  0.00    +0.027 A 
ATOM      4  N   UNL     1       2.388   0.028  -0.141  0.00  0.00    -0.312 N 
ATOM      5  C   UNL     1       1.231  -0.669  -0.033  0.00  0.00    +0.251 A 
ATOM      6  O   UNL     1       1.263  -1.888   0.031  0.00  0.00    -0.268 OA
ATOM      7  C   UNL     1      -0.003  -0.004   0.007  0.00  0.00    +0.070 A 
ATOM      8  C   UNL     1       3.602  -0.741  -0.420  0.00  0.00    +0.130 C 
ATOM      9  C   UNL     1       4.865   0.033  -0.089  0.00  0.00    +0.027 C 
ATOM     10  C   UNL     1       4.780   1.443  -0.673  0.00  0.00    +0.018 C 
ATOM     11  C   UNL     1       3.646   2.191   0.031  0.00  0.00    +0.054 C 
ATOM     12  C   UNL     1       4.016   2.342   1.517  0.00  0.00    +0.116 C 
ATOM     13  N   UNL     1       4.185   0.987   2.066  0.00  0.00    -0.312 N 
ATOM     14  C   UNL     1       5.121   0.091   1.411  0.00  0.00    +0.112 C 
ENDROOT
BRANCH  13  15
ATOM     15  C   UNL     1       3.486   0.591   3.149  0.00  0.00    +0.130 C 
ATOM     16  S   UNL     1       2.485   1.706   3.977  0.00  0.00    -0.019 S 
BRANCH  15  17
ATOM     17  N   UNL     1       3.575  -0.683   3.579  0.00  0.00    -0.340 N 
ATOM     18  H   UNL     1       4.198  -1.295   3.156  0.00  0.00    +0.144 HD
ATOM     19  H   UNL     1       3.017  -0.988   4.312  0.00  0.00    +0.144 HD
ENDBRANCH  15  17
ENDBRANCH  13  15
TORSDOF 2
