REMARK  Name = ZINC03245469
REMARK  6 active torsions:
REMARK  status: ('A' for Active; 'I' for Inactive)
REMARK    1  A    between atoms: C_2  and  C_3
REMARK    2  A    between atoms: C_2  and  N_14
REMARK    3  A    between atoms: C_6  and  N_9
REMARK    4  A    between atoms: N_14  and  N_15
REMARK    5  A    between atoms: C_16  and  C_28
REMARK    6  A    between atoms: N_20  and  C_21
REMARK                            x       y       z     vdW  Elec       q    Type
REMARK                         _______ _______ _______ _____ _____    ______ ____
ROOT
ATOM      1  N   UNL     1       3.495   6.093  -0.024  0.00  0.00    -0.239 N 
ATOM      2  C   UNL     1       3.388   7.447   0.143  0.00  0.00    +0.078 A 
ATOM      3  C   UNL     1       4.501   8.209   0.142  0.00  0.00    +0.076 A 
ATOM      4  S   UNL     1       5.787   6.995  -0.102  0.00  0.00    -0.058 S 
ATOM      5  C   UNL     1       4.747   5.545  -0.182  0.00  0.00    +0.169 A 
ATOM      6  N   UNL     1       5.089   4.282  -0.351  0.00  0.00    -0.332 N 
ATOM      7  H   UNL     1       4.311   3.512  -0.464  0.00  0.00    +0.168 HD
ENDROOT
BRANCH   6   8
ATOM      8  C   UNL     1       6.411   3.930  -0.386  0.00  0.00    +0.077 A 
ATOM      9  C   UNL     1       7.127   4.009  -1.582  0.00  0.00    +0.028 A 
ATOM     10  C   UNL     1       8.459   3.653  -1.610  0.00  0.00    +0.002 A 
ATOM     11  C   UNL     1       9.088   3.218  -0.457  0.00  0.00    +0.003 A 
ATOM     12  C   UNL     1       8.386   3.137   0.734  0.00  0.00    +0.040 A 
ATOM     13  C   UNL     1       7.053   3.495   0.778  0.00  0.00    +0.147 A 
ATOM     14  F   UNL     1       6.370   3.421   1.941  0.00  0.00    -0.203 F 
ENDBRANCH   6   8
BRANCH   2  15
ATOM     15  C   UNL     1       2.059   8.071   0.322  0.00  0.00    +0.001 A 
ATOM     16  C   UNL     1       0.943   7.541  -0.327  0.00  0.00    +0.011 A 
ATOM     17  C   UNL     1      -0.295   8.124  -0.152  0.00  0.00    +0.020 A 
ATOM     18  C   UNL     1      -0.429   9.240   0.657  0.00  0.00    +0.041 A 
ATOM     19  C   UNL     1       0.676   9.774   1.299  0.00  0.00    +0.020 A 
ATOM     20  C   UNL     1       1.917   9.196   1.135  0.00  0.00    +0.011 A 
ATOM     21 CL   UNL     1      -1.989   9.972   0.867  0.00  0.00    -0.084 Cl
ENDBRANCH   2  15
BRANCH   1  22
ATOM     22  N   UNL     1       2.354   5.280  -0.027  0.00  0.00    -0.251 N 
ATOM     23  H   UNL     1       1.566   5.436   0.725  0.00  0.00    +0.173 HD
BRANCH  22  25
ATOM     24  C   UNL     1       3.111   4.162  -1.967  0.00  0.00    +0.035 C 
ATOM     25  C   UNL     1       2.217   4.274  -0.984  0.00  0.00    +0.047 C 
BRANCH  25  26
ATOM     26  C   UNL     1       1.078   3.330  -0.908  0.00  0.00    -0.003 A 
ATOM     27  C   UNL     1       0.939   2.324  -1.863  0.00  0.00    +0.012 A 
ATOM     28  C   UNL     1      -0.122   1.447  -1.790  0.00  0.00    +0.027 A 
ATOM     29  C   UNL     1      -1.056   1.569  -0.769  0.00  0.00    +0.047 A 
ATOM     30  C   UNL     1      -0.918   2.567   0.188  0.00  0.00    +0.027 A 
ATOM     31  C   UNL     1       0.141   3.447   0.120  0.00  0.00    +0.012 A 
BRANCH  29  32
ATOM     32  N   UNL     1      -2.137   0.680  -0.701  0.00  0.00    -0.306 N 
ATOM     33  C   UNL     1      -3.129   0.674   0.246  0.00  0.00    +0.112 A 
ATOM     34  C   UNL     1      -3.960  -0.338  -0.066  0.00  0.00    +0.130 A 
ATOM     35  N   UNL     1      -3.489  -0.942  -1.167  0.00  0.00    -0.244 NA
ATOM     36  C   UNL     1      -2.398  -0.342  -1.557  0.00  0.00    +0.204 A 
ENDBRANCH  29  32
ENDBRANCH  25  26
ENDBRANCH  22  25
ENDBRANCH   1  22
TORSDOF 6
