REMARK  Name = ZINC19796104
REMARK  10 active torsions:
REMARK  status: ('A' for Active; 'I' for Inactive)
REMARK    1  A    between atoms: C_1  and  C_2
REMARK    2  A    between atoms: C_2  and  N_3
REMARK    3  A    between atoms: N_3  and  C_4
REMARK    4  A    between atoms: N_3  and  C_6
REMARK    5  A    between atoms: C_4  and  C_5
REMARK    6  A    between atoms: C_6  and  C_7
REMARK    7  A    between atoms: C_7  and  N_8
REMARK    8  A    between atoms: C_12  and  C_24
REMARK    9  A    between atoms: C_21  and  O_23
REMARK   10  A    between atoms: C_24  and  O_25
REMARK                            x       y       z     vdW  Elec       q    Type
REMARK                         _______ _______ _______ _____ _____    ______ ____
ROOT
ATOM      1  N   UNL     1      -2.816  -4.124   0.385  0.00  0.00    -0.386 N 
ATOM      2  C   UNL     1      -3.472  -4.673   1.400  0.00  0.00    +0.047 A 
ATOM      3  C   UNL     1      -4.275  -3.884   2.245  0.00  0.00    +0.026 A 
ATOM      4  C   UNL     1      -4.957  -4.442   3.297  0.00  0.00    +0.009 A 
ATOM      5  C   UNL     1      -4.876  -5.805   3.563  0.00  0.00    -0.008 A 
ATOM      6  C   UNL     1      -4.110  -6.623   2.775  0.00  0.00    +0.031 A 
ATOM      7  S   UNL     1      -3.973  -8.370   3.070  0.00  0.00    -0.088 S 
ATOM      8  C   UNL     1      -2.916  -9.183   1.897  0.00  0.00    +0.023 A 
ATOM      9  C   UNL     1      -2.670 -10.538   1.940  0.00  0.00    +0.016 A 
ATOM     10  C   UNL     1      -1.835 -11.099   0.991  0.00  0.00    +0.001 A 
ATOM     11  C   UNL     1      -1.260 -10.298   0.013  0.00  0.00    +0.001 A 
ATOM     12  C   UNL     1      -1.496  -8.957  -0.040  0.00  0.00    +0.012 A 
ATOM     13  C   UNL     1      -2.340  -8.350   0.909  0.00  0.00    +0.031 A 
ATOM     14  C   UNL     1      -2.596  -6.926   0.857  0.00  0.00    +0.135 A 
ATOM     15  C   UNL     1      -3.378  -6.125   1.661  0.00  0.00    +0.054 A 
ATOM     16  H   UNL     1      -2.371  -4.689  -0.267  0.00  0.00    +0.160 HD
ENDROOT
BRANCH  14  17
ATOM     17  O   UNL     1      -1.970  -6.277  -0.147  0.00  0.00    -0.505 OA
ATOM     18  H   UNL     1      -1.011  -6.401  -0.159  0.00  0.00    +0.292 HD
ENDBRANCH  14  17
BRANCH   1  19
ATOM     19  C   UNL     1      -2.763  -2.666   0.249  0.00  0.00    +0.094 C 
BRANCH  19  20
ATOM     20  C   UNL     1      -3.470  -2.248  -1.042  0.00  0.00    -0.058 C 
BRANCH  20  21
ATOM     21  N   UNL     1      -3.530  -0.782  -1.115  0.00  0.00    +0.380 N 
ATOM     22  H   UNL     1      -3.968  -0.422  -0.281  0.00  0.00    -0.082 HD
BRANCH  21  24
ATOM     23  C   UNL     1      -2.221   1.287  -1.176  0.00  0.00    -0.017 C 
ATOM     24  C   UNL     1      -2.168  -0.242  -1.226  0.00  0.00    -0.082 C 
ENDBRANCH  21  24
BRANCH  21  25
ATOM     25  C   UNL     1      -4.312  -0.382  -2.292  0.00  0.00    -0.082 C 
ATOM     26  C   UNL     1      -5.772  -0.801  -2.100  0.00  0.00    -0.017 C 
ENDBRANCH  21  25
ENDBRANCH  20  21
ENDBRANCH  19  20
ENDBRANCH   1  19
BRANCH   5  27
ATOM     27  C   UNL     1      -5.637  -6.387   4.726  0.00  0.00    +0.192 C 
BRANCH  27  28
ATOM     28  O   UNL     1      -7.038  -6.194   4.523  0.00  0.00    -0.390 OA
ATOM     29  H   UNL     1      -7.591  -6.545   5.235  0.00  0.00    +0.210 HD
ENDBRANCH  27  28
ENDBRANCH   5  27
TORSDOF 8
