REMARK  Name = ZINC20913807
REMARK  6 active torsions:
REMARK  status: ('A' for Active; 'I' for Inactive)
REMARK    1  A    between atoms: C_1  and  S_2
REMARK    2  A    between atoms: S_2  and  C_5
REMARK    3  A    between atoms: C_12  and  N_14
REMARK    4  A    between atoms: C_15  and  C_17
REMARK    5  A    between atoms: C_17  and  N_18
REMARK    6  A    between atoms: C_21  and  C_24
REMARK                            x       y       z     vdW  Elec       q    Type
REMARK                         _______ _______ _______ _____ _____    ______ ____
ROOT
ATOM      1  N   UNL     1       0.011   0.984   0.313  0.00  0.00    -0.188 NA
ATOM      2  C   UNL     1       1.180   1.654   0.280  0.00  0.00    +0.232 C 
ATOM      3  O   UNL     1       1.200   2.849   0.489  0.00  0.00    -0.273 OA
ENDROOT
BRANCH   1  11
ATOM      4  C   UNL     1      -5.228   4.259   1.545  0.00  0.00    +0.089 A 
ATOM      5  C   UNL     1      -4.193   5.183   1.579  0.00  0.00    +0.029 A 
ATOM      6  C   UNL     1      -2.894   4.811   1.352  0.00  0.00    +0.031 A 
ATOM      7  C   UNL     1      -2.566   3.464   1.073  0.00  0.00    +0.081 A 
ATOM      8  C   UNL     1      -3.645   2.552   1.047  0.00  0.00    +0.043 A 
ATOM      9  C   UNL     1      -4.944   2.933   1.276  0.00  0.00    +0.044 A 
ATOM     10  S   UNL     1      -2.834   1.018   0.666  0.00  0.00    -0.048 S 
ATOM     11  C   UNL     1      -1.168   1.660   0.580  0.00  0.00    +0.197 A 
ATOM     12  N   UNL     1      -1.347   2.937   0.828  0.00  0.00    -0.221 NA
BRANCH   4  14
ATOM     13  C   UNL     1      -7.114   4.604   3.634  0.00  0.00    +0.200 C 
ATOM     14  S   UNL     1      -6.888   4.771   1.842  0.00  0.00    -0.006 S 
ATOM     15  O   UNL     1      -6.916   6.143   1.471  0.00  0.00    -0.170 OA
ATOM     16  O   UNL     1      -7.689   3.818   1.156  0.00  0.00    -0.170 OA
ENDBRANCH   4  14
ENDBRANCH   1  11
BRANCH   2  17
ATOM     17  C   UNL     1       2.462   0.920  -0.017  0.00  0.00    +0.024 C 
BRANCH  17  18
ATOM     18  N   UNL     1       3.562   1.886  -0.142  0.00  0.00    +0.386 N 
ATOM     19  C   UNL     1       4.861   1.202  -0.181  0.00  0.00    -0.077 C 
ATOM     20  C   UNL     1       5.986   2.240  -0.166  0.00  0.00    -0.006 C 
ATOM     21  C   UNL     1       5.838   3.163  -1.378  0.00  0.00    +0.071 C 
ATOM     22  C   UNL     1       4.458   3.826  -1.340  0.00  0.00    -0.006 C 
ATOM     23  C   UNL     1       3.377   2.742  -1.321  0.00  0.00    -0.077 C 
ATOM     24  H   UNL     1       3.549   2.532   0.747  0.00  0.00    -0.081 HD
BRANCH  21  25
ATOM     25  C   UNL     1       6.907   4.224  -1.336  0.00  0.00    +0.213 C 
ATOM     26  O   UNL     1       6.598   5.395  -1.281  0.00  0.00    -0.276 OA
ATOM     27  N   UNL     1       8.208   3.871  -1.359  0.00  0.00    -0.329 N 
ATOM     28  H   UNL     1       8.988   4.646  -1.329  0.00  0.00    +0.145 HD
ATOM     29  H   UNL     1       8.489   2.809  -1.409  0.00  0.00    +0.145 HD
ENDBRANCH  21  25
ENDBRANCH  17  18
ENDBRANCH   2  17
TORSDOF 5
