REMARK  Name = ZINC59793906
REMARK  9 active torsions:
REMARK  status: ('A' for Active; 'I' for Inactive)
REMARK    1  A    between atoms: C_4  and  N_7
REMARK    2  A    between atoms: N_7  and  S_8
REMARK    3  A    between atoms: S_8  and  C_11
REMARK    4  A    between atoms: C_14  and  N_17
REMARK    5  A    between atoms: C_18  and  C_20
REMARK    6  A    between atoms: C_20  and  C_21
REMARK    7  A    between atoms: C_21  and  S_22
REMARK    8  A    between atoms: S_22  and  C_23
REMARK    9  A    between atoms: C_26  and  C_29
REMARK                            x       y       z     vdW  Elec       q    Type
REMARK                         _______ _______ _______ _____ _____    ______ ____
ROOT
ATOM      1  N   UNL     1       0.257  -6.560  -0.491  0.00  0.00    -0.285 N 
ATOM      2  C   UNL     1       0.681  -7.520  -1.336  0.00  0.00    +0.218 C 
ATOM      3  O   UNL     1       1.824  -7.511  -1.741  0.00  0.00    -0.275 OA
ATOM      4  H   UNL     1      -0.633  -6.608  -0.109  0.00  0.00    +0.155 HD
ENDROOT
BRANCH   1   8
ATOM      5  C   UNL     1       2.769  -3.380   0.476  0.00  0.00    +0.109 A 
ATOM      6  C   UNL     1       2.828  -3.947  -0.783  0.00  0.00    +0.030 A 
ATOM      7  C   UNL     1       1.997  -5.002  -1.107  0.00  0.00    +0.025 A 
ATOM      8  C   UNL     1       1.101  -5.492  -0.166  0.00  0.00    +0.033 A 
ATOM      9  C   UNL     1       1.045  -4.920   1.098  0.00  0.00    +0.025 A 
ATOM     10  C   UNL     1       1.882  -3.870   1.417  0.00  0.00    +0.030 A 
BRANCH   5  11
ATOM     11  S   UNL     1       3.832  -2.035   0.886  0.00  0.00    +0.072 S 
ATOM     12  O   UNL     1       3.269  -1.407   2.029  0.00  0.00    -0.150 OA
ATOM     13  O   UNL     1       4.082  -1.333  -0.324  0.00  0.00    -0.150 OA
BRANCH  11  14
ATOM     14  N   UNL     1       5.278  -2.683   1.366  0.00  0.00    -0.216 N 
ATOM     15  H   UNL     1       6.087  -2.484   0.869  0.00  0.00    +0.174 HD
BRANCH  14  19
ATOM     16  C   UNL     1       5.444  -5.162   4.706  0.00  0.00    +0.000 A 
ATOM     17  C   UNL     1       6.093  -5.530   3.542  0.00  0.00    +0.002 A 
ATOM     18  C   UNL     1       6.040  -4.710   2.432  0.00  0.00    +0.024 A 
ATOM     19  C   UNL     1       5.334  -3.515   2.486  0.00  0.00    +0.048 A 
ATOM     20  C   UNL     1       4.683  -3.149   3.658  0.00  0.00    +0.024 A 
ATOM     21  C   UNL     1       4.740  -3.974   4.764  0.00  0.00    +0.002 A 
ENDBRANCH  14  19
ENDBRANCH  11  14
ENDBRANCH   5  11
ENDBRANCH   1   8
BRANCH   2  22
ATOM     22  C   UNL     1      -0.266  -8.606  -1.778  0.00  0.00    +0.107 C 
BRANCH  22  23
ATOM     23  C   UNL     1       0.460  -9.561  -2.728  0.00  0.00    +0.086 C 
BRANCH  23  24
ATOM     24  S   UNL     1      -0.680 -10.868  -3.260  0.00  0.00    -0.086 S 
BRANCH  24  25
ATOM     25  C   UNL     1       0.293 -11.871  -4.333  0.00  0.00    +0.185 A 
ATOM     26  N   UNL     1       1.555 -11.672  -4.643  0.00  0.00    -0.201 NA
ATOM     27  H   UNL     1      -1.011 -13.378  -4.937  0.00  0.00    +0.191 HD
ATOM     28  C   UNL     1       1.970 -12.632  -5.483  0.00  0.00    +0.182 A 
ATOM     29  N   UNL     1       0.971 -13.453  -5.716  0.00  0.00    -0.152 NA
ATOM     30  N   UNL     1      -0.126 -12.983  -4.977  0.00  0.00    -0.253 N 
BRANCH  28  31
ATOM     31  C   UNL     1       3.334 -12.747  -6.056  0.00  0.00    +0.022 A 
ATOM     32  C   UNL     1       4.312 -11.811  -5.726  0.00  0.00    +0.012 A 
ATOM     33  C   UNL     1       5.579 -11.922  -6.262  0.00  0.00    +0.002 A 
ATOM     34  C   UNL     1       5.880 -12.960  -7.125  0.00  0.00    +0.020 A 
ATOM     35  C   UNL     1       4.912 -13.892  -7.457  0.00  0.00    +0.042 A 
ATOM     36  C   UNL     1       3.642 -13.794  -6.922  0.00  0.00    +0.031 A 
ATOM     37 CL   UNL     1       5.297 -15.192  -8.542  0.00  0.00    -0.084 Cl
ENDBRANCH  28  31
ENDBRANCH  24  25
ENDBRANCH  23  24
ENDBRANCH  22  23
ENDBRANCH   2  22
TORSDOF 9
