REMARK  Name = ZINC39960588
REMARK  10 active torsions:
REMARK  status: ('A' for Active; 'I' for Inactive)
REMARK    1  A    between atoms: C_1  and  C_2
REMARK    2  A    between atoms: C_2  and  C_3
REMARK    3  A    between atoms: C_3  and  O_4
REMARK    4  A    between atoms: O_4  and  C_5
REMARK    5  A    between atoms: C_10  and  C_11
REMARK    6  A    between atoms: C_13  and  C_33
REMARK    7  A    between atoms: C_14  and  C_32
REMARK    8  A    between atoms: C_21  and  C_22
REMARK    9  A    between atoms: C_33  and  O_35
REMARK   10  A    between atoms: O_35  and  C_36
REMARK                            x       y       z     vdW  Elec       q    Type
REMARK                         _______ _______ _______ _____ _____    ______ ____
ROOT
ATOM      1  C   UNL     1      -1.187  -4.434  -0.229  0.00  0.00    +0.165 C 
ATOM      2  C   UNL     1      -0.115  -4.460   0.836  0.00  0.00    +0.085 C 
ATOM      3  C   UNL     1       0.528  -5.642   1.072  0.00  0.00    +0.053 C 
ATOM      4  N   UNL     1       0.213  -6.732   0.381  0.00  0.00    -0.228 NA
ATOM      5  C   UNL     1      -0.701  -6.786  -0.552  0.00  0.00    +0.178 A 
ATOM      6  N   UNL     1      -1.464  -5.711  -0.945  0.00  0.00    -0.275 N 
ATOM      7  C   UNL     1      -2.372  -5.886  -1.914  0.00  0.00    +0.268 A 
ATOM      8  O   UNL     1      -3.069  -4.966  -2.296  0.00  0.00    -0.266 OA
ATOM      9  C   UNL     1      -2.497  -7.236  -2.504  0.00  0.00    +0.080 A 
ATOM     10  C   UNL     1      -3.341  -7.682  -3.502  0.00  0.00    +0.026 C 
ATOM     11  S   UNL     1      -1.262  -8.130  -1.579  0.00  0.00    -0.046 S 
ATOM     12  C   UNL     1       1.604  -5.710   2.125  0.00  0.00    +0.066 C 
ENDROOT
BRANCH  10  13
ATOM     13  C   UNL     1      -4.070  -6.766  -4.263  0.00  0.00    -0.018 C 
ATOM     14  C   UNL     1      -4.856  -7.035  -5.383  0.00  0.00    +0.003 A 
ATOM     15  C   UNL     1      -5.156  -8.228  -6.074  0.00  0.00    +0.010 A 
ATOM     16  C   UNL     1      -5.970  -8.191  -7.159  0.00  0.00    +0.001 A 
ATOM     17  C   UNL     1      -6.526  -6.992  -7.619  0.00  0.00    +0.002 A 
ATOM     18  C   UNL     1      -6.282  -5.810  -7.007  0.00  0.00    +0.026 A 
ATOM     19  C   UNL     1      -5.439  -5.768  -5.862  0.00  0.00    +0.043 A 
ATOM     20  N   UNL     1      -5.052  -4.767  -5.103  0.00  0.00    -0.380 N 
ATOM     21  C   UNL     1      -4.178  -5.273  -4.040  0.00  0.00    +0.149 C 
ATOM     22  H   UNL     1      -5.309  -3.840  -5.224  0.00  0.00    +0.160 HD
ENDBRANCH  10  13
BRANCH   1  28
ATOM     23  C   UNL     1      -3.219  -4.864   1.176  0.00  0.00    +0.126 A 
ATOM     24  C   UNL     1      -4.397  -4.438   1.773  0.00  0.00    +0.046 A 
ATOM     25  C   UNL     1      -4.823  -3.135   1.607  0.00  0.00    +0.004 A 
ATOM     26  C   UNL     1      -4.077  -2.255   0.845  0.00  0.00    +0.001 A 
ATOM     27  C   UNL     1      -2.903  -2.676   0.248  0.00  0.00    +0.009 A 
ATOM     28  C   UNL     1      -2.470  -3.977   0.417  0.00  0.00    +0.022 A 
BRANCH  23  29
ATOM     29  O   UNL     1      -2.797  -6.145   1.339  0.00  0.00    -0.492 OA
BRANCH  29  30
ATOM     30  C   UNL     1      -3.667  -7.029   2.050  0.00  0.00    +0.229 C 
BRANCH  30  32
ATOM     31  C   UNL     1      -3.861  -9.293   3.089  0.00  0.00    +0.007 C 
ATOM     32  C   UNL     1      -2.984  -8.387   2.222  0.00  0.00    +0.038 C 
ENDBRANCH  30  32
ENDBRANCH  29  30
ENDBRANCH  23  29
ENDBRANCH   1  28
BRANCH   2  33
ATOM     33  C   UNL     1       0.213  -3.301   1.563  0.00  0.00    +0.339 C 
ATOM     34  O   UNL     1       0.990  -3.368   2.498  0.00  0.00    -0.245 OA
BRANCH  33  35
ATOM     35  O   UNL     1      -0.335  -2.114   1.223  0.00  0.00    -0.465 OA
ATOM     36  C   UNL     1       0.127  -0.961   1.929  0.00  0.00    +0.280 C 
ENDBRANCH  33  35
ENDBRANCH   2  33
TORSDOF 7
