REMARK  Name = ZINC09234649
REMARK  3 active torsions:
REMARK  status: ('A' for Active; 'I' for Inactive)
REMARK    1  A    between atoms: C_1  and  C_2
REMARK    2  A    between atoms: C_3  and  N_9
REMARK    3  A    between atoms: C_28  and  C_33
REMARK                            x       y       z     vdW  Elec       q    Type
REMARK                         _______ _______ _______ _____ _____    ______ ____
ROOT
ATOM      1  N   UNL     1      -1.321  -3.117  -1.352  0.00  0.00    -0.210 N 
ATOM      2  C   UNL     1      -0.881  -4.328  -0.992  0.00  0.00    +0.228 C 
ATOM      3  O   UNL     1      -1.578  -5.305  -0.824  0.00  0.00    -0.275 OA
ATOM      4  C   UNL     1       0.622  -4.288  -0.826  0.00  0.00    +0.074 C 
ATOM      5  C   UNL     1       0.977  -4.463   0.661  0.00  0.00    -0.054 C 
ATOM      6  C   UNL     1      -0.160  -5.220   1.372  0.00  0.00    -0.016 C 
ATOM      7  C   UNL     1      -1.105  -4.090   1.903  0.00  0.00    -0.020 C 
ATOM      8  C   UNL     1      -0.462  -2.767   1.439  0.00  0.00    -0.076 C 
ATOM      9  C   UNL     1       1.518  -2.238   0.156  0.00  0.00    +0.053 C 
ATOM     10  C   UNL     1       0.979  -2.813  -1.159  0.00  0.00    +0.089 C 
ATOM     11  C   UNL     1      -0.362  -2.192  -1.476  0.00  0.00    +0.229 C 
ATOM     12  O   UNL     1      -0.541  -1.035  -1.793  0.00  0.00    -0.275 OA
ATOM     13  C   UNL     1       1.117  -0.800   0.330  0.00  0.00    -0.027 A 
ATOM     14  C   UNL     1      -0.100  -0.158   0.395  0.00  0.00    +0.006 A 
ATOM     15  C   UNL     1      -0.151   1.214   0.566  0.00  0.00    +0.020 A 
ATOM     16  C   UNL     1       1.024   1.938   0.673  0.00  0.00    +0.046 A 
ATOM     17  C   UNL     1       2.245   1.298   0.608  0.00  0.00    -0.011 A 
ATOM     18  C   UNL     1       2.304  -0.083   0.435  0.00  0.00    +0.040 A 
ATOM     19  N   UNL     1       3.399  -0.945   0.341  0.00  0.00    -0.286 N 
ATOM     20  C   UNL     1       3.022  -2.227   0.175  0.00  0.00    +0.212 C 
ATOM     21  O   UNL     1       3.755  -3.188   0.063  0.00  0.00    -0.277 OA
ATOM     22  C   UNL     1       3.518   2.096   0.725  0.00  0.00    +0.047 C 
ATOM     23 CL   UNL     1       0.961   3.659   0.888  0.00  0.00    -0.083 Cl
ATOM     24  H   UNL     1       4.323  -0.654   0.389  0.00  0.00    +0.155 HD
ATOM     25  N   UNL     1       0.951  -3.116   1.184  0.00  0.00    +0.395 N 
ATOM     26  H   UNL     1       1.497  -3.048   2.051  0.00  0.00    -0.079 HD
ENDROOT
BRANCH   1  29
ATOM     27  C   UNL     1      -2.364  -3.565  -3.962  0.00  0.00    +0.047 C 
ATOM     28  C   UNL     1      -3.224  -3.045  -2.840  0.00  0.00    -0.010 A 
ATOM     29  C   UNL     1      -2.676  -2.840  -1.581  0.00  0.00    +0.048 A 
ATOM     30  C   UNL     1      -3.473  -2.365  -0.549  0.00  0.00    +0.024 A 
ATOM     31  C   UNL     1      -4.807  -2.088  -0.778  0.00  0.00    +0.003 A 
ATOM     32  C   UNL     1      -5.351  -2.293  -2.032  0.00  0.00    +0.020 A 
ATOM     33  C   UNL     1      -4.561  -2.772  -3.063  0.00  0.00    +0.046 A 
ATOM     34 CL   UNL     1      -5.248  -3.027  -4.636  0.00  0.00    -0.083 Cl
ENDBRANCH   1  29
TORSDOF 1
