REMARK  Name = ZINC09946433
REMARK  9 active torsions:
REMARK  status: ('A' for Active; 'I' for Inactive)
REMARK    1  A    between atoms: C_7  and  C_11
REMARK    2  A    between atoms: C_11  and  C_13
REMARK    3  A    between atoms: C_13  and  S_14
REMARK    4  A    between atoms: S_14  and  C_15
REMARK    5  A    between atoms: C_18  and  C_30
REMARK    6  A    between atoms: N_19  and  C_20
REMARK    7  A    between atoms: C_23  and  O_26
REMARK    8  A    between atoms: O_26  and  C_27
REMARK    9  A    between atoms: C_30  and  N_60
REMARK                            x       y       z     vdW  Elec       q    Type
REMARK                         _______ _______ _______ _____ _____    ______ ____
ROOT
ATOM      1  C   UNL     1      -1.383  -2.364   0.003  0.00  0.00    +0.196 A 
ATOM      2  N   UNL     1      -0.205  -2.945  -0.018  0.00  0.00    -0.122 NA
ATOM      3  N   UNL     1      -0.347  -4.222  -0.019  0.00  0.00    -0.135 NA
ATOM      4  C   UNL     1      -1.613  -4.533  -0.008  0.00  0.00    +0.122 A 
ATOM      5  N   UNL     1      -2.320  -3.361   0.006  0.00  0.00    -0.276 N 
ENDROOT
BRANCH   5   6
ATOM      6  C   UNL     1      -3.716  -3.212   0.021  0.00  0.00    +0.050 A 
ATOM      7  C   UNL     1      -4.450  -3.655   1.112  0.00  0.00    +0.030 A 
ATOM      8  C   UNL     1      -5.822  -3.505   1.128  0.00  0.00    +0.048 A 
ATOM      9  C   UNL     1      -6.468  -2.919   0.049  0.00  0.00    +0.127 A 
ATOM     10  C   UNL     1      -5.736  -2.481  -1.045  0.00  0.00    +0.048 A 
ATOM     11  C   UNL     1      -4.362  -2.627  -1.059  0.00  0.00    +0.030 A 
BRANCH   9  12
ATOM     12  O   UNL     1      -7.820  -2.775   0.063  0.00  0.00    -0.434 OA
BRANCH  12  13
ATOM     13  C   UNL     1      -8.511  -3.249   1.221  0.00  0.00    +0.541 C 
ATOM     14  F   UNL     1      -8.277  -4.619   1.375  0.00  0.00    -0.166 F 
ATOM     15  F   UNL     1      -8.049  -2.566   2.351  0.00  0.00    -0.166 F 
ENDBRANCH  12  13
ENDBRANCH   9  12
ENDBRANCH   5   6
BRANCH   1  16
ATOM     16  S   UNL     1      -1.696  -0.631   0.015  0.00  0.00    -0.078 S 
BRANCH  16  17
ATOM     17  C   UNL     1       0.002  -0.004   0.002  0.00  0.00    +0.157 C 
BRANCH  17  18
ATOM     18  C   UNL     1      -0.018   1.503   0.010  0.00  0.00    +0.175 C 
ATOM     19  O   UNL     1      -1.078   2.095   0.019  0.00  0.00    -0.291 OA
BRANCH  18  26
ATOM     20  C   UNL     1       0.946   6.055   0.025  0.00  0.00    +0.001 A 
ATOM     21  C   UNL     1       2.313   6.292   0.013  0.00  0.00    +0.002 A 
ATOM     22  C   UNL     1       3.207   5.243  -0.001  0.00  0.00    +0.026 A 
ATOM     23  C   UNL     1       2.740   3.932  -0.003  0.00  0.00    +0.047 A 
ATOM     24  C   UNL     1       1.357   3.696   0.009  0.00  0.00    +0.010 A 
ATOM     25  C   UNL     1       0.465   4.764   0.023  0.00  0.00    +0.011 A 
ATOM     26  C   UNL     1       1.199   2.228   0.003  0.00  0.00    +0.043 A 
ATOM     27  C   UNL     1       2.475   1.705  -0.006  0.00  0.00    +0.095 A 
ATOM     28  N   UNL     1       3.374   2.707  -0.016  0.00  0.00    -0.360 N 
ATOM     29  H   UNL     1       4.337   2.584  -0.026  0.00  0.00    +0.165 HD
ENDBRANCH  18  26
ENDBRANCH  17  18
ENDBRANCH  16  17
ENDBRANCH   1  16
BRANCH   4  30
ATOM     30  C   UNL     1      -2.191  -5.925  -0.011  0.00  0.00    -0.001 C 
BRANCH  30  36
ATOM     31  C   UNL     1      -3.417  -5.558  -2.065  0.00  0.00    -0.078 C 
ATOM     32  C   UNL     1      -3.497  -5.950  -3.542  0.00  0.00    -0.019 C 
ATOM     33  C   UNL     1      -3.844  -7.437  -3.652  0.00  0.00    -0.004 C 
ATOM     34  C   UNL     1      -2.787  -8.257  -2.906  0.00  0.00    -0.019 C 
ATOM     35  C   UNL     1      -2.728  -7.797  -1.448  0.00  0.00    -0.078 C 
ATOM     36  N   UNL     1      -2.365  -6.365  -1.410  0.00  0.00    +0.384 N 
ATOM     37  H   UNL     1      -1.481  -6.232  -1.914  0.00  0.00    -0.081 HD
ENDBRANCH  30  36
ENDBRANCH   4  30
TORSDOF 9
