REMARK  Name = ZINC16604386
REMARK  13 active torsions:
REMARK  status: ('A' for Active; 'I' for Inactive)
REMARK    1  A    between atoms: C_1  and  C_2
REMARK    2  A    between atoms: C_2  and  C_3
REMARK    3  A    between atoms: C_3  and  C_4
REMARK    4  A    between atoms: C_4  and  C_5
REMARK    5  A    between atoms: C_12  and  C_14
REMARK    6  A    between atoms: C_19  and  S_21
REMARK    7  A    between atoms: S_21  and  C_22
REMARK    8  A    between atoms: C_22  and  C_23
REMARK    9  A    between atoms: N_25  and  C_26
REMARK   10  A    between atoms: C_26  and  C_27
REMARK   11  A    between atoms: C_27  and  C_28
REMARK   12  A    between atoms: C_28  and  N_76
REMARK   13  A    between atoms: C_33  and  C_35
REMARK                            x       y       z     vdW  Elec       q    Type
REMARK                         _______ _______ _______ _____ _____    ______ ____
ROOT
ATOM      1  C   UNL     1       2.413   6.951  18.120  0.00  0.00    +0.216 C 
ATOM      2  O   UNL     1       1.323   7.236  18.569  0.00  0.00    -0.276 OA
ATOM      3  N   UNL     1       2.559   5.852  17.353  0.00  0.00    -0.296 N 
ATOM      4  C   UNL     1       3.890   5.420  16.900  0.00  0.00    +0.127 C 
ATOM      5  C   UNL     1       3.842   5.206  15.383  0.00  0.00    +0.125 C 
ATOM      6  N   UNL     1       2.745   4.285  15.056  0.00  0.00    -0.312 N 
ATOM      7  C   UNL     1       1.443   4.854  15.430  0.00  0.00    +0.128 C 
ATOM      8  C   UNL     1       1.393   5.053  16.948  0.00  0.00    +0.090 C 
ATOM      9  C   UNL     1       0.107   5.792  17.327  0.00  0.00    +0.029 C 
ATOM     10  C   UNL     1       2.770   3.940  13.715  0.00  0.00    +0.127 A 
ATOM     11  C   UNL     1       3.914   3.373  13.151  0.00  0.00    +0.083 A 
ATOM     12  C   UNL     1       3.894   3.044  11.808  0.00  0.00    +0.135 A 
ATOM     13  N   UNL     1       2.797   3.275  11.100  0.00  0.00    -0.210 NA
ATOM     14  C   UNL     1       1.725   3.814  11.663  0.00  0.00    +0.192 A 
ATOM     15  N   UNL     1       1.706   4.148  12.945  0.00  0.00    -0.207 NA
ATOM     16 CL   UNL     1       5.290   2.337  11.056  0.00  0.00    -0.062 Cl
ENDROOT
BRANCH   1  17
ATOM     17  C   UNL     1       3.603   7.825  18.420  0.00  0.00    +0.096 C 
BRANCH  17  18
ATOM     18  C   UNL     1       3.167   8.995  19.303  0.00  0.00    +0.009 C 
BRANCH  18  20
ATOM     19  C   UNL     1       3.939  11.053  20.491  0.00  0.00    +0.004 C 
ATOM     20  C   UNL     1       4.376   9.883  19.608  0.00  0.00    -0.003 C 
ENDBRANCH  18  20
ENDBRANCH  17  18
ENDBRANCH   1  17
BRANCH  14  21
ATOM     21  S   UNL     1       0.291   4.102  10.680  0.00  0.00    -0.077 S 
BRANCH  21  22
ATOM     22  C   UNL     1       0.876   3.484   9.082  0.00  0.00    +0.173 C 
BRANCH  22  23
ATOM     23  C   UNL     1      -0.216   3.634   8.055  0.00  0.00    +0.223 C 
ATOM     24  O   UNL     1      -1.285   4.111   8.372  0.00  0.00    -0.275 OA
ATOM     25  N   UNL     1      -0.005   3.237   6.785  0.00  0.00    -0.315 N 
ATOM     26  H   UNL     1       0.850   2.856   6.531  0.00  0.00    +0.149 HD
BRANCH  25  27
ATOM     27  C   UNL     1      -1.067   3.382   5.786  0.00  0.00    +0.102 C 
BRANCH  27  28
ATOM     28  C   UNL     1      -0.573   2.860   4.436  0.00  0.00    +0.000 C 
BRANCH  28  29
ATOM     29  C   UNL     1      -1.682   3.012   3.393  0.00  0.00    -0.077 C 
BRANCH  29  36
ATOM     30  C   UNL     1      -1.069   1.049   2.115  0.00  0.00    -0.078 C 
ATOM     31  C   UNL     1      -0.438   0.577   0.803  0.00  0.00    -0.019 C 
ATOM     32  C   UNL     1      -1.323   1.011  -0.369  0.00  0.00    -0.003 C 
ATOM     33  C   UNL     1      -1.488   2.533  -0.337  0.00  0.00    -0.016 C 
ATOM     34  C   UNL     1      -2.090   2.948   1.007  0.00  0.00    -0.072 C 
ATOM     35  C   UNL     1      -2.239   4.470   1.051  0.00  0.00    -0.013 C 
ATOM     36  N   UNL     1      -1.179   2.523   2.092  0.00  0.00    +0.381 N 
ATOM     37  H   UNL     1      -0.250   2.924   1.922  0.00  0.00    -0.081 HD
ENDBRANCH  29  36
ENDBRANCH  28  29
ENDBRANCH  27  28
ENDBRANCH  25  27
ENDBRANCH  22  23
ENDBRANCH  21  22
ENDBRANCH  14  21
TORSDOF 10
