REMARK  Name = ZINC09256406
REMARK  11 active torsions:
REMARK  status: ('A' for Active; 'I' for Inactive)
REMARK    1  A    between atoms: C_1  and  C_2
REMARK    2  A    between atoms: C_2  and  N_63
REMARK    3  A    between atoms: C_3  and  C_4
REMARK    4  A    between atoms: C_3  and  N_63
REMARK    5  A    between atoms: C_5  and  C_6
REMARK    6  A    between atoms: C_5  and  N_63
REMARK    7  A    between atoms: C_10  and  C_16
REMARK    8  A    between atoms: C_11  and  C_15
REMARK    9  A    between atoms: C_20  and  N_23
REMARK   10  A    between atoms: N_23  and  S_24
REMARK   11  A    between atoms: S_24  and  C_27
REMARK                            x       y       z     vdW  Elec       q    Type
REMARK                         _______ _______ _______ _____ _____    ______ ____
ROOT
ATOM      1  C   UNL     1      -0.689  -2.064  -1.001  0.00  0.00    +0.116 A 
ATOM      2  N   UNL     1       0.214  -3.015  -1.166  0.00  0.00    -0.219 NA
ATOM      3  C   UNL     1       1.508  -2.793  -1.001  0.00  0.00    +0.133 A 
ATOM      4  C   UNL     1       1.948  -1.491  -0.634  0.00  0.00    +0.051 A 
ATOM      5  C   UNL     1       3.293  -0.998  -0.397  0.00  0.00    -0.028 A 
ATOM      6  C   UNL     1       3.468   0.288  -0.057  0.00  0.00    -0.008 A 
ATOM      7  S   UNL     1       1.810   0.942  -0.031  0.00  0.00    -0.074 S 
ATOM      8  C   UNL     1       0.926  -0.529  -0.477  0.00  0.00    +0.114 A 
ATOM      9  N   UNL     1      -0.343  -0.838  -0.662  0.00  0.00    -0.227 NA
ATOM     10  C   UNL     1       4.760   1.009   0.232  0.00  0.00    +0.052 C 
ATOM     11  C   UNL     1       4.478  -1.919  -0.530  0.00  0.00    +0.045 C 
ATOM     12  N   UNL     1       2.422  -3.816  -1.183  0.00  0.00    -0.314 N 
ATOM     13  C   UNL     1       2.465  -4.240  -2.588  0.00  0.00    +0.108 C 
ATOM     14  C   UNL     1       3.584  -5.266  -2.779  0.00  0.00    +0.039 C 
ATOM     15  C   UNL     1       3.326  -6.471  -1.870  0.00  0.00    +0.079 C 
ATOM     16  C   UNL     1       3.238  -5.995  -0.417  0.00  0.00    +0.039 C 
ATOM     17  C   UNL     1       2.129  -4.948  -0.295  0.00  0.00    +0.108 C 
ENDROOT
BRANCH  15  18
ATOM     18  N   UNL     1       4.425  -7.430  -2.005  0.00  0.00    -0.186 NA
ATOM     19  H   UNL     1       5.233  -7.319  -1.479  0.00  0.00    +0.148 HD
BRANCH  18  20
ATOM     20  S   UNL     1       4.288  -8.703  -3.054  0.00  0.00    +0.065 S 
ATOM     21  O   UNL     1       5.510  -9.426  -2.978  0.00  0.00    -0.153 OA
ATOM     22  O   UNL     1       3.028  -9.308  -2.797  0.00  0.00    -0.153 OA
BRANCH  20  23
ATOM     23  C   UNL     1       4.201  -8.031  -4.681  0.00  0.00    +0.142 A 
ATOM     24  C   UNL     1       5.208  -7.755  -5.545  0.00  0.00    +0.036 A 
ATOM     25  C   UNL     1       4.901  -7.225  -6.784  0.00  0.00    +0.010 A 
ATOM     26  C   UNL     1       3.603  -6.997  -7.098  0.00  0.00    +0.047 A 
ATOM     27  S   UNL     1       2.764  -7.544  -5.620  0.00  0.00    -0.077 S 
ENDBRANCH  20  23
ENDBRANCH  18  20
ENDBRANCH  15  18
BRANCH   1  28
ATOM     28  C   UNL     1      -2.146  -2.389  -1.206  0.00  0.00    -0.001 C 
BRANCH  28  29
ATOM     29  N   UNL     1      -2.463  -2.263  -2.644  0.00  0.00    +0.384 N 
ATOM     30  H   UNL     1      -1.732  -2.734  -3.189  0.00  0.00    -0.081 HD
BRANCH  29  32
ATOM     31  C   UNL     1      -3.962  -2.956  -4.448  0.00  0.00    -0.017 C 
ATOM     32  C   UNL     1      -3.764  -2.902  -2.932  0.00  0.00    -0.082 C 
ENDBRANCH  29  32
BRANCH  29  33
ATOM     33  C   UNL     1      -2.505  -0.837  -3.029  0.00  0.00    -0.082 C 
ATOM     34  C   UNL     1      -3.635  -0.115  -2.292  0.00  0.00    -0.017 C 
ENDBRANCH  29  33
ENDBRANCH  28  29
ENDBRANCH   1  28
TORSDOF 7
