REMARK  Name = ZINC01034766
REMARK  9 active torsions:
REMARK  status: ('A' for Active; 'I' for Inactive)
REMARK    1  A    between atoms: C_1  and  C_2
REMARK    2  A    between atoms: C_5  and  S_8
REMARK    3  A    between atoms: S_8  and  N_11
REMARK    4  A    between atoms: C_12  and  O_14
REMARK    5  A    between atoms: O_14  and  C_15
REMARK    6  A    between atoms: C_15  and  C_16
REMARK    7  A    between atoms: C_19  and  C_21
REMARK    8  A    between atoms: C_23  and  C_31
REMARK    9  A    between atoms: C_25  and  C_27
REMARK                            x       y       z     vdW  Elec       q    Type
REMARK                         _______ _______ _______ _____ _____    ______ ____
ROOT
ATOM      1  C   UNL     1       3.236  -3.195  -5.897  0.00  0.00    +0.143 A 
ATOM      2  C   UNL     1       2.661  -2.522  -6.913  0.00  0.00    +0.049 A 
ATOM      3  C   UNL     1       2.693  -3.368  -8.040  0.00  0.00    +0.050 A 
ATOM      4  C   UNL     1       3.293  -4.522  -7.645  0.00  0.00    +0.135 A 
ATOM      5  O   UNL     1       3.622  -4.401  -6.345  0.00  0.00    -0.456 OA
ENDROOT
BRANCH   4   6
ATOM      6  C   UNL     1       3.546  -5.703  -8.497  0.00  0.00    +0.018 A 
ATOM      7  C   UNL     1       3.152  -5.699  -9.836  0.00  0.00    +0.024 A 
ATOM      8  C   UNL     1       3.396  -6.802 -10.627  0.00  0.00    +0.056 A 
ATOM      9  C   UNL     1       4.019  -7.916 -10.093  0.00  0.00    +0.024 A 
ATOM     10  C   UNL     1       4.406  -7.930  -8.765  0.00  0.00    +0.056 A 
ATOM     11  C   UNL     1       4.173  -6.831  -7.964  0.00  0.00    +0.024 A 
BRANCH  10  12
ATOM     12  C   UNL     1       5.084  -9.147  -8.192  0.00  0.00    +0.417 C 
ATOM     13  F   UNL     1       4.119 -10.019  -7.676  0.00  0.00    -0.166 F 
ATOM     14  F   UNL     1       5.808  -9.795  -9.199  0.00  0.00    -0.166 F 
ATOM     15  F   UNL     1       5.955  -8.758  -7.168  0.00  0.00    -0.166 F 
ENDBRANCH  10  12
BRANCH   8  16
ATOM     16  C   UNL     1       2.977  -6.797 -12.075  0.00  0.00    +0.417 C 
ATOM     17  F   UNL     1       3.322  -8.018 -12.665  0.00  0.00    -0.166 F 
ATOM     18  F   UNL     1       1.593  -6.613 -12.159  0.00  0.00    -0.166 F 
ATOM     19  F   UNL     1       3.628  -5.755 -12.745  0.00  0.00    -0.166 F 
ENDBRANCH   8  16
ENDBRANCH   4   6
BRANCH   1  20
ATOM     20  C   UNL     1       3.422  -2.678  -4.494  0.00  0.00    +0.308 C 
BRANCH  20  21
ATOM     21  O   UNL     1       2.262  -3.025  -3.693  0.00  0.00    -0.441 OA
BRANCH  21  23
ATOM     22  N   UNL     1       1.223  -2.923  -1.606  0.00  0.00    -0.151 N 
ATOM     23  C   UNL     1       2.269  -2.633  -2.405  0.00  0.00    +0.420 C 
ATOM     24  O   UNL     1       3.219  -2.018  -1.962  0.00  0.00    -0.225 OA
ATOM     25  H   UNL     1       0.465  -3.414  -1.959  0.00  0.00    +0.180 HD
BRANCH  22  26
ATOM     26  S   UNL     1       1.232  -2.441  -0.022  0.00  0.00    +0.077 S 
ATOM     27  O   UNL     1       2.489  -2.832   0.515  0.00  0.00    -0.150 OA
ATOM     28  O   UNL     1      -0.002  -2.866   0.539  0.00  0.00    -0.150 OA
BRANCH  26  33
ATOM     29  C   UNL     1       1.151   3.592   0.010  0.00  0.00    +0.044 C 
ATOM     30  C   UNL     1       1.171   2.086   0.002  0.00  0.00    -0.050 A 
ATOM     31  C   UNL     1      -0.017   1.378   0.010  0.00  0.00    +0.005 A 
ATOM     32  C   UNL     1       0.002  -0.004   0.002  0.00  0.00    +0.029 A 
ATOM     33  C   UNL     1       1.208  -0.679  -0.013  0.00  0.00    +0.109 A 
ATOM     34  C   UNL     1       2.396   0.029  -0.021  0.00  0.00    +0.029 A 
ATOM     35  C   UNL     1       2.377   1.411  -0.015  0.00  0.00    +0.005 A 
ENDBRANCH  26  33
ENDBRANCH  22  26
ENDBRANCH  21  23
ENDBRANCH  20  21
ENDBRANCH   1  20
TORSDOF 8
