REMARK  Name = ZINC10751317
REMARK  10 active torsions:
REMARK  status: ('A' for Active; 'I' for Inactive)
REMARK    1  A    between atoms: C_1  and  C_2
REMARK    2  A    between atoms: C_2  and  N_63
REMARK    3  A    between atoms: C_3  and  C_4
REMARK    4  A    between atoms: C_3  and  N_63
REMARK    5  A    between atoms: C_5  and  C_6
REMARK    6  A    between atoms: C_5  and  N_63
REMARK    7  A    between atoms: C_6  and  N_7
REMARK    8  A    between atoms: C_17  and  C_19
REMARK    9  A    between atoms: N_24  and  S_26
REMARK   10  A    between atoms: S_26  and  C_29
REMARK                            x       y       z     vdW  Elec       q    Type
REMARK                         _______ _______ _______ _____ _____    ______ ____
ROOT
ATOM      1  N   UNL     1       2.095   2.424  -0.392  0.00  0.00    -0.252 N 
ATOM      2  C   UNL     1       2.337   3.627  -1.034  0.00  0.00    +0.168 A 
ATOM      3  N   UNL     1       3.428   4.031  -1.643  0.00  0.00    -0.224 NA
ATOM      4  C   UNL     1       3.523   5.241  -2.236  0.00  0.00    +0.080 A 
ATOM      5  C   UNL     1       4.630   5.791  -2.923  0.00  0.00    +0.029 A 
ATOM      6  C   UNL     1       4.563   7.048  -3.465  0.00  0.00    +0.002 A 
ATOM      7  C   UNL     1       3.416   7.822  -3.361  0.00  0.00    +0.001 A 
ATOM      8  C   UNL     1       2.315   7.315  -2.696  0.00  0.00    +0.017 A 
ATOM      9  C   UNL     1       2.373   6.057  -2.150  0.00  0.00    +0.041 A 
ATOM     10  S   UNL     1       1.247   5.029  -1.238  0.00  0.00    -0.052 S 
ATOM     11  C   UNL     1       0.949   2.246   0.296  0.00  0.00    +0.226 C 
ATOM     12  O   UNL     1       0.696   1.165   0.782  0.00  0.00    -0.275 OA
ENDROOT
BRANCH  11  13
ATOM     13  C   UNL     1      -0.019   3.389   0.455  0.00  0.00    +0.091 C 
ATOM     14  C   UNL     1       0.632   4.499   1.285  0.00  0.00    +0.015 C 
ATOM     15  C   UNL     1      -0.339   5.674   1.419  0.00  0.00    +0.018 C 
ATOM     16  C   UNL     1      -1.604   5.205   2.146  0.00  0.00    +0.109 C 
ATOM     17  N   UNL     1      -2.156   4.045   1.434  0.00  0.00    -0.175 NA
ATOM     18  C   UNL     1      -1.280   2.895   1.171  0.00  0.00    +0.122 C 
BRANCH  17  19
ATOM     19  S   UNL     1      -3.736   4.034   0.938  0.00  0.00    +0.067 S 
ATOM     20  O   UNL     1      -4.113   2.669   0.816  0.00  0.00    -0.152 OA
ATOM     21  O   UNL     1      -4.432   4.945   1.777  0.00  0.00    -0.152 OA
BRANCH  19  22
ATOM     22  C   UNL     1      -3.776   4.714  -0.687  0.00  0.00    +0.143 A 
ATOM     23  C   UNL     1      -3.661   4.081  -1.881  0.00  0.00    +0.036 A 
ATOM     24  C   UNL     1      -3.724   4.826  -3.043  0.00  0.00    +0.010 A 
ATOM     25  C   UNL     1      -3.898   6.168  -2.955  0.00  0.00    +0.047 A 
ATOM     26  S   UNL     1      -3.987   6.414  -1.190  0.00  0.00    -0.077 S 
ENDBRANCH  19  22
ENDBRANCH  17  19
ENDBRANCH  11  13
BRANCH   1  27
ATOM     27  C   UNL     1       3.083   1.345  -0.461  0.00  0.00    +0.097 C 
BRANCH  27  28
ATOM     28  C   UNL     1       2.790   0.462  -1.676  0.00  0.00    -0.059 C 
BRANCH  28  29
ATOM     29  N   UNL     1       3.808  -0.608  -1.744  0.00  0.00    +0.380 N 
ATOM     30  H   UNL     1       4.741  -0.184  -1.694  0.00  0.00    -0.082 HD
BRANCH  29  32
ATOM     31  C   UNL     1       2.263  -2.198  -0.650  0.00  0.00    -0.017 C 
ATOM     32  C   UNL     1       3.641  -1.536  -0.605  0.00  0.00    -0.082 C 
ENDBRANCH  29  32
BRANCH  29  33
ATOM     33  C   UNL     1       3.681  -1.345  -3.019  0.00  0.00    -0.082 C 
ATOM     34  C   UNL     1       4.895  -2.262  -3.180  0.00  0.00    -0.017 C 
ENDBRANCH  29  33
ENDBRANCH  28  29
ENDBRANCH  27  28
ENDBRANCH   1  27
TORSDOF 8
