REMARK  Name = ZINC36016913
REMARK  12 active torsions:
REMARK  status: ('A' for Active; 'I' for Inactive)
REMARK    1  A    between atoms: C_1  and  C_2
REMARK    2  A    between atoms: C_2  and  O_3
REMARK    3  A    between atoms: O_3  and  C_4
REMARK    4  A    between atoms: C_4  and  C_6
REMARK    5  A    between atoms: C_7  and  C_22
REMARK    6  A    between atoms: N_8  and  C_19
REMARK    7  A    between atoms: C_12  and  C_14
REMARK    8  A    between atoms: C_19  and  C_20
REMARK    9  A    between atoms: C_22  and  N_23
REMARK   10  A    between atoms: N_32  and  C_33
REMARK   11  A    between atoms: C_33  and  C_34
REMARK   12  A    between atoms: C_33  and  C_35
REMARK                            x       y       z     vdW  Elec       q    Type
REMARK                         _______ _______ _______ _____ _____    ______ ____
ROOT
ATOM      1  C   UNL     1       1.205  -3.874   3.370  0.00  0.00    +0.076 C 
ATOM      2  C   UNL     1       1.580  -3.479   2.135  0.00  0.00    +0.011 C 
ATOM      3  N   UNL     1       2.214  -2.286   1.939  0.00  0.00    -0.257 N 
ATOM      4  C   UNL     1       2.510  -1.431   2.926  0.00  0.00    +0.307 C 
ATOM      5  O   UNL     1       3.077  -0.391   2.654  0.00  0.00    -0.252 OA
ATOM      6  N   UNL     1       2.198  -1.686   4.213  0.00  0.00    -0.288 N 
ATOM      7  C   UNL     1       1.506  -2.946   4.530  0.00  0.00    +0.144 C 
ATOM      8  H   UNL     1       2.422  -1.053   4.912  0.00  0.00    +0.151 HD
ENDROOT
BRANCH   7   9
ATOM      9  C   UNL     1       2.354  -3.701   5.520  0.00  0.00    -0.015 A 
ATOM     10  C   UNL     1       1.786  -4.260   6.649  0.00  0.00    +0.013 A 
ATOM     11  C   UNL     1       2.577  -4.932   7.520  0.00  0.00    +0.045 A 
ATOM     12  S   UNL     1       4.181  -4.787   6.749  0.00  0.00    -0.105 S 
ATOM     13  C   UNL     1       3.687  -3.846   5.315  0.00  0.00    +0.051 A 
ENDBRANCH   7   9
BRANCH   1  14
ATOM     14  C   UNL     1       0.547  -5.110   3.575  0.00  0.00    +0.339 C 
ATOM     15  O   UNL     1       0.266  -5.814   2.623  0.00  0.00    -0.245 OA
BRANCH  14  16
ATOM     16  O   UNL     1       0.232  -5.508   4.825  0.00  0.00    -0.462 OA
BRANCH  16  18
ATOM     17  C   UNL     1      -0.706  -7.046   6.436  0.00  0.00    +0.048 C 
ATOM     18  C   UNL     1      -0.432  -6.767   4.957  0.00  0.00    +0.229 C 
ENDBRANCH  16  18
ENDBRANCH  14  16
ENDBRANCH   1  14
BRANCH   3  19
ATOM     19  C   UNL     1       2.593  -1.921   0.572  0.00  0.00    +0.141 C 
BRANCH  19  20
ATOM     20  C   UNL     1       1.510  -1.070  -0.040  0.00  0.00    -0.015 C 
ATOM     21  C   UNL     1       1.801   0.109  -0.529  0.00  0.00    +0.005 C 
ENDBRANCH  19  20
ENDBRANCH   3  19
BRANCH   2  22
ATOM     22  C   UNL     1       1.295  -4.370   0.953  0.00  0.00    -0.026 C 
BRANCH  22  23
ATOM     23  N   UNL     1       2.478  -5.191   0.662  0.00  0.00    +0.384 N 
ATOM     24  C   UNL     1       2.275  -5.852  -0.625  0.00  0.00    -0.077 C 
ATOM     25  C   UNL     1       3.617  -6.082  -1.285  0.00  0.00    +0.000 C 
ATOM     26  C   UNL     1       4.129  -7.489  -0.929  0.00  0.00    +0.107 C 
ATOM     27  N   UNL     1       3.841  -7.818   0.482  0.00  0.00    -0.287 N 
ATOM     28  C   UNL     1       4.006  -6.856   1.551  0.00  0.00    +0.091 C 
ATOM     29  C   UNL     1       2.694  -6.064   1.752  0.00  0.00    -0.059 C 
ATOM     30  C   UNL     1       3.408  -9.058   0.784  0.00  0.00    +0.302 C 
ATOM     31  O   UNL     1       3.338  -9.907  -0.084  0.00  0.00    -0.253 OA
ATOM     32  N   UNL     1       3.051  -9.358   2.049  0.00  0.00    -0.297 N 
ATOM     33  H   UNL     1       3.040  -8.664   2.727  0.00  0.00    +0.150 HD
ATOM     34  H   UNL     1       3.276  -4.580   0.581  0.00  0.00    -0.081 HD
BRANCH  32  35
ATOM     35  C   UNL     1       2.681 -10.731   2.400  0.00  0.00    +0.068 C 
ATOM     36  C   UNL     1       3.944 -11.533   2.722  0.00  0.00    +0.027 C 
ATOM     37  C   UNL     1       1.762 -10.714   3.624  0.00  0.00    +0.027 C 
ENDBRANCH  32  35
ENDBRANCH  22  23
ENDBRANCH   2  22
TORSDOF 9
