REMARK  Name = ZINC09194294
REMARK  9 active torsions:
REMARK  status: ('A' for Active; 'I' for Inactive)
REMARK    1  A    between atoms: C_1  and  C_2
REMARK    2  A    between atoms: C_2  and  C_3
REMARK    3  A    between atoms: C_3  and  C_4
REMARK    4  A    between atoms: C_4  and  O_5
REMARK    5  A    between atoms: O_5  and  C_6
REMARK    6  A    between atoms: C_6  and  C_8
REMARK    7  A    between atoms: C_11  and  N_14
REMARK    8  A    between atoms: C_15  and  C_17
REMARK    9  A    between atoms: C_23  and  C_28
REMARK                            x       y       z     vdW  Elec       q    Type
REMARK                         _______ _______ _______ _____ _____    ______ ____
ROOT
ATOM      1  N   UNL     1      -3.710   3.267   0.055  0.00  0.00    -0.279 N 
ATOM      2  C   UNL     1      -3.500   2.150   0.779  0.00  0.00    +0.284 C 
ATOM      3  O   UNL     1      -4.402   1.677   1.441  0.00  0.00    -0.266 OA
ATOM      4  H   UNL     1      -2.971   3.688  -0.413  0.00  0.00    +0.155 HD
ENDROOT
BRANCH   2   5
ATOM      5  C   UNL     1      -2.170   1.498   0.767  0.00  0.00    +0.194 A 
ATOM      6  C   UNL     1      -1.988   0.376   1.504  0.00  0.00    +0.103 A 
ATOM      7  C   UNL     1      -0.668  -0.272   1.494  0.00  0.00    +0.193 A 
ATOM      8  O   UNL     1      -0.448  -1.282   2.137  0.00  0.00    -0.287 OA
ATOM      9  C   UNL     1       0.377   0.361   0.666  0.00  0.00    +0.064 A 
ATOM     10  C   UNL     1       1.663  -0.174   0.587  0.00  0.00    +0.018 A 
ATOM     11  C   UNL     1       2.604   0.440  -0.191  0.00  0.00    -0.050 A 
ATOM     12  C   UNL     1       2.288   1.590  -0.900  0.00  0.00    +0.007 A 
ATOM     13  C   UNL     1       1.024   2.133  -0.834  0.00  0.00    +0.047 A 
ATOM     14  C   UNL     1       0.049   1.525  -0.049  0.00  0.00    +0.139 A 
ATOM     15  O   UNL     1      -1.191   2.045   0.031  0.00  0.00    -0.450 OA
ATOM     16  C   UNL     1       3.994  -0.136  -0.279  0.00  0.00    +0.044 C 
ENDBRANCH   2   5
BRANCH   1  20
ATOM     17  C   UNL     1      -7.528   4.913  -0.177  0.00  0.00    +0.059 A 
ATOM     18  C   UNL     1      -7.366   3.527  -0.085  0.00  0.00    +0.017 A 
ATOM     19  C   UNL     1      -6.103   2.987  -0.008  0.00  0.00    +0.024 A 
ATOM     20  C   UNL     1      -4.987   3.818  -0.022  0.00  0.00    +0.034 A 
ATOM     21  C   UNL     1      -5.144   5.198  -0.108  0.00  0.00    +0.024 A 
ATOM     22  C   UNL     1      -6.404   5.745  -0.190  0.00  0.00    +0.017 A 
BRANCH  17  23
ATOM     23  C   UNL     1      -8.880   5.496  -0.259  0.00  0.00    +0.339 C 
ATOM     24  O   UNL     1      -9.855   4.772  -0.248  0.00  0.00    -0.245 OA
BRANCH  23  25
ATOM     25  O   UNL     1      -9.033   6.832  -0.348  0.00  0.00    -0.461 OA
BRANCH  25  26
ATOM     26  C   UNL     1     -10.393   7.335  -0.426  0.00  0.00    +0.232 C 
BRANCH  26  27
ATOM     27  C   UNL     1     -10.367   8.862  -0.520  0.00  0.00    +0.041 C 
BRANCH  27  29
ATOM     28  C   UNL     1     -11.773  10.920  -0.696  0.00  0.00    +0.004 C 
ATOM     29  C   UNL     1     -11.799   9.393  -0.602  0.00  0.00    -0.000 C 
ENDBRANCH  27  29
ENDBRANCH  26  27
ENDBRANCH  25  26
ENDBRANCH  23  25
ENDBRANCH  17  23
ENDBRANCH   1  20
TORSDOF 7
