REMARK  Name = ZINC36702578
REMARK  11 active torsions:
REMARK  status: ('A' for Active; 'I' for Inactive)
REMARK    1  A    between atoms: C_1  and  N_2
REMARK    2  A    between atoms: N_2  and  C_3
REMARK    3  A    between atoms: N_2  and  C_4
REMARK    4  A    between atoms: C_4  and  C_5
REMARK    5  A    between atoms: C_5  and  N_6
REMARK    6  A    between atoms: C_10  and  O_17
REMARK    7  A    between atoms: O_17  and  C_18
REMARK    8  A    between atoms: C_19  and  C_21
REMARK    9  A    between atoms: C_21  and  C_22
REMARK   10  A    between atoms: C_22  and  S_23
REMARK   11  A    between atoms: S_23  and  C_26
REMARK                            x       y       z     vdW  Elec       q    Type
REMARK                         _______ _______ _______ _____ _____    ______ ____
ROOT
ATOM      1  N   UNL     1       2.845  -0.526  -2.362  0.00  0.00    -0.252 N 
ATOM      2  C   UNL     1       2.892   0.276  -3.492  0.00  0.00    +0.168 A 
ATOM      3  N   UNL     1       3.447   0.028  -4.655  0.00  0.00    -0.221 NA
ATOM      4  C   UNL     1       3.416   0.911  -5.678  0.00  0.00    +0.123 A 
ATOM      5  C   UNL     1       3.972   0.768  -6.974  0.00  0.00    +0.147 A 
ATOM      6  C   UNL     1       3.849   1.773  -7.904  0.00  0.00    +0.049 A 
ATOM      7  C   UNL     1       3.181   2.953  -7.611  0.00  0.00    +0.025 A 
ATOM      8  C   UNL     1       2.626   3.124  -6.355  0.00  0.00    +0.057 A 
ATOM      9  C   UNL     1       2.744   2.125  -5.418  0.00  0.00    +0.063 A 
ATOM     10  S   UNL     1       2.204   1.907  -3.739  0.00  0.00    -0.050 S 
ATOM     11 CL   UNL     1       1.786   4.592  -5.965  0.00  0.00    -0.082 Cl
ATOM     12  C   UNL     1       3.429  -1.740  -2.373  0.00  0.00    +0.223 C 
ATOM     13  O   UNL     1       3.997  -2.131  -3.370  0.00  0.00    -0.275 OA
ENDROOT
BRANCH   5  14
ATOM     14  O   UNL     1       4.635  -0.373  -7.301  0.00  0.00    -0.493 OA
ATOM     15  C   UNL     1       5.173  -0.456  -8.622  0.00  0.00    +0.277 C 
ENDBRANCH   5  14
BRANCH   1  16
ATOM     16  C   UNL     1       2.159  -0.053  -1.157  0.00  0.00    +0.097 C 
BRANCH  16  17
ATOM     17  C   UNL     1       0.690  -0.478  -1.207  0.00  0.00    -0.060 C 
BRANCH  17  19
ATOM     18  C   UNL     1      -0.018   1.465   0.010  0.00  0.00    -0.097 C 
ATOM     19  N   UNL     1       0.002  -0.004   0.002  0.00  0.00    +0.377 N 
ATOM     20  C   UNL     1      -1.376  -0.512   0.012  0.00  0.00    -0.097 C 
ATOM     21  H   UNL     1       0.490  -0.338   0.820  0.00  0.00    -0.083 HD
ENDBRANCH  17  19
ENDBRANCH  16  17
ENDBRANCH   1  16
BRANCH  12  22
ATOM     22  C   UNL     1       3.378  -2.611  -1.144  0.00  0.00    +0.119 C 
BRANCH  22  23
ATOM     23  C   UNL     1       4.112  -3.925  -1.420  0.00  0.00    +0.181 C 
BRANCH  23  24
ATOM     24  S   UNL     1       4.051  -4.974   0.058  0.00  0.00    -0.003 S 
ATOM     25  O   UNL     1       4.824  -4.396   1.101  0.00  0.00    -0.169 OA
ATOM     26  O   UNL     1       2.718  -5.405   0.298  0.00  0.00    -0.169 OA
BRANCH  24  27
ATOM     27  C   UNL     1       4.922  -6.439  -0.389  0.00  0.00    +0.088 A 
ATOM     28  C   UNL     1       4.244  -7.500  -0.959  0.00  0.00    +0.028 A 
ATOM     29  C   UNL     1       4.927  -8.649  -1.310  0.00  0.00    +0.022 A 
ATOM     30  C   UNL     1       6.290  -8.737  -1.091  0.00  0.00    +0.041 A 
ATOM     31  C   UNL     1       6.969  -7.675  -0.520  0.00  0.00    +0.022 A 
ATOM     32  C   UNL     1       6.285  -6.524  -0.175  0.00  0.00    +0.028 A 
ATOM     33 CL   UNL     1       7.149 -10.180  -1.531  0.00  0.00    -0.084 Cl
ENDBRANCH  24  27
ENDBRANCH  23  24
ENDBRANCH  22  23
ENDBRANCH  12  22
TORSDOF 8
