REMARK  Name = ZINC13643496
REMARK  6 active torsions:
REMARK  status: ('A' for Active; 'I' for Inactive)
REMARK    1  A    between atoms: C_1  and  N_2
REMARK    2  A    between atoms: N_2  and  C_3
REMARK    3  A    between atoms: N_2  and  C_4
REMARK    4  A    between atoms: C_7  and  C_10
REMARK    5  A    between atoms: C_21  and  S_26
REMARK    6  A    between atoms: S_26  and  N_29
REMARK                            x       y       z     vdW  Elec       q    Type
REMARK                         _______ _______ _______ _____ _____    ______ ____
ROOT
ATOM      1  C   UNL     1      -0.698   2.072   1.260  0.00  0.00    +0.105 C 
ATOM      2  C   UNL     1      -0.019   1.543   0.011  0.00  0.00    +0.029 C 
ATOM      3  C   UNL     1       0.002  -0.004   0.002  0.00  0.00    +0.033 C 
ATOM      4  C   UNL     1       1.234  -0.321  -0.827  0.00  0.00    -0.030 C 
ATOM      5  C   UNL     1       2.057   0.698  -0.832  0.00  0.00    -0.023 C 
ATOM      6  C   UNL     1       1.491   1.842  -0.002  0.00  0.00    +0.049 C 
ATOM      7  C   UNL     1       2.105   1.751   1.369  0.00  0.00    -0.018 A 
ATOM      8  C   UNL     1       3.487   1.830   1.472  0.00  0.00    +0.034 A 
ATOM      9  C   UNL     1       4.103   1.750   2.704  0.00  0.00    +0.105 A 
ATOM     10  C   UNL     1       3.349   1.589   3.852  0.00  0.00    +0.030 A 
ATOM     11  C   UNL     1       1.974   1.510   3.761  0.00  0.00    +0.025 A 
ATOM     12  C   UNL     1       1.353   1.593   2.520  0.00  0.00    +0.031 A 
ATOM     13  N   UNL     1      -0.042   1.515   2.448  0.00  0.00    -0.336 N 
ATOM     14  H   UNL     1      -0.558   1.106   3.160  0.00  0.00    +0.147 HD
ENDROOT
BRANCH   1  18
ATOM     15  C   UNL     1      -0.407   6.336   1.340  0.00  0.00    +0.029 A 
ATOM     16  C   UNL     1      -1.581   5.726   0.918  0.00  0.00    +0.023 A 
ATOM     17  C   UNL     1      -1.672   4.348   0.893  0.00  0.00    +0.007 A 
ATOM     18  C   UNL     1      -0.595   3.576   1.288  0.00  0.00    -0.027 A 
ATOM     19  C   UNL     1       0.574   4.179   1.714  0.00  0.00    +0.007 A 
ATOM     20  C   UNL     1       0.673   5.557   1.736  0.00  0.00    +0.023 A 
BRANCH  15  22
ATOM     21  C   UNL     1      -1.452   8.549   0.949  0.00  0.00    +0.129 C 
ATOM     22  N   UNL     1      -0.312   7.729   1.367  0.00  0.00    -0.336 N 
ATOM     23  C   UNL     1       0.928   8.370   1.812  0.00  0.00    +0.129 C 
ENDBRANCH  15  22
ENDBRANCH   1  18
BRANCH   9  24
ATOM     24  S   UNL     1       5.859   1.852   2.815  0.00  0.00    +0.056 S 
ATOM     25  O   UNL     1       6.300   2.548   1.657  0.00  0.00    -0.153 OA
ATOM     26  O   UNL     1       6.157   2.297   4.131  0.00  0.00    -0.153 OA
BRANCH  24  27
ATOM     27  N   UNL     1       6.448   0.309   2.693  0.00  0.00    -0.204 NA
ATOM     28  H   UNL     1       7.323   0.153   2.305  0.00  0.00    +0.144 HD
ATOM     29  H   UNL     1       5.918  -0.439   3.010  0.00  0.00    +0.144 HD
ENDBRANCH  24  27
ENDBRANCH   9  24
TORSDOF 4
