REMARK  Name = ZINC36206143
REMARK  12 active torsions:
REMARK  status: ('A' for Active; 'I' for Inactive)
REMARK    1  A    between atoms: C_1  and  O_2
REMARK    2  A    between atoms: O_2  and  C_3
REMARK    3  A    between atoms: C_3  and  C_4
REMARK    4  A    between atoms: C_4  and  N_5
REMARK    5  A    between atoms: N_5  and  C_6
REMARK    6  A    between atoms: N_5  and  C_25
REMARK    7  A    between atoms: C_6  and  C_7
REMARK    8  A    between atoms: C_13  and  C_18
REMARK    9  A    between atoms: C_25  and  C_26
REMARK   10  A    between atoms: C_26  and  C_28
REMARK   11  A    between atoms: C_26  and  O_35
REMARK   12  A    between atoms: C_28  and  C_29
REMARK                            x       y       z     vdW  Elec       q    Type
REMARK                         _______ _______ _______ _____ _____    ______ ____
ROOT
ATOM      1  C   UNL     1      -0.675  -3.464  -0.175  0.00  0.00    -0.003 C 
ENDROOT
BRANCH   1   2
ATOM      2  C   UNL     1      -0.384  -3.133   1.266  0.00  0.00    +0.094 A 
ATOM      3  N   UNL     1      -0.156  -4.138   2.149  0.00  0.00    -0.312 N 
ATOM      4  H   UNL     1      -0.183  -5.058   1.841  0.00  0.00    +0.170 HD
ATOM      5  C   UNL     1       0.108  -3.885   3.445  0.00  0.00    +0.260 A 
ATOM      6  O   UNL     1       0.312  -4.799   4.225  0.00  0.00    -0.267 OA
ATOM      7  C   UNL     1       0.147  -2.526   3.892  0.00  0.00    +0.080 A 
ATOM      8  C   UNL     1       0.409  -2.001   5.226  0.00  0.00    +0.004 A 
ATOM      9  C   UNL     1       0.394  -0.659   5.413  0.00  0.00    +0.056 A 
ATOM     10  S   UNL     1       0.024  -0.020   3.791  0.00  0.00    -0.076 S 
ATOM     11  C   UNL     1      -0.101  -1.554   2.908  0.00  0.00    +0.116 A 
ATOM     12  N   UNL     1      -0.350  -1.883   1.643  0.00  0.00    -0.229 NA
BRANCH   8  13
ATOM     13  C   UNL     1       0.686  -2.918   6.358  0.00  0.00    -0.016 A 
ATOM     14  C   UNL     1      -0.159  -3.998   6.605  0.00  0.00    +0.010 A 
ATOM     15  C   UNL     1       0.103  -4.849   7.659  0.00  0.00    +0.020 A 
ATOM     16  C   UNL     1       1.204  -4.631   8.470  0.00  0.00    +0.041 A 
ATOM     17  C   UNL     1       2.046  -3.559   8.229  0.00  0.00    +0.020 A 
ATOM     18  C   UNL     1       1.796  -2.706   7.175  0.00  0.00    +0.010 A 
ATOM     19 CL   UNL     1       1.528  -5.705   9.795  0.00  0.00    -0.084 Cl
ENDBRANCH   8  13
ENDBRANCH   1   2
BRANCH   1  20
ATOM     20  N   UNL     1      -0.880  -2.222  -0.931  0.00  0.00    +0.388 N 
ATOM     21  H   UNL     1      -1.601  -1.673  -0.488  0.00  0.00    -0.081 HD
BRANCH  20  22
ATOM     22  C   UNL     1       0.372  -1.454  -0.960  0.00  0.00    -0.050 C 
BRANCH  22  23
ATOM     23  C   UNL     1       0.120  -0.091  -1.607  0.00  0.00    +0.141 C 
BRANCH  23  25
ATOM     24  C   UNL     1      -1.110   1.947  -1.328  0.00  0.00    +0.193 C 
ATOM     25  O   UNL     1      -0.804   0.651  -0.809  0.00  0.00    -0.385 OA
ENDBRANCH  23  25
ENDBRANCH  22  23
ENDBRANCH  20  22
BRANCH  20  26
ATOM     26  C   UNL     1      -1.286  -2.546  -2.305  0.00  0.00    -0.046 C 
BRANCH  26  27
ATOM     27  C   UNL     1      -2.687  -3.163  -2.290  0.00  0.00    +0.102 C 
BRANCH  27  28
ATOM     28  O   UNL     1      -2.631  -4.456  -1.686  0.00  0.00    -0.393 OA
ATOM     29  H   UNL     1      -2.050  -5.080  -2.143  0.00  0.00    +0.210 HD
ENDBRANCH  27  28
BRANCH  27  30
ATOM     30  C   UNL     1      -3.203  -3.292  -3.725  0.00  0.00    +0.064 C 
BRANCH  30  31
ATOM     31  C   UNL     1      -4.627  -3.784  -3.704  0.00  0.00    -0.045 A 
ATOM     32  C   UNL     1      -4.890  -5.140  -3.728  0.00  0.00    +0.004 A 
ATOM     33  C   UNL     1      -6.197  -5.591  -3.709  0.00  0.00    +0.000 A 
ATOM     34  C   UNL     1      -7.240  -4.686  -3.666  0.00  0.00    +0.000 A 
ATOM     35  C   UNL     1      -6.977  -3.329  -3.642  0.00  0.00    +0.000 A 
ATOM     36  C   UNL     1      -5.670  -2.878  -3.657  0.00  0.00    +0.004 A 
ENDBRANCH  30  31
ENDBRANCH  27  30
ENDBRANCH  26  27
ENDBRANCH  20  26
ENDBRANCH   1  20
TORSDOF 11
