REMARK  Name = ZINC01823517
REMARK  8 active torsions:
REMARK  status: ('A' for Active; 'I' for Inactive)
REMARK    1  A    between atoms: C_4  and  C_7
REMARK    2  A    between atoms: C_8  and  C_9
REMARK    3  A    between atoms: N_10  and  N_11
REMARK    4  A    between atoms: C_12  and  C_14
REMARK    5  A    between atoms: C_14  and  S_15
REMARK    6  A    between atoms: S_15  and  C_16
REMARK    7  A    between atoms: C_19  and  C_27
REMARK    8  A    between atoms: N_20  and  C_21
REMARK                            x       y       z     vdW  Elec       q    Type
REMARK                         _______ _______ _______ _____ _____    ______ ____
ROOT
ATOM      1  S   UNL     1       7.025  10.120  -0.765  0.00  0.00    -0.076 S 
ENDROOT
BRANCH   1   2
ATOM      2  C   UNL     1       8.667  10.745  -0.896  0.00  0.00    +0.197 A 
ATOM      3  N   UNL     1       9.774  10.036  -0.905  0.00  0.00    -0.122 NA
ATOM      4  N   UNL     1      10.794  10.810  -1.014  0.00  0.00    -0.128 NA
ATOM      5  C   UNL     1      10.404  12.062  -1.081  0.00  0.00    +0.169 A 
ATOM      6  N   UNL     1       9.027  12.060  -1.014  0.00  0.00    -0.270 N 
BRANCH   6   7
ATOM      7  C   UNL     1       8.175  13.172  -1.056  0.00  0.00    +0.051 A 
ATOM      8  C   UNL     1       8.104  13.951  -2.203  0.00  0.00    +0.026 A 
ATOM      9  C   UNL     1       7.260  15.044  -2.242  0.00  0.00    +0.002 A 
ATOM     10  C   UNL     1       6.495  15.368  -1.137  0.00  0.00    +0.000 A 
ATOM     11  C   UNL     1       6.567  14.597   0.008  0.00  0.00    +0.002 A 
ATOM     12  C   UNL     1       7.405  13.500   0.052  0.00  0.00    +0.026 A 
ENDBRANCH   6   7
BRANCH   5  13
ATOM     13  C   UNL     1      11.275  13.248  -1.211  0.00  0.00    +0.020 A 
ATOM     14  C   UNL     1      10.764  14.524  -0.967  0.00  0.00    +0.011 A 
ATOM     15  C   UNL     1      11.585  15.627  -1.085  0.00  0.00    +0.001 A 
ATOM     16  C   UNL     1      12.909  15.471  -1.455  0.00  0.00    +0.000 A 
ATOM     17  C   UNL     1      13.421  14.210  -1.704  0.00  0.00    +0.001 A 
ATOM     18  C   UNL     1      12.612  13.098  -1.585  0.00  0.00    +0.011 A 
ENDBRANCH   5  13
ENDBRANCH   1   2
BRANCH   1  19
ATOM     19  C   UNL     1       7.372   8.346  -0.658  0.00  0.00    +0.174 C 
BRANCH  19  21
ATOM     20  N   UNL     1       6.089   6.243  -0.441  0.00  0.00    -0.206 N 
ATOM     21  C   UNL     1       6.076   7.587  -0.535  0.00  0.00    +0.242 C 
ATOM     22  O   UNL     1       5.021   8.186  -0.522  0.00  0.00    -0.273 OA
ATOM     23  H   UNL     1       6.933   5.764  -0.451  0.00  0.00    +0.177 HD
BRANCH  20  25
ATOM     24  C   UNL     1       4.897   4.238  -0.235  0.00  0.00    +0.145 C 
ATOM     25  N   UNL     1       4.884   5.537  -0.327  0.00  0.00    -0.187 NA
BRANCH  24  27
ATOM     26  C   UNL     1       3.653   2.156  -0.022  0.00  0.00    +0.024 C 
ATOM     27  C   UNL     1       3.640   3.502  -0.117  0.00  0.00    +0.038 C 
ATOM     28 BR   UNL     1       1.996   4.435  -0.096  0.00  0.00    -0.049 Br
BRANCH  26  32
ATOM     29  C   UNL     1       0.012  -0.015  -0.165  0.00  0.00    +0.000 A 
ATOM     30  C   UNL     1       1.042  -0.453   0.648  0.00  0.00    +0.001 A 
ATOM     31  C   UNL     1       2.229   0.247   0.700  0.00  0.00    +0.008 A 
ATOM     32  C   UNL     1       2.390   1.402  -0.072  0.00  0.00    -0.024 A 
ATOM     33  C   UNL     1       1.343   1.838  -0.891  0.00  0.00    +0.008 A 
ATOM     34  C   UNL     1       0.163   1.127  -0.932  0.00  0.00    +0.001 A 
ENDBRANCH  26  32
ENDBRANCH  24  27
ENDBRANCH  20  25
ENDBRANCH  19  21
ENDBRANCH   1  19
TORSDOF 8
