REMARK  Name = ZINC43554560
REMARK  12 active torsions:
REMARK  status: ('A' for Active; 'I' for Inactive)
REMARK    1  A    between atoms: C_1  and  C_2
REMARK    2  A    between atoms: C_5  and  O_38
REMARK    3  A    between atoms: C_7  and  C_35
REMARK    4  A    between atoms: C_7  and  C_36
REMARK    5  A    between atoms: C_12  and  O_34
REMARK    6  A    between atoms: C_14  and  C_16
REMARK    7  A    between atoms: C_16  and  C_17
REMARK    8  A    between atoms: N_19  and  C_20
REMARK    9  A    between atoms: C_20  and  C_21
REMARK   10  A    between atoms: C_21  and  C_22
REMARK   11  A    between atoms: C_21  and  C_28
REMARK   12  A    between atoms: C_36  and  O_37
REMARK                            x       y       z     vdW  Elec       q    Type
REMARK                         _______ _______ _______ _____ _____    ______ ____
ROOT
ATOM      1  C   UNL     1       1.978   1.852  -0.092  0.00  0.00    +0.012 C 
ATOM      2  C   UNL     1       2.347   0.372   0.124  0.00  0.00    -0.023 C 
ATOM      3  C   UNL     1       1.126  -0.363   0.667  0.00  0.00    +0.010 C 
ATOM      4  C   UNL     1       0.727   0.224   2.023  0.00  0.00    +0.032 C 
ATOM      5  C   UNL     1       1.862   0.057   3.022  0.00  0.00    +0.123 C 
ATOM      6  C   UNL     1       3.173   0.652   2.523  0.00  0.00    +0.020 C 
ATOM      7  C   UNL     1       3.514   0.235   1.099  0.00  0.00    +0.006 C 
ATOM      8  C   UNL     1       4.029  -1.208   1.095  0.00  0.00    +0.007 C 
ATOM      9  C   UNL     1       4.464  -1.631  -0.310  0.00  0.00    +0.032 C 
ATOM     10  C   UNL     1       3.261  -1.565  -1.251  0.00  0.00    +0.119 C 
ATOM     11  C   UNL     1       2.730  -0.141  -1.266  0.00  0.00    +0.032 C 
ATOM     12  C   UNL     1       3.140   2.178   2.681  0.00  0.00    +0.016 C 
ENDROOT
BRANCH  10  13
ATOM     13  O   UNL     1       2.260  -2.493  -0.849  0.00  0.00    -0.391 OA
ATOM     14  H   UNL     1       2.556  -3.414  -0.844  0.00  0.00    +0.210 HD
ENDBRANCH  10  13
BRANCH   5  15
ATOM     15  O   UNL     1       2.040  -1.330   3.328  0.00  0.00    -0.391 OA
ATOM     16  H   UNL     1       1.260  -1.751   3.714  0.00  0.00    +0.210 HD
ENDBRANCH   5  15
BRANCH  11  17
ATOM     17  C   UNL     1       1.544  -0.030  -2.225  0.00  0.00    +0.102 C 
BRANCH  17  18
ATOM     18  C   UNL     1       1.981  -0.425  -3.612  0.00  0.00    +0.213 C 
ATOM     19  O   UNL     1       3.129  -0.762  -3.813  0.00  0.00    -0.276 OA
ATOM     20  N   UNL     1       1.097  -0.403  -4.629  0.00  0.00    -0.314 N 
ATOM     21  H   UNL     1       0.179  -0.134  -4.468  0.00  0.00    +0.149 HD
BRANCH  20  22
ATOM     22  C   UNL     1       1.522  -0.787  -5.978  0.00  0.00    +0.117 C 
BRANCH  22  23
ATOM     23  C   UNL     1       0.335  -0.676  -6.937  0.00  0.00    +0.066 C 
BRANCH  23  24
ATOM     24  C   UNL     1       0.799  -0.952  -8.344  0.00  0.00    -0.038 A 
ATOM     25  C   UNL     1       0.561  -0.027  -9.344  0.00  0.00    +0.004 A 
ATOM     26  C   UNL     1       0.987  -0.280 -10.634  0.00  0.00    +0.000 A 
ATOM     27  C   UNL     1       1.651  -1.457 -10.925  0.00  0.00    +0.000 A 
ATOM     28  C   UNL     1       1.890  -2.381  -9.925  0.00  0.00    +0.000 A 
ATOM     29  C   UNL     1       1.468  -2.126  -8.634  0.00  0.00    +0.004 A 
ENDBRANCH  23  24
BRANCH  23  30
ATOM     30  C   UNL     1      -0.720  -1.681  -6.550  0.00  0.00    -0.038 A 
ATOM     31  C   UNL     1      -0.378  -3.009  -6.377  0.00  0.00    +0.004 A 
ATOM     32  C   UNL     1      -1.346  -3.930  -6.022  0.00  0.00    +0.000 A 
ATOM     33  C   UNL     1      -2.654  -3.523  -5.840  0.00  0.00    +0.000 A 
ATOM     34  C   UNL     1      -2.995  -2.195  -6.013  0.00  0.00    +0.000 A 
ATOM     35  C   UNL     1      -2.027  -1.273  -6.364  0.00  0.00    +0.004 A 
ENDBRANCH  23  30
ENDBRANCH  22  23
ENDBRANCH  20  22
ENDBRANCH  17  18
ENDBRANCH  11  17
BRANCH   6  36
ATOM     36  C   UNL     1       4.283   0.169   3.486  0.00  0.00    +0.165 C 
BRANCH  36  37
ATOM     37  O   UNL     1       3.994   0.622   4.811  0.00  0.00    -0.394 OA
ATOM     38  H   UNL     1       4.650   0.355   5.469  0.00  0.00    +0.209 HD
ENDBRANCH  36  37
ENDBRANCH   6  36
TORSDOF 10
