REMARK  Name = ZINC09307417
REMARK  5 active torsions:
REMARK  status: ('A' for Active; 'I' for Inactive)
REMARK    1  A    between atoms: C_1  and  C_2
REMARK    2  A    between atoms: N_23  and  C_26
REMARK    3  A    between atoms: C_29  and  O_32
REMARK    4  A    between atoms: O_32  and  C_33
REMARK    5  A    between atoms: C_33  and  C_35
REMARK                            x       y       z     vdW  Elec       q    Type
REMARK                         _______ _______ _______ _____ _____    ______ ____
ROOT
ATOM      1  C   UNL     1       0.241   6.880   2.645  0.00  0.00    +0.047 C 
ATOM      2  C   UNL     1      -0.097   5.419   2.495  0.00  0.00    -0.011 A 
ATOM      3  C   UNL     1      -1.343   4.959   2.872  0.00  0.00    +0.046 A 
ATOM      4  C   UNL     1      -1.663   3.619   2.739  0.00  0.00    +0.020 A 
ATOM      5  C   UNL     1      -0.728   2.737   2.224  0.00  0.00    +0.006 A 
ATOM      6  C   UNL     1       0.515   3.192   1.847  0.00  0.00    -0.027 A 
ATOM      7  C   UNL     1       0.848   4.538   1.977  0.00  0.00    +0.040 A 
ATOM      8  N   UNL     1       2.154   4.756   1.532  0.00  0.00    -0.286 N 
ATOM      9  C   UNL     1       2.740   3.623   1.100  0.00  0.00    +0.212 C 
ATOM     10  O   UNL     1       3.865   3.512   0.661  0.00  0.00    -0.277 OA
ATOM     11  C   UNL     1       1.729   2.521   1.268  0.00  0.00    +0.053 C 
ATOM     12  C   UNL     1       1.409   1.847  -0.070  0.00  0.00    +0.089 C 
ATOM     13  C   UNL     1       2.265   0.551  -0.074  0.00  0.00    +0.074 C 
ATOM     14  C   UNL     1       3.028   0.568   1.263  0.00  0.00    -0.054 C 
ATOM     15  C   UNL     1       1.103   0.618   2.622  0.00  0.00    -0.076 C 
ATOM     16  C   UNL     1       1.702  -0.789   2.817  0.00  0.00    -0.020 C 
ATOM     17  C   UNL     1       2.971  -0.832   1.901  0.00  0.00    -0.016 C 
ATOM     18  C   UNL     1       1.230  -0.550  -0.049  0.00  0.00    +0.228 C 
ATOM     19  O   UNL     1       1.471  -1.738  -0.039  0.00  0.00    -0.275 OA
ATOM     20  N   UNL     1       0.005  -0.010  -0.040  0.00  0.00    -0.210 N 
ATOM     21  C   UNL     1      -0.011   1.328  -0.053  0.00  0.00    +0.229 C 
ATOM     22  O   UNL     1      -1.009   2.016  -0.055  0.00  0.00    -0.275 OA
ATOM     23 CL   UNL     1      -2.514   6.066   3.517  0.00  0.00    -0.083 Cl
ATOM     24  H   UNL     1       2.588   5.624   1.534  0.00  0.00    +0.155 HD
ATOM     25  N   UNL     1       2.227   1.426   2.106  0.00  0.00    +0.395 N 
ATOM     26  H   UNL     1       2.784   1.798   2.885  0.00  0.00    -0.079 HD
ENDROOT
BRANCH  20  27
ATOM     27  C   UNL     1      -1.165  -0.783  -0.019  0.00  0.00    +0.044 A 
ATOM     28  C   UNL     1      -1.989  -0.766   1.098  0.00  0.00    +0.027 A 
ATOM     29  C   UNL     1      -3.144  -1.522   1.115  0.00  0.00    +0.048 A 
ATOM     30  C   UNL     1      -3.475  -2.309   0.021  0.00  0.00    +0.132 A 
ATOM     31  C   UNL     1      -2.649  -2.331  -1.093  0.00  0.00    +0.048 A 
ATOM     32  C   UNL     1      -1.497  -1.571  -1.114  0.00  0.00    +0.027 A 
BRANCH  30  33
ATOM     33  O   UNL     1      -4.609  -3.058   0.042  0.00  0.00    -0.426 OA
BRANCH  33  34
ATOM     34  C   UNL     1      -4.465  -4.378   0.241  0.00  0.00    +0.309 C 
ATOM     35  O   UNL     1      -3.375  -4.835   0.491  0.00  0.00    -0.251 OA
ATOM     36  C   UNL     1      -5.662  -5.289   0.153  0.00  0.00    +0.136 C 
ENDBRANCH  33  34
ENDBRANCH  30  33
ENDBRANCH  20  27
TORSDOF 3
