REMARK  Name = ZINC24143607
REMARK  11 active torsions:
REMARK  status: ('A' for Active; 'I' for Inactive)
REMARK    1  A    between atoms: C_1  and  C_2
REMARK    2  A    between atoms: C_7  and  C_8
REMARK    3  A    between atoms: C_8  and  C_9
REMARK    4  A    between atoms: C_9  and  N_10
REMARK    5  A    between atoms: C_11  and  C_13
REMARK    6  A    between atoms: C_13  and  S_14
REMARK    7  A    between atoms: S_14  and  C_15
REMARK    8  A    between atoms: C_18  and  C_27
REMARK    9  A    between atoms: N_19  and  C_20
REMARK   10  A    between atoms: C_27  and  C_29
REMARK   11  A    between atoms: C_27  and  N_30
REMARK                            x       y       z     vdW  Elec       q    Type
REMARK                         _______ _______ _______ _____ _____    ______ ____
ROOT
ATOM      1  C   UNL     1      -0.606   2.074  -6.570  0.00  0.00    +0.197 A 
ATOM      2  N   UNL     1      -1.683   2.735  -6.213  0.00  0.00    -0.122 NA
ATOM      3  N   UNL     1      -2.390   3.012  -7.250  0.00  0.00    -0.135 NA
ATOM      4  C   UNL     1      -1.815   2.548  -8.323  0.00  0.00    +0.125 A 
ATOM      5  N   UNL     1      -0.653   1.938  -7.930  0.00  0.00    -0.275 N 
ENDROOT
BRANCH   5   6
ATOM      6  C   UNL     1       0.290   1.302  -8.752  0.00  0.00    +0.050 A 
ATOM      7  C   UNL     1       1.009   2.039  -9.684  0.00  0.00    +0.029 A 
ATOM      8  C   UNL     1       1.941   1.412 -10.487  0.00  0.00    +0.040 A 
ATOM      9  C   UNL     1       2.151   0.048 -10.372  0.00  0.00    +0.124 A 
ATOM     10  C   UNL     1       1.431  -0.689  -9.447  0.00  0.00    +0.040 A 
ATOM     11  C   UNL     1       0.502  -0.065  -8.638  0.00  0.00    +0.029 A 
ATOM     12  F   UNL     1       3.059  -0.564 -11.163  0.00  0.00    -0.205 F 
ENDBRANCH   5   6
BRANCH   4  13
ATOM     13  C   UNL     1      -2.328   2.667  -9.735  0.00  0.00    -0.002 C 
ATOM     14  C   UNL     1      -3.511   1.716  -9.928  0.00  0.00    -0.005 C 
BRANCH  13  15
ATOM     15  N   UNL     1      -2.765   4.048  -9.982  0.00  0.00    +0.386 N 
ATOM     16  C   UNL     1      -3.245   4.208 -11.361  0.00  0.00    -0.078 C 
ATOM     17  C   UNL     1      -3.825   5.613 -11.540  0.00  0.00    -0.019 C 
ATOM     18  C   UNL     1      -2.740   6.650 -11.233  0.00  0.00    -0.004 C 
ATOM     19  C   UNL     1      -2.223   6.430  -9.809  0.00  0.00    -0.019 C 
ATOM     20  C   UNL     1      -1.690   5.001  -9.680  0.00  0.00    -0.078 C 
ATOM     21  H   UNL     1      -3.605   4.265  -9.307  0.00  0.00    -0.081 HD
ENDBRANCH  13  15
ENDBRANCH   4  13
BRANCH   1  22
ATOM     22  S   UNL     1       0.663   1.481  -5.501  0.00  0.00    -0.076 S 
BRANCH  22  23
ATOM     23  C   UNL     1       0.020   2.048  -3.906  0.00  0.00    +0.173 C 
BRANCH  23  25
ATOM     24  N   UNL     1       0.695   1.959  -1.528  0.00  0.00    -0.314 N 
ATOM     25  C   UNL     1       0.970   1.642  -2.809  0.00  0.00    +0.223 C 
ATOM     26  O   UNL     1       1.981   1.029  -3.078  0.00  0.00    -0.275 OA
ATOM     27  H   UNL     1      -0.223   2.514  -1.284  0.00  0.00    +0.149 HD
BRANCH  24  28
ATOM     28  C   UNL     1       1.618   1.564  -0.461  0.00  0.00    +0.109 C 
BRANCH  28  29
ATOM     29  C   UNL     1       1.074   2.043   0.886  0.00  0.00    +0.054 C 
BRANCH  29  36
ATOM     30  C   UNL     1       3.346   3.711   1.522  0.00  0.00    +0.044 C 
ATOM     31  C   UNL     1       3.111   2.434   2.288  0.00  0.00    -0.047 A 
ATOM     32  C   UNL     1       3.982   2.061   3.295  0.00  0.00    +0.003 A 
ATOM     33  C   UNL     1       3.765   0.891   3.998  0.00  0.00    +0.000 A 
ATOM     34  C   UNL     1       2.678   0.093   3.693  0.00  0.00    +0.000 A 
ATOM     35  C   UNL     1       1.804   0.468   2.690  0.00  0.00    +0.004 A 
ATOM     36  C   UNL     1       2.024   1.636   1.984  0.00  0.00    -0.043 A 
ENDBRANCH  29  36
ENDBRANCH  28  29
ENDBRANCH  24  28
ENDBRANCH  23  25
ENDBRANCH  22  23
ENDBRANCH   1  22
TORSDOF 9
