REMARK  Name = ZINC13029351
REMARK  16 active torsions:
REMARK  status: ('A' for Active; 'I' for Inactive)
REMARK    1  A    between atoms: C_1  and  C_2
REMARK    2  A    between atoms: C_5  and  N_9
REMARK    3  A    between atoms: C_6  and  C_8
REMARK    4  A    between atoms: N_9  and  C_10
REMARK    5  A    between atoms: C_10  and  C_12
REMARK    6  A    between atoms: C_10  and  C_22
REMARK    7  A    between atoms: C_16  and  O_20
REMARK    8  A    between atoms: C_17  and  O_18
REMARK    9  A    between atoms: O_18  and  C_19
REMARK   10  A    between atoms: O_20  and  C_21
REMARK   11  A    between atoms: N_24  and  C_25
REMARK   12  A    between atoms: C_25  and  C_26
REMARK   13  A    between atoms: C_25  and  C_27
REMARK   14  A    between atoms: C_25  and  C_28
REMARK   15  A    between atoms: C_29  and  C_31
REMARK   16  A    between atoms: C_31  and  N_32
REMARK                            x       y       z     vdW  Elec       q    Type
REMARK                         _______ _______ _______ _____ _____    ______ ____
ROOT
ATOM      1  N   UNL     1       3.976  -0.313  -0.056  0.00  0.00    -0.253 N 
ATOM      2  C   UNL     1       4.501  -1.401   0.541  0.00  0.00    +0.242 C 
ATOM      3  O   UNL     1       3.901  -2.455   0.517  0.00  0.00    -0.273 OA
ENDROOT
BRANCH   1   8
ATOM      4  C   UNL     1       6.952   4.511  -0.285  0.00  0.00    +0.044 C 
ATOM      5  C   UNL     1       6.162   3.229  -0.225  0.00  0.00    -0.050 A 
ATOM      6  C   UNL     1       5.361   2.964   0.872  0.00  0.00    +0.005 A 
ATOM      7  C   UNL     1       4.631   1.793   0.928  0.00  0.00    +0.024 A 
ATOM      8  C   UNL     1       4.710   0.877  -0.113  0.00  0.00    +0.040 A 
ATOM      9  C   UNL     1       5.514   1.146  -1.212  0.00  0.00    -0.029 A 
ATOM     10  C   UNL     1       6.237   2.322  -1.265  0.00  0.00    +0.008 A 
ATOM     11  C   UNL     1       5.598   0.157  -2.346  0.00  0.00    +0.045 C 
ENDBRANCH   1   8
BRANCH   1  12
ATOM     12  C   UNL     1       2.636  -0.376  -0.646  0.00  0.00    +0.201 C 
BRANCH  12  13
ATOM     13  C   UNL     1       1.614  -0.553   0.447  0.00  0.00    +0.027 A 
ATOM     14  C   UNL     1       2.001  -1.034   1.685  0.00  0.00    +0.010 A 
ATOM     15  C   UNL     1       1.065  -1.204   2.687  0.00  0.00    +0.004 A 
ATOM     16  C   UNL     1      -0.262  -0.888   2.459  0.00  0.00    +0.049 A 
ATOM     17  C   UNL     1      -0.656  -0.400   1.224  0.00  0.00    +0.162 A 
ATOM     18  C   UNL     1       0.287  -0.230   0.214  0.00  0.00    +0.167 A 
BRANCH  18  19
ATOM     19  O   UNL     1      -0.094   0.249  -1.001  0.00  0.00    -0.491 OA
ATOM     20  C   UNL     1      -0.062   1.666  -1.179  0.00  0.00    +0.277 C 
ENDBRANCH  18  19
BRANCH  17  21
ATOM     21  O   UNL     1      -1.960  -0.088   0.998  0.00  0.00    -0.491 OA
ATOM     22  C   UNL     1      -2.872  -0.289   2.080  0.00  0.00    +0.277 C 
ENDBRANCH  17  21
ENDBRANCH  12  13
BRANCH  12  23
ATOM     23  C   UNL     1       2.561  -1.542  -1.598  0.00  0.00    +0.239 C 
ATOM     24  O   UNL     1       3.530  -2.250  -1.767  0.00  0.00    -0.273 OA
ATOM     25  N   UNL     1       1.416  -1.797  -2.261  0.00  0.00    -0.309 N 
ATOM     26  H   UNL     1       0.640  -1.231  -2.126  0.00  0.00    +0.149 HD
BRANCH  25  27
ATOM     27  C   UNL     1       1.343  -2.931  -3.187  0.00  0.00    +0.026 C 
ATOM     28  C   UNL     1       1.627  -4.228  -2.428  0.00  0.00    +0.031 C 
ATOM     29  C   UNL     1      -0.056  -2.997  -3.803  0.00  0.00    +0.031 C 
ATOM     30  C   UNL     1       2.381  -2.751  -4.296  0.00  0.00    +0.031 C 
ENDBRANCH  25  27
ENDBRANCH  12  23
ENDBRANCH   1  12
BRANCH   2  31
ATOM     31  C   UNL     1       5.833  -1.308   1.240  0.00  0.00    +0.242 C 
BRANCH  31  32
ATOM     32  N   UNL     1       6.181  -2.615   1.803  0.00  0.00    -0.235 N 
ATOM     33  C   UNL     1       6.887  -3.617   1.181  0.00  0.00    +0.090 A 
ATOM     34  C   UNL     1       7.470  -3.753  -0.074  0.00  0.00    +0.029 A 
ATOM     35  C   UNL     1       8.122  -4.910  -0.399  0.00  0.00    +0.002 A 
ATOM     36  C   UNL     1       8.207  -5.953   0.514  0.00  0.00    +0.002 A 
ATOM     37  C   UNL     1       7.643  -5.845   1.752  0.00  0.00    +0.032 A 
ATOM     38  C   UNL     1       6.970  -4.669   2.110  0.00  0.00    +0.113 A 
ATOM     39  N   UNL     1       6.329  -4.278   3.229  0.00  0.00    -0.129 NA
ATOM     40  N   UNL     1       5.865  -3.087   3.086  0.00  0.00    -0.064 NA
ENDBRANCH  31  32
ENDBRANCH   2  31
TORSDOF 9
