REMARK  Name = ZINC09347534
REMARK  6 active torsions:
REMARK  status: ('A' for Active; 'I' for Inactive)
REMARK    1  A    between atoms: C_1  and  C_2
REMARK    2  A    between atoms: C_2  and  O_3
REMARK    3  A    between atoms: O_3  and  C_4
REMARK    4  A    between atoms: C_12  and  N_17
REMARK    5  A    between atoms: C_13  and  C_14
REMARK    6  A    between atoms: C_18  and  C_20
REMARK                            x       y       z     vdW  Elec       q    Type
REMARK                         _______ _______ _______ _____ _____    ______ ____
ROOT
ATOM      1  C   UNL     1      -1.052  -2.887  -4.409  0.00  0.00    +0.403 C 
ATOM      2  O   UNL     1      -1.246  -2.273  -5.439  0.00  0.00    -0.226 OA
ATOM      3  N   UNL     1      -0.223  -2.387  -3.472  0.00  0.00    -0.262 N 
ATOM      4  C   UNL     1       0.461  -1.099  -3.667  0.00  0.00    +0.116 C 
ATOM      5  C   UNL     1      -0.029  -0.096  -2.621  0.00  0.00    +0.056 C 
ATOM      6  C   UNL     1      -0.005  -0.751  -1.246  0.00  0.00    -0.020 A 
ATOM      7  C   UNL     1       0.023  -2.094  -1.108  0.00  0.00    +0.013 A 
ATOM      8  S   UNL     1       0.042  -2.374   0.639  0.00  0.00    -0.076 S 
ATOM      9  C   UNL     1       0.023  -0.730   1.185  0.00  0.00    +0.085 A 
ATOM     10  C   UNL     1       0.002  -0.004   0.002  0.00  0.00    +0.068 A 
ATOM     11  C   UNL     1       0.033  -3.110  -2.210  0.00  0.00    +0.153 C 
ENDROOT
BRANCH  10  12
ATOM     12  C   UNL     1      -0.018   1.462   0.010  0.00  0.00    +0.244 C 
ATOM     13  O   UNL     1       1.028   2.084   0.003  0.00  0.00    -0.270 OA
ATOM     14  N   UNL     1      -1.194   2.120   0.019  0.00  0.00    -0.325 N 
ATOM     15  H   UNL     1      -2.027   1.623   0.021  0.00  0.00    +0.145 HD
ATOM     16  H   UNL     1      -1.207   3.090   0.025  0.00  0.00    +0.145 HD
ENDBRANCH  10  12
BRANCH   9  17
ATOM     17  N   UNL     1       0.027  -0.254   2.486  0.00  0.00    -0.275 N 
ATOM     18  C   UNL     1       0.048  -1.120   3.520  0.00  0.00    +0.251 C 
ATOM     19  O   UNL     1       0.064  -2.318   3.309  0.00  0.00    -0.270 OA
ATOM     20  H   UNL     1       0.014   0.701   2.654  0.00  0.00    +0.156 HD
BRANCH  18  21
ATOM     21  C   UNL     1       0.052  -0.616   4.900  0.00  0.00    +0.064 A 
ATOM     22  C   UNL     1       0.039   0.798   5.187  0.00  0.00    +0.042 A 
ATOM     23  C   UNL     1       0.040   1.161   6.485  0.00  0.00    +0.080 A 
ATOM     24  S   UNL     1       0.070  -0.401   7.341  0.00  0.00    -0.064 S 
ATOM     25  C   UNL     1       0.074  -1.474   5.983  0.00  0.00    +0.091 A 
ATOM     26 CL   UNL     1       0.099  -3.210   5.981  0.00  0.00    -0.075 Cl
ATOM     27 CL   UNL     1       0.022   2.760   7.159  0.00  0.00    -0.076 Cl
ENDBRANCH  18  21
ENDBRANCH   9  17
BRANCH   1  28
ATOM     28  O   UNL     1      -1.665  -4.068  -4.204  0.00  0.00    -0.451 OA
BRANCH  28  30
ATOM     29  C   UNL     1      -3.145  -5.892  -4.847  0.00  0.00    +0.048 C 
ATOM     30  C   UNL     1      -2.544  -4.546  -5.256  0.00  0.00    +0.230 C 
ENDBRANCH  28  30
ENDBRANCH   1  28
TORSDOF 5
