REMARK  Name = ZINC03291658
REMARK  6 active torsions:
REMARK  status: ('A' for Active; 'I' for Inactive)
REMARK    1  A    between atoms: C_1  and  C_2
REMARK    2  A    between atoms: C_2  and  N_3
REMARK    3  A    between atoms: C_14  and  N_16
REMARK    4  A    between atoms: C_17  and  C_19
REMARK    5  A    between atoms: C_19  and  S_20
REMARK    6  A    between atoms: S_20  and  C_21
REMARK                            x       y       z     vdW  Elec       q    Type
REMARK                         _______ _______ _______ _____ _____    ______ ____
ROOT
ATOM      1  N   UNL     1       2.164   4.096   0.031  0.00  0.00    -0.340 N 
ATOM      2  C   UNL     1       1.145   3.160   0.044  0.00  0.00    +0.050 A 
ATOM      3  C   UNL     1       1.152   1.769   0.046  0.00  0.00    +0.026 A 
ATOM      4  C   UNL     1      -0.038   1.073   0.060  0.00  0.00    +0.002 A 
ATOM      5  C   UNL     1      -1.249   1.748   0.067  0.00  0.00    +0.001 A 
ATOM      6  C   UNL     1      -1.276   3.126   0.071  0.00  0.00    +0.010 A 
ATOM      7  C   UNL     1      -0.081   3.841   0.057  0.00  0.00    +0.008 A 
ATOM      8  C   UNL     1       0.239   5.281   0.051  0.00  0.00    +0.009 A 
ATOM      9  C   UNL     1       1.638   5.378   0.035  0.00  0.00    +0.050 A 
ATOM     10  C   UNL     1       2.236   6.634   0.025  0.00  0.00    +0.028 A 
ATOM     11  C   UNL     1       1.458   7.771   0.032  0.00  0.00    +0.025 A 
ATOM     12  C   UNL     1       0.069   7.676   0.049  0.00  0.00    +0.034 A 
ATOM     13  C   UNL     1      -0.541   6.434   0.057  0.00  0.00    +0.034 A 
ENDROOT
BRANCH  12  14
ATOM     14  N   UNL     1      -0.711   8.840   0.056  0.00  0.00    -0.285 N 
ATOM     15  C   UNL     1      -1.888   8.867  -0.602  0.00  0.00    +0.228 C 
ATOM     16  O   UNL     1      -2.310   7.859  -1.129  0.00  0.00    -0.275 OA
ATOM     17  H   UNL     1      -0.405   9.627   0.534  0.00  0.00    +0.155 HD
BRANCH  15  18
ATOM     18  C   UNL     1      -2.677  10.148  -0.681  0.00  0.00    +0.175 C 
BRANCH  18  19
ATOM     19  S   UNL     1      -4.197   9.862  -1.623  0.00  0.00    -0.058 S 
BRANCH  19  20
ATOM     20  C   UNL     1      -4.903  11.475  -1.560  0.00  0.00    +0.258 A 
ATOM     21  N   UNL     1      -4.368  12.506  -0.956  0.00  0.00    -0.203 NA
ATOM     22  C   UNL     1      -5.188  13.580  -1.117  0.00  0.00    +0.110 A 
ATOM     23  C   UNL     1      -5.126  14.911  -0.701  0.00  0.00    +0.031 A 
ATOM     24  C   UNL     1      -6.146  15.777  -1.028  0.00  0.00    +0.002 A 
ATOM     25  C   UNL     1      -7.231  15.335  -1.769  0.00  0.00    +0.004 A 
ATOM     26  C   UNL     1      -7.305  14.022  -2.187  0.00  0.00    +0.048 A 
ATOM     27  C   UNL     1      -6.288  13.137  -1.867  0.00  0.00    +0.156 A 
ATOM     28  O   UNL     1      -6.074  11.826  -2.122  0.00  0.00    -0.431 OA
ENDBRANCH  19  20
ENDBRANCH  18  19
ENDBRANCH  15  18
ENDBRANCH  12  14
BRANCH   1  30
ATOM     29  C   UNL     1       4.075   3.665  -1.433  0.00  0.00    +0.027 C 
ATOM     30  C   UNL     1       3.594   3.777   0.015  0.00  0.00    +0.119 C 
ENDBRANCH   1  30
TORSDOF 5
