REMARK  Name = ZINC16570434
REMARK  11 active torsions:
REMARK  status: ('A' for Active; 'I' for Inactive)
REMARK    1  A    between atoms: C_1  and  C_2
REMARK    2  A    between atoms: C_2  and  N_3
REMARK    3  A    between atoms: N_3  and  C_4
REMARK    4  A    between atoms: C_4  and  C_5
REMARK    5  A    between atoms: C_10  and  S_12
REMARK    6  A    between atoms: S_12  and  C_13
REMARK    7  A    between atoms: C_13  and  C_14
REMARK    8  A    between atoms: C_17  and  C_20
REMARK    9  A    between atoms: N_25  and  C_28
REMARK   10  A    between atoms: C_31  and  O_34
REMARK   11  A    between atoms: O_34  and  C_35
REMARK                            x       y       z     vdW  Elec       q    Type
REMARK                         _______ _______ _______ _____ _____    ______ ____
ROOT
ATOM      1  C   UNL     1      -0.570   8.521  -4.730  0.00  0.00    -0.037 A 
ATOM      2  C   UNL     1       0.696   9.059  -4.579  0.00  0.00    +0.005 A 
ATOM      3  C   UNL     1       1.521   8.616  -3.565  0.00  0.00    +0.013 A 
ATOM      4  C   UNL     1       1.076   7.622  -2.692  0.00  0.00    +0.037 A 
ATOM      5  C   UNL     1      -0.200   7.080  -2.853  0.00  0.00    +0.013 A 
ATOM      6  C   UNL     1      -1.017   7.536  -3.867  0.00  0.00    +0.005 A 
ENDROOT
BRANCH   4   7
ATOM      7  C   UNL     1       1.954   7.142  -1.604  0.00  0.00    +0.247 C 
ATOM      8  O   UNL     1       2.504   7.940  -0.870  0.00  0.00    -0.270 OA
ATOM      9  N   UNL     1       2.146   5.820  -1.427  0.00  0.00    -0.295 N 
ATOM     10  C   UNL     1       3.080   5.323  -0.405  0.00  0.00    +0.127 C 
ATOM     11  C   UNL     1       4.035   4.322  -1.063  0.00  0.00    +0.124 C 
ATOM     12  N   UNL     1       3.254   3.283  -1.748  0.00  0.00    -0.327 N 
ATOM     13  C   UNL     1       2.447   3.853  -2.835  0.00  0.00    +0.124 C 
ATOM     14  C   UNL     1       1.427   4.836  -2.250  0.00  0.00    +0.127 C 
BRANCH  12  15
ATOM     15  C   UNL     1       4.084   2.262  -2.222  0.00  0.00    +0.030 A 
ATOM     16  C   UNL     1       3.538   1.181  -2.902  0.00  0.00    +0.027 A 
ATOM     17  C   UNL     1       4.359   0.173  -3.370  0.00  0.00    +0.047 A 
ATOM     18  C   UNL     1       5.728   0.241  -3.162  0.00  0.00    +0.120 A 
ATOM     19  C   UNL     1       6.275   1.320  -2.483  0.00  0.00    +0.047 A 
ATOM     20  C   UNL     1       5.455   2.328  -2.013  0.00  0.00    +0.027 A 
BRANCH  18  21
ATOM     21  O   UNL     1       6.535  -0.751  -3.623  0.00  0.00    -0.495 OA
ATOM     22  C   UNL     1       7.936  -0.617  -3.374  0.00  0.00    +0.277 C 
ENDBRANCH  18  21
ENDBRANCH  12  15
ENDBRANCH   4   7
BRANCH   1  23
ATOM     23  C   UNL     1      -1.466   9.010  -5.838  0.00  0.00    +0.112 C 
BRANCH  23  24
ATOM     24  S   UNL     1      -1.192   8.010  -7.322  0.00  0.00    -0.081 S 
BRANCH  24  30
ATOM     25  N   UNL     1      -3.402   8.398 -11.813  0.00  0.00    -0.316 N 
ATOM     26  C   UNL     1      -3.292   8.878 -10.518  0.00  0.00    +0.127 A 
ATOM     27  C   UNL     1      -4.073   9.954 -10.093  0.00  0.00    +0.083 A 
ATOM     28  C   UNL     1      -3.930  10.400  -8.792  0.00  0.00    +0.135 A 
ATOM     29  N   UNL     1      -3.064   9.794  -7.991  0.00  0.00    -0.210 NA
ATOM     30  C   UNL     1      -2.332   8.778  -8.424  0.00  0.00    +0.192 A 
ATOM     31  N   UNL     1      -2.440   8.321  -9.663  0.00  0.00    -0.207 NA
ATOM     32 CL   UNL     1      -4.877  11.735  -8.212  0.00  0.00    -0.062 Cl
BRANCH  25  34
ATOM     33  C   UNL     1      -3.448  10.153 -13.516  0.00  0.00    +0.024 C 
ATOM     34  C   UNL     1      -4.261   9.087 -12.779  0.00  0.00    +0.103 C 
ENDBRANCH  25  34
BRANCH  25  35
ATOM     35  C   UNL     1      -2.659   7.202 -12.217  0.00  0.00    +0.103 C 
ATOM     36  C   UNL     1      -3.512   5.959 -11.956  0.00  0.00    +0.024 C 
ENDBRANCH  25  35
ENDBRANCH  24  30
ENDBRANCH  23  24
ENDBRANCH   1  23
TORSDOF 8
