REMARK  Name = ZINC35760727
REMARK  15 active torsions:
REMARK  status: ('A' for Active; 'I' for Inactive)
REMARK    1  A    between atoms: C_1  and  N_2
REMARK    2  A    between atoms: N_2  and  C_3
REMARK    3  A    between atoms: N_2  and  C_10
REMARK    4  A    between atoms: C_3  and  C_4
REMARK    5  A    between atoms: C_11  and  C_21
REMARK    6  A    between atoms: C_12  and  C_15
REMARK    7  A    between atoms: C_21  and  N_22
REMARK    8  A    between atoms: N_22  and  C_23
REMARK    9  A    between atoms: N_22  and  C_27
REMARK   10  A    between atoms: C_23  and  C_24
REMARK   11  A    between atoms: C_27  and  C_28
REMARK   12  A    between atoms: C_28  and  C_30
REMARK   13  A    between atoms: C_28  and  O_38
REMARK   14  A    between atoms: C_30  and  O_31
REMARK   15  A    between atoms: O_31  and  C_32
REMARK                            x       y       z     vdW  Elec       q    Type
REMARK                         _______ _______ _______ _____ _____    ______ ____
ROOT
ATOM      1  C   UNL     1       0.907  -1.916  -1.732  0.00  0.00    +0.222 A 
ATOM      2  C   UNL     1       0.536  -1.034  -2.693  0.00  0.00    +0.025 A 
ATOM      3  C   UNL     1       0.045  -1.769  -3.792  0.00  0.00    +0.117 A 
ATOM      4  N   UNL     1       0.121  -3.045  -3.492  0.00  0.00    -0.076 NA
ATOM      5  O   UNL     1       0.671  -3.156  -2.192  0.00  0.00    -0.339 OA
ENDROOT
BRANCH   3   6
ATOM      6  C   UNL     1      -0.469  -1.200  -5.064  0.00  0.00    +0.004 A 
ATOM      7  C   UNL     1      -0.104  -1.769  -6.282  0.00  0.00    +0.010 A 
ATOM      8  C   UNL     1      -0.585  -1.236  -7.461  0.00  0.00    +0.001 A 
ATOM      9  C   UNL     1      -1.428  -0.140  -7.434  0.00  0.00    +0.000 A 
ATOM     10  C   UNL     1      -1.794   0.429  -6.228  0.00  0.00    +0.001 A 
ATOM     11  C   UNL     1      -1.323  -0.099  -5.042  0.00  0.00    +0.010 A 
ENDBRANCH   3   6
BRANCH   1  13
ATOM     12  C   UNL     1       0.562  -1.457   0.667  0.00  0.00    +0.132 C 
ATOM     13  N   UNL     1       1.441  -1.596  -0.497  0.00  0.00    -0.298 N 
BRANCH  13  14
ATOM     14  C   UNL     1       2.885  -1.396  -0.352  0.00  0.00    +0.142 C 
BRANCH  14  15
ATOM     15  C   UNL     1       3.543  -2.710  -0.015  0.00  0.00    -0.030 A 
ATOM     16  C   UNL     1       3.691  -3.089   1.306  0.00  0.00    +0.005 A 
ATOM     17  C   UNL     1       4.294  -4.293   1.616  0.00  0.00    +0.000 A 
ATOM     18  C   UNL     1       4.748  -5.119   0.605  0.00  0.00    +0.000 A 
ATOM     19  C   UNL     1       4.599  -4.740  -0.716  0.00  0.00    +0.000 A 
ATOM     20  C   UNL     1       3.992  -3.538  -1.026  0.00  0.00    +0.005 A 
ENDBRANCH  14  15
ENDBRANCH  13  14
ENDBRANCH   1  13
BRANCH   2  21
ATOM     21  C   UNL     1       0.633   0.468  -2.603  0.00  0.00    -0.035 C 
BRANCH  21  22
ATOM     22  N   UNL     1       1.996   0.892  -2.949  0.00  0.00    +0.384 N 
ATOM     23  H   UNL     1       2.652   0.470  -2.309  0.00  0.00    -0.081 HD
BRANCH  22  24
ATOM     24  C   UNL     1       2.308   0.469  -4.321  0.00  0.00    -0.075 C 
BRANCH  24  25
ATOM     25  C   UNL     1       3.753   0.844  -4.654  0.00  0.00    -0.028 C 
ATOM     26  C   UNL     1       3.978   1.858  -5.778  0.00  0.00    +0.002 C 
ATOM     27  C   UNL     1       4.310   0.381  -6.002  0.00  0.00    +0.002 C 
ENDBRANCH  24  25
ENDBRANCH  22  24
BRANCH  22  28
ATOM     28  C   UNL     1       2.092   2.355  -2.854  0.00  0.00    -0.043 C 
BRANCH  28  29
ATOM     29  C   UNL     1       1.971   2.780  -1.389  0.00  0.00    +0.135 C 
BRANCH  29  30
ATOM     30  O   UNL     1       0.639   2.536  -0.931  0.00  0.00    -0.390 OA
ATOM     31  H   UNL     1      -0.041   3.015  -1.425  0.00  0.00    +0.210 HD
ENDBRANCH  29  30
BRANCH  29  32
ATOM     32  C   UNL     1       2.288   4.271  -1.263  0.00  0.00    +0.258 C 
BRANCH  32  33
ATOM     33  O   UNL     1       2.289   4.643   0.117  0.00  0.00    -0.489 OA
BRANCH  33  34
ATOM     34  C   UNL     1       2.556   5.944   0.405  0.00  0.00    +0.121 A 
ATOM     35  C   UNL     1       2.806   6.846  -0.619  0.00  0.00    +0.045 A 
ATOM     36  C   UNL     1       3.076   8.168  -0.323  0.00  0.00    +0.004 A 
ATOM     37  C   UNL     1       3.098   8.592   0.993  0.00  0.00    +0.000 A 
ATOM     38  C   UNL     1       2.849   7.696   2.015  0.00  0.00    +0.004 A 
ATOM     39  C   UNL     1       2.572   6.374   1.724  0.00  0.00    +0.045 A 
ENDBRANCH  33  34
ENDBRANCH  32  33
ENDBRANCH  29  32
ENDBRANCH  28  29
ENDBRANCH  22  28
ENDBRANCH  21  22
ENDBRANCH   2  21
TORSDOF 14
