REMARK  Name = ZINC36548715
REMARK  13 active torsions:
REMARK  status: ('A' for Active; 'I' for Inactive)
REMARK    1  A    between atoms: C_1  and  C_2
REMARK    2  A    between atoms: C_2  and  C_3
REMARK    3  A    between atoms: C_3  and  C_4
REMARK    4  A    between atoms: C_4  and  N_5
REMARK    5  A    between atoms: C_6  and  C_8
REMARK    6  A    between atoms: C_8  and  C_10
REMARK    7  A    between atoms: C_8  and  N_19
REMARK    8  A    between atoms: C_13  and  N_16
REMARK    9  A    between atoms: N_16  and  C_17
REMARK   10  A    between atoms: N_16  and  C_18
REMARK   11  A    between atoms: N_19  and  C_20
REMARK   12  A    between atoms: C_27  and  C_29
REMARK   13  A    between atoms: C_33  and  N_35
REMARK                            x       y       z     vdW  Elec       q    Type
REMARK                         _______ _______ _______ _____ _____    ______ ____
ROOT
ATOM      1  N   UNL     1      -4.499  -6.176   0.388  0.00  0.00    -0.250 N 
ATOM      2  C   UNL     1      -4.444  -6.483   1.700  0.00  0.00    +0.252 C 
ATOM      3  O   UNL     1      -3.926  -5.711   2.483  0.00  0.00    -0.270 OA
ENDROOT
BRANCH   1   4
ATOM      4  C   UNL     1      -5.014  -7.103  -0.525  0.00  0.00    +0.056 A 
ATOM      5  C   UNL     1      -6.246  -6.877  -1.125  0.00  0.00    +0.025 A 
ATOM      6  C   UNL     1      -6.751  -7.793  -2.027  0.00  0.00    +0.002 A 
ATOM      7  C   UNL     1      -6.032  -8.934  -2.333  0.00  0.00    +0.002 A 
ATOM      8  C   UNL     1      -4.805  -9.163  -1.738  0.00  0.00    +0.022 A 
ATOM      9  C   UNL     1      -4.291  -8.247  -0.839  0.00  0.00    +0.062 A 
ATOM     10 CL   UNL     1      -2.747  -8.530  -0.097  0.00  0.00    -0.082 Cl
ENDBRANCH   1   4
BRANCH   2  11
ATOM     11  C   UNL     1      -5.015  -7.757   2.186  0.00  0.00    +0.039 A 
ATOM     12  C   UNL     1      -6.123  -8.318   1.548  0.00  0.00    +0.013 A 
ATOM     13  C   UNL     1      -6.650  -9.507   2.006  0.00  0.00    +0.003 A 
ATOM     14  C   UNL     1      -6.084 -10.143   3.096  0.00  0.00    +0.033 A 
ATOM     15  C   UNL     1      -4.986  -9.593   3.733  0.00  0.00    +0.127 A 
ATOM     16  C   UNL     1      -4.444  -8.407   3.281  0.00  0.00    +0.045 A 
BRANCH  15  17
ATOM     17  N   UNL     1      -4.387 -10.281   4.899  0.00  0.00    +0.056 N 
ATOM     18  O   UNL     1      -4.857 -11.322   5.294  0.00  0.00    -0.126 OA
ATOM     19  O   UNL     1      -3.428  -9.801   5.457  0.00  0.00    -0.126 OA
ENDBRANCH  15  17
ENDBRANCH   2  11
BRANCH   1  20
ATOM     20  C   UNL     1      -4.021  -4.873  -0.080  0.00  0.00    +0.197 C 
BRANCH  20  21
ATOM     21  C   UNL     1      -4.358  -4.710  -1.540  0.00  0.00    -0.018 A 
ATOM     22  C   UNL     1      -5.054  -3.593  -1.966  0.00  0.00    +0.008 A 
ATOM     23  C   UNL     1      -5.365  -3.440  -3.303  0.00  0.00    +0.023 A 
ATOM     24  C   UNL     1      -4.978  -4.409  -4.220  0.00  0.00    +0.029 A 
ATOM     25  C   UNL     1      -4.278  -5.529  -3.788  0.00  0.00    +0.023 A 
ATOM     26  C   UNL     1      -3.966  -5.673  -2.451  0.00  0.00    +0.008 A 
BRANCH  24  27
ATOM     27  N   UNL     1      -5.290  -4.257  -5.573  0.00  0.00    -0.336 N 
ATOM     28  C   UNL     1      -6.028  -3.076  -6.026  0.00  0.00    +0.129 C 
ATOM     29  C   UNL     1      -4.881  -5.280  -6.538  0.00  0.00    +0.129 C 
ENDBRANCH  24  27
ENDBRANCH  20  21
BRANCH  20  31
ATOM     30  N   UNL     1      -1.863  -3.677  -0.262  0.00  0.00    -0.313 N 
ATOM     31  C   UNL     1      -2.527  -4.792   0.102  0.00  0.00    +0.238 C 
ATOM     32  O   UNL     1      -1.922  -5.730   0.577  0.00  0.00    -0.273 OA
ATOM     33  H   UNL     1      -2.347  -2.927  -0.642  0.00  0.00    +0.149 HD
BRANCH  30  34
ATOM     34  C   UNL     1      -0.411  -3.598  -0.085  0.00  0.00    +0.104 C 
BRANCH  34  35
ATOM     35  C   UNL     1       0.089  -2.237  -0.574  0.00  0.00    +0.018 C 
BRANCH  35  37
ATOM     36  C   UNL     1       2.105  -0.793  -0.878  0.00  0.00    +0.004 C 
ATOM     37  C   UNL     1       1.605  -2.154  -0.389  0.00  0.00    -0.002 C 
ENDBRANCH  35  37
ENDBRANCH  34  35
ENDBRANCH  30  34
ENDBRANCH  20  31
ENDBRANCH   1  20
TORSDOF 10
