REMARK  Name = ZINC36652696
REMARK  16 active torsions:
REMARK  status: ('A' for Active; 'I' for Inactive)
REMARK    1  A    between atoms: C_1  and  C_2
REMARK    2  A    between atoms: C_2  and  N_3
REMARK    3  A    between atoms: N_3  and  C_4
REMARK    4  A    between atoms: N_3  and  C_6
REMARK    5  A    between atoms: C_4  and  C_5
REMARK    6  A    between atoms: C_6  and  C_7
REMARK    7  A    between atoms: C_7  and  N_8
REMARK    8  A    between atoms: C_14  and  O_18
REMARK    9  A    between atoms: O_18  and  C_19
REMARK   10  A    between atoms: C_19  and  C_20
REMARK   11  A    between atoms: C_21  and  C_23
REMARK   12  A    between atoms: C_23  and  C_24
REMARK   13  A    between atoms: C_27  and  S_30
REMARK   14  A    between atoms: S_30  and  C_33
REMARK   15  A    between atoms: C_33  and  C_34
REMARK   16  A    between atoms: C_33  and  C_35
REMARK                            x       y       z     vdW  Elec       q    Type
REMARK                         _______ _______ _______ _____ _____    ______ ____
ROOT
ATOM      1  N   UNL     1       1.720  -4.037   2.450  0.00  0.00    -0.252 N 
ATOM      2  C   UNL     1       2.911  -4.552   1.965  0.00  0.00    +0.168 A 
ATOM      3  N   UNL     1       3.976  -3.910   1.546  0.00  0.00    -0.224 NA
ATOM      4  C   UNL     1       5.079  -4.548   1.096  0.00  0.00    +0.081 A 
ATOM      5  C   UNL     1       6.282  -3.978   0.620  0.00  0.00    +0.032 A 
ATOM      6  C   UNL     1       7.315  -4.771   0.195  0.00  0.00    +0.048 A 
ATOM      7  C   UNL     1       7.219  -6.160   0.215  0.00  0.00    +0.122 A 
ATOM      8  C   UNL     1       6.052  -6.751   0.676  0.00  0.00    +0.063 A 
ATOM      9  C   UNL     1       5.015  -5.959   1.103  0.00  0.00    +0.044 A 
ATOM     10  S   UNL     1       3.391  -6.261   1.758  0.00  0.00    -0.052 S 
ATOM     11  C   UNL     1       0.735  -4.870   2.841  0.00  0.00    +0.225 C 
ATOM     12  O   UNL     1       0.891  -6.070   2.769  0.00  0.00    -0.275 OA
ENDROOT
BRANCH   1  13
ATOM     13  C   UNL     1       1.530  -2.587   2.538  0.00  0.00    +0.097 C 
BRANCH  13  14
ATOM     14  C   UNL     1       0.924  -2.072   1.231  0.00  0.00    -0.059 C 
BRANCH  14  15
ATOM     15  N   UNL     1       0.620  -0.641   1.363  0.00  0.00    +0.380 N 
ATOM     16  H   UNL     1       0.029  -0.495   2.167  0.00  0.00    -0.082 HD
BRANCH  15  18
ATOM     17  C   UNL     1       1.548   1.585   1.794  0.00  0.00    -0.017 C 
ATOM     18  C   UNL     1       1.871   0.112   1.532  0.00  0.00    -0.082 C 
ENDBRANCH  15  18
BRANCH  15  19
ATOM     19  C   UNL     1      -0.072  -0.174   0.154  0.00  0.00    -0.082 C 
ATOM     20  C   UNL     1      -1.445  -0.843   0.063  0.00  0.00    -0.017 C 
ENDBRANCH  15  19
ENDBRANCH  14  15
ENDBRANCH  13  14
ENDBRANCH   1  13
BRANCH   7  21
ATOM     21  O   UNL     1       8.257  -6.927  -0.213  0.00  0.00    -0.492 OA
BRANCH  21  22
ATOM     22  C   UNL     1       9.423  -6.242  -0.673  0.00  0.00    +0.225 C 
ATOM     23  C   UNL     1      10.475  -7.264  -1.111  0.00  0.00    +0.048 C 
ENDBRANCH  21  22
ENDBRANCH   7  21
BRANCH  11  24
ATOM     24  C   UNL     1      -0.561  -4.310   3.369  0.00  0.00    +0.131 C 
BRANCH  24  25
ATOM     25  C   UNL     1      -1.486  -5.442   3.734  0.00  0.00    -0.038 A 
ATOM     26  C   UNL     1      -2.355  -5.956   2.789  0.00  0.00    +0.006 A 
ATOM     27  C   UNL     1      -3.204  -6.995   3.124  0.00  0.00    +0.027 A 
ATOM     28  C   UNL     1      -3.183  -7.519   4.403  0.00  0.00    +0.088 A 
ATOM     29  C   UNL     1      -2.314  -7.005   5.347  0.00  0.00    +0.027 A 
ATOM     30  C   UNL     1      -1.462  -5.970   5.011  0.00  0.00    +0.006 A 
BRANCH  28  31
ATOM     31  S   UNL     1      -4.266  -8.842   4.830  0.00  0.00    -0.001 S 
ATOM     32  O   UNL     1      -4.450  -8.722   6.234  0.00  0.00    -0.169 OA
ATOM     33  O   UNL     1      -5.367  -8.710   3.941  0.00  0.00    -0.169 OA
BRANCH  31  34
ATOM     34  C   UNL     1      -3.333 -10.350   4.448  0.00  0.00    +0.130 C 
ATOM     35  C   UNL     1      -2.049 -10.379   5.280  0.00  0.00    +0.032 C 
ATOM     36  C   UNL     1      -4.185 -11.576   4.783  0.00  0.00    +0.032 C 
ENDBRANCH  31  34
ENDBRANCH  28  31
ENDBRANCH  24  25
ENDBRANCH  11  24
TORSDOF 11
