REMARK  Name = ZINC50252784
REMARK  5 active torsions:
REMARK  status: ('A' for Active; 'I' for Inactive)
REMARK    1  A    between atoms: C_1  and  N_2
REMARK    2  A    between atoms: C_4  and  S_7
REMARK    3  A    between atoms: S_7  and  N_10
REMARK    4  A    between atoms: N_10  and  C_11
REMARK    5  A    between atoms: C_14  and  N_18
REMARK                            x       y       z     vdW  Elec       q    Type
REMARK                         _______ _______ _______ _____ _____    ______ ____
ROOT
ATOM      1  N   UNL     1       1.627  -3.880  -2.007  0.00  0.00    -0.097 NA
ENDROOT
BRANCH   1   2
ATOM      2  C   UNL     1       1.948  -4.981  -2.811  0.00  0.00    +0.088 A 
ATOM      3  C   UNL     1       0.936  -5.754  -3.365  0.00  0.00    +0.029 A 
ATOM      4  C   UNL     1       1.253  -6.840  -4.157  0.00  0.00    +0.025 A 
ATOM      5  C   UNL     1       2.582  -7.158  -4.401  0.00  0.00    +0.026 A 
ATOM      6  C   UNL     1       3.594  -6.385  -3.847  0.00  0.00    +0.040 A 
ATOM      7  C   UNL     1       3.278  -5.295  -3.059  0.00  0.00    +0.044 A 
ATOM      8 BR   UNL     1       4.655  -4.237  -2.312  0.00  0.00    -0.048 Br
BRANCH   5   9
ATOM      9  N   UNL     1       2.903  -8.259  -5.204  0.00  0.00    -0.358 N 
ATOM     10  H   UNL     1       2.196  -8.800  -5.591  0.00  0.00    +0.142 HD
ATOM     11  H   UNL     1       3.831  -8.482  -5.374  0.00  0.00    +0.142 HD
ENDBRANCH   5   9
ENDBRANCH   1   2
BRANCH   1  12
ATOM     12  S   UNL     1       0.041  -3.505  -1.711  0.00  0.00    +0.095 S 
ATOM     13  O   UNL     1      -0.492  -4.572  -0.939  0.00  0.00    -0.148 OA
ATOM     14  O   UNL     1      -0.521  -3.109  -2.955  0.00  0.00    -0.148 OA
BRANCH  12  18
ATOM     15  C   UNL     1      -0.018   1.461   0.010  0.00  0.00    +0.172 C 
ATOM     16  N   UNL     1       0.002  -0.004   0.002  0.00  0.00    -0.273 N 
ATOM     17  C   UNL     1       0.008  -0.792  -1.094  0.00  0.00    +0.136 A 
ATOM     18  C   UNL     1       0.027  -2.079  -0.676  0.00  0.00    +0.148 A 
ATOM     19  C   UNL     1       0.034  -2.078   0.723  0.00  0.00    +0.163 A 
ATOM     20  N   UNL     1       0.025  -0.834   1.130  0.00  0.00    -0.178 NA
ENDBRANCH  12  18
ENDBRANCH   1  12
TORSDOF 4
