REMARK  Name = ZINC59795784
REMARK  12 active torsions:
REMARK  status: ('A' for Active; 'I' for Inactive)
REMARK    1  A    between atoms: C_1  and  C_2
REMARK    2  A    between atoms: C_2  and  O_3
REMARK    3  A    between atoms: O_3  and  C_4
REMARK    4  A    between atoms: C_4  and  C_6
REMARK    5  A    between atoms: C_10  and  N_11
REMARK    6  A    between atoms: C_12  and  C_14
REMARK    7  A    between atoms: C_14  and  C_15
REMARK    8  A    between atoms: C_15  and  S_16
REMARK    9  A    between atoms: S_16  and  C_17
REMARK   10  A    between atoms: C_20  and  C_25
REMARK   11  A    between atoms: N_21  and  C_22
REMARK   12  A    between atoms: C_22  and  C_23
REMARK                            x       y       z     vdW  Elec       q    Type
REMARK                         _______ _______ _______ _____ _____    ______ ____
ROOT
ATOM      1  C   UNL     1       6.222  -2.184   0.780  0.00  0.00    +0.107 C 
ENDROOT
BRANCH   1   3
ATOM      2  N   UNL     1       4.145  -1.556   1.967  0.00  0.00    -0.279 N 
ATOM      3  C   UNL     1       5.445  -1.905   2.041  0.00  0.00    +0.218 C 
ATOM      4  O   UNL     1       5.989  -1.994   3.121  0.00  0.00    -0.275 OA
ATOM      5  H   UNL     1       3.710  -1.484   1.103  0.00  0.00    +0.155 HD
BRANCH   2  10
ATOM      6  C   UNL     1       2.101  -0.931   3.243  0.00  0.00    +0.091 A 
ATOM      7  C   UNL     1       1.580  -0.724   4.593  0.00  0.00    -0.021 A 
ATOM      8  C   UNL     1       2.487  -0.915   5.567  0.00  0.00    -0.004 A 
ATOM      9  S   UNL     1       3.977  -1.359   4.711  0.00  0.00    -0.077 S 
ATOM     10  C   UNL     1       3.430  -1.299   3.126  0.00  0.00    +0.086 A 
ATOM     11  C   UNL     1       1.900  -0.685   6.933  0.00  0.00    +0.043 C 
ATOM     12  C   UNL     1       0.596   0.100   6.671  0.00  0.00    +0.010 C 
ATOM     13  C   UNL     1       0.248  -0.339   5.234  0.00  0.00    +0.037 C 
BRANCH   6  14
ATOM     14  C   UNL     1       1.250  -0.764   2.062  0.00  0.00    +0.342 C 
ATOM     15  O   UNL     1       0.622  -1.709   1.627  0.00  0.00    -0.245 OA
BRANCH  14  16
ATOM     16  O   UNL     1       1.164   0.439   1.459  0.00  0.00    -0.461 OA
BRANCH  16  18
ATOM     17  C   UNL     1       0.345   1.960  -0.231  0.00  0.00    +0.048 C 
ATOM     18  C   UNL     1       0.316   0.531   0.313  0.00  0.00    +0.229 C 
ENDBRANCH  16  18
ENDBRANCH  14  16
ENDBRANCH   6  14
ENDBRANCH   2  10
ENDBRANCH   1   3
BRANCH   1  19
ATOM     19  C   UNL     1       7.662  -2.556   1.141  0.00  0.00    +0.086 C 
BRANCH  19  20
ATOM     20  S   UNL     1       8.598  -2.893  -0.376  0.00  0.00    -0.086 S 
BRANCH  20  21
ATOM     21  C   UNL     1      10.212  -3.300   0.201  0.00  0.00    +0.192 A 
ATOM     22  N   UNL     1      10.604  -3.345   1.454  0.00  0.00    -0.122 NA
ATOM     23  N   UNL     1      11.844  -3.677   1.518  0.00  0.00    -0.128 NA
ATOM     24  C   UNL     1      12.320  -3.865   0.309  0.00  0.00    +0.165 A 
ATOM     25  N   UNL     1      11.288  -3.634  -0.572  0.00  0.00    -0.298 N 
BRANCH  24  26
ATOM     26  C   UNL     1      13.702  -4.255  -0.040  0.00  0.00    +0.019 A 
ATOM     27  C   UNL     1      14.289  -3.782  -1.215  0.00  0.00    +0.014 A 
ATOM     28  C   UNL     1      15.579  -4.149  -1.536  0.00  0.00    +0.039 A 
ATOM     29  C   UNL     1      16.293  -4.987  -0.694  0.00  0.00    +0.123 A 
ATOM     30  C   UNL     1      15.715  -5.460   0.474  0.00  0.00    +0.039 A 
ATOM     31  C   UNL     1      14.428  -5.095   0.807  0.00  0.00    +0.014 A 
ATOM     32  F   UNL     1      17.556  -5.345  -1.013  0.00  0.00    -0.205 F 
ENDBRANCH  24  26
BRANCH  25  33
ATOM     33  C   UNL     1      11.335  -3.726  -2.033  0.00  0.00    +0.152 C 
BRANCH  33  34
ATOM     34  C   UNL     1      11.567  -2.355  -2.615  0.00  0.00    -0.013 C 
ATOM     35  C   UNL     1      12.549  -2.160  -3.460  0.00  0.00    +0.005 C 
ENDBRANCH  33  34
ENDBRANCH  25  33
ENDBRANCH  20  21
ENDBRANCH  19  20
ENDBRANCH   1  19
TORSDOF 11
