REMARK  Name = ZINC45725322
REMARK  11 active torsions:
REMARK  status: ('A' for Active; 'I' for Inactive)
REMARK    1  A    between atoms: C_1  and  C_2
REMARK    2  A    between atoms: C_2  and  N_3
REMARK    3  A    between atoms: N_3  and  C_4
REMARK    4  A    between atoms: N_3  and  C_6
REMARK    5  A    between atoms: C_4  and  C_5
REMARK    6  A    between atoms: C_6  and  C_8
REMARK    7  A    between atoms: C_6  and  C_23
REMARK    8  A    between atoms: C_8  and  N_9
REMARK    9  A    between atoms: N_12  and  C_13
REMARK   10  A    between atoms: C_18  and  C_19
REMARK   11  A    between atoms: C_19  and  C_20
REMARK                            x       y       z     vdW  Elec       q    Type
REMARK                         _______ _______ _______ _____ _____    ______ ____
ROOT
ATOM      1  N   UNL     1       0.183  -2.379  -1.862  0.00  0.00    -0.300 N 
ATOM      2  C   UNL     1       0.689  -3.412  -1.157  0.00  0.00    +0.304 C 
ATOM      3  O   UNL     1       1.642  -3.238  -0.424  0.00  0.00    -0.253 OA
ATOM      4  N   UNL     1       0.137  -4.636  -1.267  0.00  0.00    -0.269 N 
ATOM      5  H   UNL     1      -0.577  -2.518  -2.447  0.00  0.00    +0.150 HD
ATOM      6  H   UNL     1      -0.581  -4.790  -1.901  0.00  0.00    +0.156 HD
ENDROOT
BRANCH   4   7
ATOM      7  C   UNL     1       0.598  -5.686  -0.465  0.00  0.00    +0.038 A 
ATOM      8  C   UNL     1       1.903  -5.677   0.010  0.00  0.00    +0.023 A 
ATOM      9  C   UNL     1       2.356  -6.714   0.802  0.00  0.00    +0.002 A 
ATOM     10  C   UNL     1       1.511  -7.761   1.122  0.00  0.00    +0.000 A 
ATOM     11  C   UNL     1       0.212  -7.774   0.650  0.00  0.00    +0.006 A 
ATOM     12  C   UNL     1      -0.249  -6.736  -0.137  0.00  0.00    -0.017 A 
BRANCH  12  13
ATOM     13  C   UNL     1      -1.667  -6.747  -0.646  0.00  0.00    +0.132 C 
BRANCH  13  14
ATOM     14  C   UNL     1      -1.700  -7.343  -2.030  0.00  0.00    +0.215 C 
ATOM     15  O   UNL     1      -0.673  -7.721  -2.552  0.00  0.00    -0.276 OA
ATOM     16  N   UNL     1      -2.871  -7.455  -2.688  0.00  0.00    -0.329 N 
ATOM     17  H   UNL     1      -3.693  -7.153  -2.270  0.00  0.00    +0.145 HD
ATOM     18  H   UNL     1      -2.892  -7.839  -3.578  0.00  0.00    +0.145 HD
ENDBRANCH  13  14
ENDBRANCH  12  13
ENDBRANCH   4   7
BRANCH   1  19
ATOM     19  C   UNL     1       0.783  -1.048  -1.743  0.00  0.00    +0.095 C 
BRANCH  19  20
ATOM     20  C   UNL     1      -0.058  -0.038  -2.526  0.00  0.00    -0.020 C 
BRANCH  20  21
ATOM     21  C   UNL     1       0.489   1.349  -2.306  0.00  0.00    -0.059 A 
ATOM     22  C   UNL     1       1.802   1.519  -1.908  0.00  0.00    +0.002 A 
ATOM     23  C   UNL     1       2.304   2.791  -1.706  0.00  0.00    +0.000 A 
ATOM     24  C   UNL     1       1.493   3.893  -1.902  0.00  0.00    +0.000 A 
ATOM     25  C   UNL     1       0.180   3.723  -2.300  0.00  0.00    +0.000 A 
ATOM     26  C   UNL     1      -0.320   2.451  -2.507  0.00  0.00    +0.002 A 
ENDBRANCH  20  21
BRANCH  20  27
ATOM     27  N   UNL     1      -1.450  -0.095  -2.061  0.00  0.00    +0.385 N 
ATOM     28  H   UNL     1      -1.673  -1.039  -1.783  0.00  0.00    -0.081 HD
BRANCH  27  30
ATOM     29  C   UNL     1      -0.630   0.424   0.188  0.00  0.00    -0.017 C 
ATOM     30  C   UNL     1      -1.620   0.807  -0.914  0.00  0.00    -0.081 C 
ENDBRANCH  27  30
BRANCH  27  31
ATOM     31  C   UNL     1      -2.346   0.320  -3.148  0.00  0.00    -0.081 C 
ATOM     32  C   UNL     1      -2.329  -0.736  -4.255  0.00  0.00    -0.017 C 
ENDBRANCH  27  31
ENDBRANCH  20  27
ENDBRANCH  19  20
ENDBRANCH   1  19
TORSDOF 9
