REMARK  Name = ZINC25389280
REMARK  17 active torsions:
REMARK  status: ('A' for Active; 'I' for Inactive)
REMARK    1  A    between atoms: C_1  and  C_2
REMARK    2  A    between atoms: C_2  and  C_3
REMARK    3  A    between atoms: C_7  and  C_36
REMARK    4  A    between atoms: C_8  and  N_9
REMARK    5  A    between atoms: C_10  and  C_12
REMARK    6  A    between atoms: C_12  and  N_13
REMARK    7  A    between atoms: N_13  and  C_14
REMARK    8  A    between atoms: N_13  and  C_22
REMARK    9  A    between atoms: C_14  and  C_15
REMARK   10  A    between atoms: C_15  and  C_16
REMARK   11  A    between atoms: C_22  and  C_23
REMARK   12  A    between atoms: N_25  and  C_26
REMARK   13  A    between atoms: C_27  and  C_34
REMARK   14  A    between atoms: C_31  and  C_32
REMARK   15  A    between atoms: C_32  and  C_33
REMARK   16  A    between atoms: C_34  and  C_35
REMARK   17  A    between atoms: C_36  and  C_37
REMARK                            x       y       z     vdW  Elec       q    Type
REMARK                         _______ _______ _______ _____ _____    ______ ____
ROOT
ATOM      1  N   UNL     1      -5.614   1.605   6.656  0.00  0.00    +0.391 N 
ATOM      2  H   UNL     1      -4.892   2.433   6.637  0.00  0.00    -0.080 HD
ENDROOT
BRANCH   1   3
ATOM      3  C   UNL     1      -6.889   2.128   7.165  0.00  0.00    +0.020 C 
BRANCH   3   5
ATOM      4  N   UNL     1      -7.672   3.420   9.124  0.00  0.00    -0.287 N 
ATOM      5  C   UNL     1      -6.635   2.950   8.403  0.00  0.00    +0.201 C 
ATOM      6  O   UNL     1      -5.498   3.189   8.749  0.00  0.00    -0.278 OA
ATOM      7  H   UNL     1      -8.702   3.156   8.842  0.00  0.00    +0.155 HD
BRANCH   4  13
ATOM      8  C   UNL     1      -7.931   5.541  10.250  0.00  0.00    -0.026 A 
ATOM      9  C   UNL     1      -7.693   6.353  11.342  0.00  0.00    +0.005 A 
ATOM     10  C   UNL     1      -6.976   5.870  12.421  0.00  0.00    +0.001 A 
ATOM     11  C   UNL     1      -6.484   4.578  12.406  0.00  0.00    +0.005 A 
ATOM     12  C   UNL     1      -6.713   3.763  11.314  0.00  0.00    -0.026 A 
ATOM     13  C   UNL     1      -7.439   4.243  10.232  0.00  0.00    +0.040 A 
BRANCH   8  15
ATOM     14  C   UNL     1     -10.187   5.663   9.227  0.00  0.00    +0.009 C 
ATOM     15  C   UNL     1      -8.719   6.066   9.077  0.00  0.00    +0.033 C 
ENDBRANCH   8  15
BRANCH  12  16
ATOM     16  C   UNL     1      -6.177   2.355  11.299  0.00  0.00    +0.033 C 
ATOM     17  C   UNL     1      -4.653   2.391  11.164  0.00  0.00    +0.009 C 
ENDBRANCH  12  16
ENDBRANCH   4  13
ENDBRANCH   3   5
ENDBRANCH   1   3
BRANCH   1  18
ATOM     18  C   UNL     1      -5.763   1.103   5.283  0.00  0.00    -0.073 C 
BRANCH  18  19
ATOM     19  C   UNL     1      -5.824   2.285   4.312  0.00  0.00    +0.012 C 
BRANCH  19  20
ATOM     20  C   UNL     1      -5.850   1.770   2.896  0.00  0.00    -0.075 C 
ATOM     21  C   UNL     1      -7.002   1.625   2.325  0.00  0.00    -0.028 C 
ATOM     22  C   UNL     1      -7.188   1.115   0.925  0.00  0.00    +0.027 C 
ATOM     23  C   UNL     1      -5.870   1.203   0.153  0.00  0.00    +0.004 C 
ATOM     24  C   UNL     1      -4.763   0.574   1.008  0.00  0.00    +0.005 C 
ATOM     25  C   UNL     1      -4.538   1.465   2.234  0.00  0.00    +0.030 C 
ENDBRANCH  19  20
ENDBRANCH  18  19
ENDBRANCH   1  18
BRANCH   1  26
ATOM     26  C   UNL     1      -5.082   0.561   7.542  0.00  0.00    +0.020 C 
BRANCH  26  27
ATOM     27  C   UNL     1      -3.672   0.224   7.130  0.00  0.00    +0.201 C 
ATOM     28  O   UNL     1      -3.162   0.795   6.190  0.00  0.00    -0.278 OA
ATOM     29  N   UNL     1      -2.979  -0.714   7.806  0.00  0.00    -0.287 N 
ATOM     30  H   UNL     1      -3.473  -1.304   8.591  0.00  0.00    +0.155 HD
BRANCH  29  31
ATOM     31  C   UNL     1      -1.630  -0.937   7.508  0.00  0.00    +0.040 A 
ATOM     32  C   UNL     1      -0.655  -0.682   8.463  0.00  0.00    -0.026 A 
ATOM     33  C   UNL     1       0.675  -0.908   8.168  0.00  0.00    +0.005 A 
ATOM     34  C   UNL     1       1.037  -1.377   6.918  0.00  0.00    +0.001 A 
ATOM     35  C   UNL     1       0.069  -1.627   5.963  0.00  0.00    +0.005 A 
ATOM     36  C   UNL     1      -1.263  -1.408   6.254  0.00  0.00    -0.026 A 
BRANCH  36  37
ATOM     37  C   UNL     1      -2.317  -1.680   5.212  0.00  0.00    +0.033 C 
ATOM     38  C   UNL     1      -1.647  -1.904   3.855  0.00  0.00    +0.009 C 
ENDBRANCH  36  37
BRANCH  32  39
ATOM     39  C   UNL     1      -1.048  -0.165   9.823  0.00  0.00    +0.033 C 
ATOM     40  C   UNL     1      -1.442  -1.339  10.721  0.00  0.00    +0.009 C 
ENDBRANCH  32  39
ENDBRANCH  29  31
ENDBRANCH  26  27
ENDBRANCH   1  26
TORSDOF 13
