REMARK  Name = ZINC28333595
REMARK  8 active torsions:
REMARK  status: ('A' for Active; 'I' for Inactive)
REMARK    1  A    between atoms: C_1  and  C_2
REMARK    2  A    between atoms: C_2  and  C_3
REMARK    3  A    between atoms: C_2  and  C_4
REMARK    4  A    between atoms: C_4  and  C_6
REMARK    5  A    between atoms: C_4  and  N_21
REMARK    6  A    between atoms: N_8  and  C_9
REMARK    7  A    between atoms: C_9  and  C_10
REMARK    8  A    between atoms: C_10  and  C_11
REMARK                            x       y       z     vdW  Elec       q    Type
REMARK                         _______ _______ _______ _____ _____    ______ ____
ROOT
ATOM      1  C   UNL     1      -1.241  -2.056   0.093  0.00  0.00    +0.234 C 
ATOM      2  O   UNL     1      -1.648  -2.818  -0.757  0.00  0.00    -0.274 OA
ATOM      3  N   UNL     1      -0.708  -2.539   1.233  0.00  0.00    -0.314 N 
ATOM      4  H   UNL     1      -0.316  -1.933   1.881  0.00  0.00    +0.149 HD
ENDROOT
BRANCH   1   5
ATOM      5  C   UNL     1      -1.331  -0.567  -0.124  0.00  0.00    +0.163 C 
BRANCH   5   6
ATOM      6  N   UNL     1      -2.351  -0.282  -1.136  0.00  0.00    -0.288 N 
ATOM      7  C   UNL     1      -2.969   0.915  -1.151  0.00  0.00    +0.298 C 
ATOM      8  O   UNL     1      -2.679   1.759  -0.325  0.00  0.00    -0.253 OA
ATOM      9  N   UNL     1      -3.908   1.178  -2.082  0.00  0.00    -0.313 N 
ATOM     10  H   UNL     1      -2.582  -0.955  -1.795  0.00  0.00    +0.151 HD
ATOM     11  H   UNL     1      -4.139   0.505  -2.741  0.00  0.00    +0.146 HD
ATOM     12  H   UNL     1      -4.352   2.040  -2.093  0.00  0.00    +0.146 HD
ENDBRANCH   5   6
BRANCH   5  14
ATOM     13  C   UNL     1       0.338  -0.619  -1.984  0.00  0.00    +0.009 C 
ATOM     14  C   UNL     1       0.024  -0.039  -0.603  0.00  0.00    +0.012 C 
ATOM     15  C   UNL     1      -0.026   1.488  -0.690  0.00  0.00    +0.009 C 
ENDBRANCH   5  14
ENDBRANCH   1   5
BRANCH   3  16
ATOM     16  C   UNL     1      -0.720  -3.981   1.493  0.00  0.00    +0.105 C 
BRANCH  16  17
ATOM     17  C   UNL     1      -0.059  -4.261   2.844  0.00  0.00    +0.025 C 
BRANCH  17  18
ATOM     18  C   UNL     1      -0.072  -5.767   3.116  0.00  0.00    -0.027 C 
ATOM     19  C   UNL     1      -1.518  -6.268   3.142  0.00  0.00    +0.010 C 
ATOM     20  C   UNL     1      -1.530  -7.774   3.413  0.00  0.00    -0.010 C 
ATOM     21  C   UNL     1      -0.869  -8.054   4.764  0.00  0.00    +0.007 C 
ATOM     22  C   UNL     1       0.576  -7.552   4.739  0.00  0.00    -0.010 C 
ATOM     23  C   UNL     1       0.589  -6.047   4.467  0.00  0.00    +0.010 C 
ATOM     24  C   UNL     1       1.347  -8.277   3.634  0.00  0.00    +0.007 C 
ATOM     25  C   UNL     1       0.686  -7.997   2.282  0.00  0.00    -0.010 C 
ATOM     26  C   UNL     1      -0.759  -8.498   2.308  0.00  0.00    +0.007 C 
ATOM     27  C   UNL     1       0.699  -6.491   2.011  0.00  0.00    +0.010 C 
ENDBRANCH  17  18
ENDBRANCH  16  17
ENDBRANCH   3  16
TORSDOF 6
