REMARK  Name = ZINC19940078
REMARK  10 active torsions:
REMARK  status: ('A' for Active; 'I' for Inactive)
REMARK    1  A    between atoms: C_1  and  C_2
REMARK    2  A    between atoms: C_6  and  C_8
REMARK    3  A    between atoms: C_8  and  N_9
REMARK    4  A    between atoms: N_9  and  C_10
REMARK    5  A    between atoms: C_13  and  C_25
REMARK    6  A    between atoms: N_15  and  C_17
REMARK    7  A    between atoms: C_17  and  C_18
REMARK    8  A    between atoms: N_27  and  C_28
REMARK    9  A    between atoms: C_28  and  C_29
REMARK   10  A    between atoms: C_29  and  C_30
REMARK                            x       y       z     vdW  Elec       q    Type
REMARK                         _______ _______ _______ _____ _____    ______ ____
ROOT
ATOM      1  C   UNL     1      -1.875   3.573  -1.935  0.00  0.00    -0.055 C 
ATOM      2  C   UNL     1      -2.790   2.336  -2.080  0.00  0.00    +0.014 C 
ATOM      3  C   UNL     1      -2.185   1.336  -1.063  0.00  0.00    +0.142 C 
ATOM      4  N   UNL     1      -0.723   1.572  -1.182  0.00  0.00    -0.289 NA
ATOM      5  C   UNL     1      -0.563   3.035  -1.334  0.00  0.00    +0.070 C 
ENDROOT
BRANCH   3   6
ATOM      6  C   UNL     1      -2.527  -0.082  -1.444  0.00  0.00    +0.230 C 
ATOM      7  O   UNL     1      -1.649  -0.846  -1.786  0.00  0.00    -0.274 OA
ATOM      8  N   UNL     1      -3.807  -0.500  -1.403  0.00  0.00    -0.314 N 
ATOM      9  H   UNL     1      -4.603   0.193  -1.092  0.00  0.00    +0.149 HD
BRANCH   8  10
ATOM     10  C   UNL     1      -4.139  -1.878  -1.773  0.00  0.00    +0.109 C 
BRANCH  10  11
ATOM     11  C   UNL     1      -5.649  -2.092  -1.641  0.00  0.00    +0.054 C 
BRANCH  11  12
ATOM     12  C   UNL     1      -5.991  -3.510  -2.021  0.00  0.00    -0.042 A 
ATOM     13  C   UNL     1      -5.999  -4.500  -1.056  0.00  0.00    +0.007 A 
ATOM     14  C   UNL     1      -6.313  -5.801  -1.400  0.00  0.00    +0.050 A 
ATOM     15  C   UNL     1      -6.619  -6.117  -2.714  0.00  0.00    +0.166 A 
ATOM     16  C   UNL     1      -6.610  -5.120  -3.686  0.00  0.00    +0.166 A 
ATOM     17  C   UNL     1      -6.300  -3.816  -3.333  0.00  0.00    +0.053 A 
ATOM     18  O   UNL     1      -6.941  -5.678  -4.887  0.00  0.00    -0.453 OA
ATOM     19  C   UNL     1      -6.753  -7.095  -4.717  0.00  0.00    +0.466 C 
ATOM     20  O   UNL     1      -6.955  -7.300  -3.306  0.00  0.00    -0.453 OA
ENDBRANCH  11  12
ENDBRANCH  10  11
ENDBRANCH   8  10
ENDBRANCH   3   6
BRANCH   1  21
ATOM     21  N   UNL     1      -1.623   4.179  -3.249  0.00  0.00    +0.384 N 
ATOM     22  H   UNL     1      -2.542   4.112  -3.850  0.00  0.00    -0.085 HD
ATOM     23  H   UNL     1      -0.818   3.619  -3.747  0.00  0.00    -0.085 HD
BRANCH  21  24
ATOM     24  C   UNL     1      -1.228   5.588  -3.112  0.00  0.00    -0.046 C 
BRANCH  24  30
ATOM     25  C   UNL     1      -2.914   7.961  -7.183  0.00  0.00    +0.044 C 
ATOM     26  C   UNL     1      -1.786   7.310  -6.426  0.00  0.00    -0.050 A 
ATOM     27  C   UNL     1      -0.522   7.250  -6.984  0.00  0.00    +0.003 A 
ATOM     28  C   UNL     1       0.513   6.653  -6.289  0.00  0.00    +0.000 A 
ATOM     29  C   UNL     1       0.285   6.119  -5.034  0.00  0.00    +0.002 A 
ATOM     30  C   UNL     1      -0.979   6.174  -4.478  0.00  0.00    -0.064 A 
ATOM     31  C   UNL     1      -2.014   6.772  -5.173  0.00  0.00    +0.005 A 
ENDBRANCH  24  30
ENDBRANCH  21  24
ENDBRANCH   1  21
BRANCH   4  32
ATOM     32  C   UNL     1      -0.013   1.086   0.008  0.00  0.00    +0.120 C 
BRANCH  32  33
ATOM     33  C   UNL     1      -0.718   1.572   1.248  0.00  0.00    -0.033 A 
ATOM     34  C   UNL     1      -0.360   2.779   1.818  0.00  0.00    +0.006 A 
ATOM     35  C   UNL     1      -1.010   3.228   2.952  0.00  0.00    +0.020 A 
ATOM     36  C   UNL     1      -2.012   2.464   3.523  0.00  0.00    +0.041 A 
ATOM     37  C   UNL     1      -2.367   1.253   2.955  0.00  0.00    +0.020 A 
ATOM     38  C   UNL     1      -1.719   0.808   1.817  0.00  0.00    +0.006 A 
ATOM     39 CL   UNL     1      -2.825   3.024   4.951  0.00  0.00    -0.084 Cl
ENDBRANCH  32  33
ENDBRANCH   4  32
TORSDOF 9
