REMARK  Name = ZINC00748315
REMARK  12 active torsions:
REMARK  status: ('A' for Active; 'I' for Inactive)
REMARK    1  A    between atoms: C_1  and  C_2
REMARK    2  A    between atoms: C_7  and  C_8
REMARK    3  A    between atoms: N_10  and  C_11
REMARK    4  A    between atoms: C_11  and  C_13
REMARK    5  A    between atoms: C_11  and  C_14
REMARK    6  A    between atoms: C_17  and  S_28
REMARK    7  A    between atoms: N_18  and  C_19
REMARK    8  A    between atoms: C_22  and  N_25
REMARK    9  A    between atoms: S_28  and  C_29
REMARK   10  A    between atoms: C_29  and  C_30
REMARK   11  A    between atoms: C_34  and  O_36
REMARK   12  A    between atoms: O_36  and  C_37
REMARK                            x       y       z     vdW  Elec       q    Type
REMARK                         _______ _______ _______ _____ _____    ______ ____
ROOT
ATOM      1  C   UNL     1       0.213  -0.854   6.030  0.00  0.00    +0.159 A 
ATOM      2  N   UNL     1       0.615  -2.083   6.188  0.00  0.00    -0.131 NA
ATOM      3  N   UNL     1       0.115  -2.577   7.264  0.00  0.00    -0.122 NA
ATOM      4  C   UNL     1      -0.641  -1.683   7.857  0.00  0.00    +0.196 A 
ATOM      5  N   UNL     1      -0.598  -0.551   7.091  0.00  0.00    -0.273 N 
ENDROOT
BRANCH   5   6
ATOM      6  C   UNL     1      -1.252   0.665   7.339  0.00  0.00    +0.050 A 
ATOM      7  C   UNL     1      -0.513   1.813   7.592  0.00  0.00    +0.028 A 
ATOM      8  C   UNL     1      -1.159   3.009   7.836  0.00  0.00    +0.035 A 
ATOM      9  C   UNL     1      -2.540   3.064   7.828  0.00  0.00    +0.126 A 
ATOM     10  C   UNL     1      -3.279   1.923   7.576  0.00  0.00    +0.035 A 
ATOM     11  C   UNL     1      -2.638   0.725   7.326  0.00  0.00    +0.028 A 
BRANCH   9  12
ATOM     12  N   UNL     1      -3.230   4.348   8.090  0.00  0.00    +0.056 N 
ATOM     13  O   UNL     1      -2.585   5.346   8.310  0.00  0.00    -0.126 OA
ATOM     14  O   UNL     1      -4.438   4.397   8.083  0.00  0.00    -0.126 OA
ENDBRANCH   9  12
ENDBRANCH   5   6
BRANCH   1  15
ATOM     15  C   UNL     1       0.578   0.067   4.894  0.00  0.00    +0.139 C 
ATOM     16  C   UNL     1       2.016   0.556   5.076  0.00  0.00    +0.036 C 
BRANCH  15  19
ATOM     17  C   UNL     1       0.242   0.021   2.481  0.00  0.00    +0.245 C 
ATOM     18  O   UNL     1       0.135   1.232   2.503  0.00  0.00    -0.270 OA
ATOM     19  N   UNL     1       0.465  -0.656   3.625  0.00  0.00    -0.302 N 
ATOM     20  H   UNL     1       0.551  -1.622   3.607  0.00  0.00    +0.150 HD
BRANCH  17  27
ATOM     21  C   UNL     1      -0.511   1.452   0.082  0.00  0.00    +0.044 C 
ATOM     22  C   UNL     1      -0.234  -0.028   0.036  0.00  0.00    -0.038 A 
ATOM     23  C   UNL     1      -0.334  -0.714  -1.157  0.00  0.00    +0.004 A 
ATOM     24  C   UNL     1      -0.080  -2.073  -1.200  0.00  0.00    +0.000 A 
ATOM     25  C   UNL     1       0.275  -2.754  -0.049  0.00  0.00    +0.001 A 
ATOM     26  C   UNL     1       0.378  -2.080   1.150  0.00  0.00    +0.013 A 
ATOM     27  C   UNL     1       0.128  -0.708   1.200  0.00  0.00    +0.040 A 
ENDBRANCH  17  27
ENDBRANCH  15  19
ENDBRANCH   1  15
BRANCH   4  28
ATOM     28  S   UNL     1      -1.536  -1.899   9.360  0.00  0.00    -0.081 S 
BRANCH  28  29
ATOM     29  C   UNL     1      -1.158  -3.603   9.855  0.00  0.00    +0.112 C 
BRANCH  29  30
ATOM     30  C   UNL     1      -1.871  -3.921  11.144  0.00  0.00    -0.034 A 
ATOM     31  C   UNL     1      -1.252  -3.671  12.355  0.00  0.00    +0.005 A 
ATOM     32  C   UNL     1      -1.903  -3.962  13.540  0.00  0.00    +0.004 A 
ATOM     33  C   UNL     1      -3.174  -4.504  13.516  0.00  0.00    +0.045 A 
ATOM     34  C   UNL     1      -3.797  -4.755  12.302  0.00  0.00    +0.120 A 
ATOM     35  C   UNL     1      -3.144  -4.457  11.115  0.00  0.00    +0.050 A 
BRANCH  34  36
ATOM     36  O   UNL     1      -5.047  -5.288  12.276  0.00  0.00    -0.495 OA
ATOM     37  C   UNL     1      -5.661  -5.564  13.537  0.00  0.00    +0.277 C 
ENDBRANCH  34  36
ENDBRANCH  29  30
ENDBRANCH  28  29
ENDBRANCH   4  28
TORSDOF 9
