REMARK  Name = ZINC51088555
REMARK  6 active torsions:
REMARK  status: ('A' for Active; 'I' for Inactive)
REMARK    1  A    between atoms: C_1  and  C_2
REMARK    2  A    between atoms: C_6  and  C_20
REMARK    3  A    between atoms: C_7  and  N_8
REMARK    4  A    between atoms: C_9  and  C_11
REMARK    5  A    between atoms: C_15  and  N_17
REMARK    6  A    between atoms: N_17  and  N_18
REMARK                            x       y       z     vdW  Elec       q    Type
REMARK                         _______ _______ _______ _____ _____    ______ ____
ROOT
ATOM      1  N   UNL     1      -0.067   0.021   2.406  0.00  0.00    -0.280 N 
ATOM      2  C   UNL     1      -0.244  -0.645   3.564  0.00  0.00    +0.268 C 
ATOM      3  O   UNL     1      -0.274  -1.861   3.567  0.00  0.00    -0.268 OA
ATOM      4  H   UNL     1       0.025   0.987   2.411  0.00  0.00    +0.155 HD
ENDROOT
BRANCH   1  11
ATOM      5  C   UNL     1       2.465  -0.309   1.151  0.00  0.00    +0.046 C 
ATOM      6  C   UNL     1       1.200  -0.864   0.550  0.00  0.00    -0.028 A 
ATOM      7  C   UNL     1       1.248  -1.562  -0.640  0.00  0.00    +0.020 A 
ATOM      8  C   UNL     1       0.087  -2.071  -1.193  0.00  0.00    +0.018 A 
ATOM      9  C   UNL     1      -1.126  -1.884  -0.555  0.00  0.00    +0.020 A 
ATOM     10  C   UNL     1      -1.181  -1.188   0.636  0.00  0.00    -0.028 A 
ATOM     11  C   UNL     1      -0.016  -0.680   1.196  0.00  0.00    +0.040 A 
ATOM     12  C   UNL     1      -2.503  -0.984   1.331  0.00  0.00    +0.046 C 
ATOM     13 BR   UNL     1       0.157  -3.025  -2.825  0.00  0.00    -0.050 Br
ENDBRANCH   1  11
BRANCH   2  14
ATOM     14  C   UNL     1      -0.404   0.102   4.831  0.00  0.00    +0.146 A 
ATOM     15  C   UNL     1      -0.581  -0.593   6.025  0.00  0.00    +0.072 A 
ATOM     16  C   UNL     1      -0.729   0.120   7.208  0.00  0.00    +0.026 A 
ATOM     17  C   UNL     1      -0.696   1.501   7.157  0.00  0.00    +0.046 A 
ATOM     18  C   UNL     1      -0.515   2.135   5.928  0.00  0.00    +0.133 A 
ATOM     19  N   UNL     1      -0.371   1.431   4.820  0.00  0.00    -0.225 NA
ATOM     20 CL   UNL     1      -0.616  -2.329   6.034  0.00  0.00    -0.081 Cl
BRANCH  18  21
ATOM     21  N   UNL     1      -0.480   3.523   5.870  0.00  0.00    -0.268 N 
ATOM     22  H   UNL     1      -0.582   4.045   6.681  0.00  0.00    +0.167 HD
BRANCH  21  23
ATOM     23  N   UNL     1      -0.304   4.152   4.670  0.00  0.00    -0.255 NA
ATOM     24  H   UNL     1      -0.300   5.155   4.784  0.00  0.00    +0.140 HD
ATOM     25  H   UNL     1       0.541   3.837   4.218  0.00  0.00    +0.140 HD
ENDBRANCH  21  23
ENDBRANCH  18  21
ENDBRANCH   2  14
TORSDOF 4
