REMARK  Name = ZINC09338553
REMARK  8 active torsions:
REMARK  status: ('A' for Active; 'I' for Inactive)
REMARK    1  A    between atoms: C_1  and  C_2
REMARK    2  A    between atoms: C_2  and  C_4
REMARK    3  A    between atoms: C_2  and  N_58
REMARK    4  A    between atoms: C_7  and  S_16
REMARK    5  A    between atoms: N_8  and  C_9
REMARK    6  A    between atoms: S_16  and  C_17
REMARK    7  A    between atoms: C_17  and  C_18
REMARK    8  A    between atoms: C_20  and  C_23
REMARK                            x       y       z     vdW  Elec       q    Type
REMARK                         _______ _______ _______ _____ _____    ______ ____
ROOT
ATOM      1  C   UNL     1      -0.747   1.579   3.646  0.00  0.00    +0.125 A 
ATOM      2  N   UNL     1      -2.023   1.763   3.832  0.00  0.00    -0.135 NA
ATOM      3  N   UNL     1      -2.231   2.297   4.982  0.00  0.00    -0.122 NA
ATOM      4  C   UNL     1      -1.088   2.486   5.600  0.00  0.00    +0.197 A 
ATOM      5  N   UNL     1      -0.103   2.027   4.769  0.00  0.00    -0.275 N 
ENDROOT
BRANCH   5   6
ATOM      6  C   UNL     1       1.278   2.021   5.014  0.00  0.00    +0.050 A 
ATOM      7  C   UNL     1       1.958   0.816   5.129  0.00  0.00    +0.029 A 
ATOM      8  C   UNL     1       3.319   0.812   5.365  0.00  0.00    +0.040 A 
ATOM      9  C   UNL     1       4.003   2.008   5.497  0.00  0.00    +0.124 A 
ATOM     10  C   UNL     1       3.326   3.211   5.388  0.00  0.00    +0.040 A 
ATOM     11  C   UNL     1       1.966   3.219   5.147  0.00  0.00    +0.029 A 
ATOM     12  F   UNL     1       5.334   2.002   5.733  0.00  0.00    -0.205 F 
ENDBRANCH   5   6
BRANCH   1  14
ATOM     13  C   UNL     1      -0.316  -0.536   2.425  0.00  0.00    -0.005 C 
ATOM     14  C   UNL     1      -0.099   0.979   2.425  0.00  0.00    -0.002 C 
BRANCH  14  20
ATOM     15  C   UNL     1      -0.013   1.086   0.008  0.00  0.00    -0.078 C 
ATOM     16  C   UNL     1      -0.752   1.593  -1.232  0.00  0.00    -0.019 C 
ATOM     17  C   UNL     1      -0.788   3.123  -1.209  0.00  0.00    -0.004 C 
ATOM     18  C   UNL     1      -1.465   3.591   0.082  0.00  0.00    -0.019 C 
ATOM     19  C   UNL     1      -0.705   3.026   1.284  0.00  0.00    -0.078 C 
ATOM     20  N   UNL     1      -0.728   1.550   1.216  0.00  0.00    +0.386 N 
ATOM     21  H   UNL     1      -1.704   1.234   1.167  0.00  0.00    -0.081 HD
ENDBRANCH  14  20
ENDBRANCH   1  14
BRANCH   4  22
ATOM     22  S   UNL     1      -0.866   3.188   7.201  0.00  0.00    -0.076 S 
BRANCH  22  23
ATOM     23  C   UNL     1      -2.589   3.522   7.640  0.00  0.00    +0.176 C 
BRANCH  23  24
ATOM     24  C   UNL     1      -2.647   4.144   9.011  0.00  0.00    +0.238 A 
ATOM     25  N   UNL     1      -2.601   5.423   9.288  0.00  0.00    -0.191 NA
ATOM     26  C   UNL     1      -2.684   5.506  10.636  0.00  0.00    +0.203 A 
ATOM     27  N   UNL     1      -2.775   4.284  11.093  0.00  0.00    -0.056 NA
ATOM     28  O   UNL     1      -2.760   3.493  10.174  0.00  0.00    -0.337 OA
BRANCH  26  29
ATOM     29  C   UNL     1      -2.674   6.751  11.444  0.00  0.00    +0.041 A 
ATOM     30  C   UNL     1      -2.565   7.990  10.817  0.00  0.00    +0.013 A 
ATOM     31  C   UNL     1      -2.561   9.145  11.573  0.00  0.00    +0.001 A 
ATOM     32  C   UNL     1      -2.655   9.073  12.951  0.00  0.00    +0.001 A 
ATOM     33  C   UNL     1      -2.758   7.846  13.580  0.00  0.00    +0.021 A 
ATOM     34  C   UNL     1      -2.768   6.684  12.833  0.00  0.00    +0.052 A 
ATOM     35 CL   UNL     1      -2.897   5.143  13.623  0.00  0.00    -0.083 Cl
ENDBRANCH  26  29
ENDBRANCH  23  24
ENDBRANCH  22  23
ENDBRANCH   4  22
TORSDOF 7
