REMARK  Name = ZINC13064882
REMARK  11 active torsions:
REMARK  status: ('A' for Active; 'I' for Inactive)
REMARK    1  A    between atoms: C_1  and  C_2
REMARK    2  A    between atoms: C_2  and  C_3
REMARK    3  A    between atoms: C_3  and  C_5
REMARK    4  A    between atoms: C_3  and  N_69
REMARK    5  A    between atoms: N_9  and  C_10
REMARK    6  A    between atoms: C_10  and  C_11
REMARK    7  A    between atoms: C_17  and  C_18
REMARK    8  A    between atoms: C_17  and  N_69
REMARK    9  A    between atoms: C_21  and  C_31
REMARK   10  A    between atoms: C_23  and  C_30
REMARK   11  A    between atoms: C_32  and  N_69
REMARK                            x       y       z     vdW  Elec       q    Type
REMARK                         _______ _______ _______ _____ _____    ______ ____
ROOT
ATOM      1  N   UNL     1       5.489   2.235  -2.584  0.00  0.00    +0.391 N 
ATOM      2  H   UNL     1       6.177   2.989  -2.475  0.00  0.00    -0.080 HD
ENDROOT
BRANCH   1   3
ATOM      3  C   UNL     1       5.106   2.138  -4.008  0.00  0.00    -0.067 C 
ATOM      4  C   UNL     1       4.467   3.466  -4.462  0.00  0.00    -0.015 C 
ATOM      5  C   UNL     1       3.355   3.034  -5.451  0.00  0.00    -0.002 C 
ATOM      6  C   UNL     1       2.799   1.744  -4.799  0.00  0.00    -0.002 C 
ATOM      7  C   UNL     1       4.046   1.043  -4.223  0.00  0.00    -0.015 C 
ENDBRANCH   1   3
BRANCH   1   8
ATOM      8  C   UNL     1       4.301   2.545  -1.761  0.00  0.00    +0.003 C 
BRANCH   8   9
ATOM      9  C   UNL     1       3.523   1.288  -1.466  0.00  0.00    +0.138 A 
ATOM     10  N   UNL     1       4.018   0.117  -1.148  0.00  0.00    -0.115 NA
ATOM     11  N   UNL     1       3.035  -0.698  -0.979  0.00  0.00    -0.023 NA
ATOM     12  N   UNL     1       1.925  -0.076  -1.175  0.00  0.00    -0.044 NA
ATOM     13  N   UNL     1       2.184   1.152  -1.474  0.00  0.00    -0.226 N 
BRANCH  13  14
ATOM     14  C   UNL     1       1.204   2.200  -1.773  0.00  0.00    +0.182 C 
BRANCH  14  15
ATOM     15  C   UNL     1       0.695   2.793  -0.484  0.00  0.00    -0.026 A 
ATOM     16  C   UNL     1       1.339   3.878   0.079  0.00  0.00    +0.005 A 
ATOM     17  C   UNL     1       0.872   4.422   1.261  0.00  0.00    +0.000 A 
ATOM     18  C   UNL     1      -0.237   3.878   1.881  0.00  0.00    +0.000 A 
ATOM     19  C   UNL     1      -0.885   2.796   1.315  0.00  0.00    +0.000 A 
ATOM     20  C   UNL     1      -0.417   2.252   0.133  0.00  0.00    +0.005 A 
ENDBRANCH  14  15
ENDBRANCH  13  14
ENDBRANCH   8   9
BRANCH   8  22
ATOM     21  C   UNL     1       5.580   4.438  -0.749  0.00  0.00    +0.002 C 
ATOM     22  C   UNL     1       4.768   3.176  -0.448  0.00  0.00    -0.011 C 
ENDBRANCH   8  22
ENDBRANCH   1   8
BRANCH   1  23
ATOM     23  C   UNL     1       6.096   0.963  -2.137  0.00  0.00    -0.036 C 
BRANCH  23  24
ATOM     24  C   UNL     1       7.496   0.875  -2.689  0.00  0.00    +0.001 A 
ATOM     25  C   UNL     1       8.545   1.302  -1.943  0.00  0.00    +0.017 A 
ATOM     26  C   UNL     1       9.892   1.198  -2.507  0.00  0.00    +0.002 A 
ATOM     27  C   UNL     1      11.013   1.617  -1.784  0.00  0.00    -0.041 A 
ATOM     28  C   UNL     1      12.256   1.511  -2.340  0.00  0.00    +0.007 A 
ATOM     29  C   UNL     1      12.417   0.991  -3.618  0.00  0.00    -0.048 A 
ATOM     30  C   UNL     1      11.326   0.572  -4.349  0.00  0.00    +0.029 A 
ATOM     31  C   UNL     1      10.050   0.670  -3.803  0.00  0.00    +0.050 A 
ATOM     32  N   UNL     1       8.942   0.259  -4.511  0.00  0.00    -0.322 N 
ATOM     33  H   UNL     1       9.053  -0.105  -5.404  0.00  0.00    +0.169 HD
ATOM     34  C   UNL     1       7.709   0.353  -3.983  0.00  0.00    +0.251 A 
ATOM     35  O   UNL     1       6.752  -0.021  -4.638  0.00  0.00    -0.268 OA
ATOM     36  C   UNL     1      13.798   0.884  -4.211  0.00  0.00    +0.044 C 
ATOM     37  C   UNL     1      10.851   2.183  -0.397  0.00  0.00    +0.044 C 
ENDBRANCH  23  24
ENDBRANCH   1  23
TORSDOF 8
