REMARK  Name = ZINC33058737
REMARK  8 active torsions:
REMARK  status: ('A' for Active; 'I' for Inactive)
REMARK    1  A    between atoms: C_1  and  C_2
REMARK    2  A    between atoms: C_5  and  C_8
REMARK    3  A    between atoms: C_9  and  C_10
REMARK    4  A    between atoms: C_11  and  S_16
REMARK    5  A    between atoms: C_12  and  C_15
REMARK    6  A    between atoms: S_16  and  N_19
REMARK    7  A    between atoms: C_22  and  C_25
REMARK    8  A    between atoms: N_27  and  C_28
REMARK                            x       y       z     vdW  Elec       q    Type
REMARK                         _______ _______ _______ _____ _____    ______ ____
ROOT
ATOM      1  S   UNL     1      -0.128  -3.363  -0.031  0.00  0.00    +0.066 S 
ATOM      2  O   UNL     1      -0.716  -4.536  -0.577  0.00  0.00    -0.153 OA
ATOM      3  O   UNL     1       1.031  -2.761  -0.591  0.00  0.00    -0.153 OA
ENDROOT
BRANCH   1   5
ATOM      4  C   UNL     1      -1.228  -0.762  -0.024  0.00  0.00    +0.187 A 
ATOM      5  C   UNL     1      -1.383  -2.127  -0.022  0.00  0.00    +0.174 A 
ATOM      6  C   UNL     1      -2.780  -2.308  -0.010  0.00  0.00    +0.107 A 
ATOM      7  N   UNL     1      -3.311  -1.117  -0.007  0.00  0.00    -0.081 NA
ATOM      8  O   UNL     1      -2.472  -0.246  -0.008  0.00  0.00    -0.353 OA
ATOM      9  C   UNL     1      -3.517  -3.622  -0.003  0.00  0.00    +0.071 C 
BRANCH   4  11
ATOM     10  C   UNL     1       0.023   1.329  -0.035  0.00  0.00    +0.011 C 
ATOM     11  C   UNL     1       0.035  -0.018  -0.035  0.00  0.00    +0.051 C 
BRANCH  10  16
ATOM     12  C   UNL     1       4.976   4.247  -0.076  0.00  0.00    +0.044 C 
ATOM     13  C   UNL     1       3.678   3.482  -0.066  0.00  0.00    -0.050 A 
ATOM     14  C   UNL     1       2.475   4.167  -0.056  0.00  0.00    +0.004 A 
ATOM     15  C   UNL     1       1.283   3.474  -0.046  0.00  0.00    +0.008 A 
ATOM     16  C   UNL     1       1.292   2.076  -0.046  0.00  0.00    -0.025 A 
ATOM     17  C   UNL     1       2.510   1.392  -0.050  0.00  0.00    +0.008 A 
ATOM     18  C   UNL     1       3.694   2.099  -0.065  0.00  0.00    +0.004 A 
ENDBRANCH  10  16
ENDBRANCH   4  11
ENDBRANCH   1   5
BRANCH   1  19
ATOM     19  N   UNL     1       0.234  -3.706   1.548  0.00  0.00    -0.176 NA
ATOM     20  C   UNL     1       1.288  -2.964   2.253  0.00  0.00    +0.110 C 
ATOM     21  C   UNL     1       2.283  -3.959   2.849  0.00  0.00    +0.030 C 
ATOM     22  C   UNL     1       1.532  -4.966   3.722  0.00  0.00    +0.078 C 
ATOM     23  C   UNL     1       0.528  -5.740   2.864  0.00  0.00    +0.030 C 
ATOM     24  C   UNL     1      -0.490  -4.762   2.269  0.00  0.00    +0.110 C 
BRANCH  22  25
ATOM     25  C   UNL     1       2.515  -5.930   4.336  0.00  0.00    +0.220 C 
ATOM     26  O   UNL     1       2.422  -7.118   4.109  0.00  0.00    -0.275 OA
ATOM     27  N   UNL     1       3.497  -5.471   5.137  0.00  0.00    -0.285 N 
ATOM     28  H   UNL     1       3.628  -4.389   5.282  0.00  0.00    +0.155 HD
BRANCH  27  29
ATOM     29  C   UNL     1       4.351  -6.373   5.784  0.00  0.00    +0.033 A 
ATOM     30  C   UNL     1       4.830  -6.086   7.055  0.00  0.00    +0.025 A 
ATOM     31  C   UNL     1       5.668  -6.980   7.693  0.00  0.00    +0.022 A 
ATOM     32  C   UNL     1       6.039  -8.154   7.062  0.00  0.00    +0.041 A 
ATOM     33  C   UNL     1       5.567  -8.439   5.793  0.00  0.00    +0.022 A 
ATOM     34  C   UNL     1       4.724  -7.552   5.153  0.00  0.00    +0.025 A 
ATOM     35 CL   UNL     1       7.098  -9.271   7.864  0.00  0.00    -0.084 Cl
ENDBRANCH  27  29
ENDBRANCH  22  25
ENDBRANCH   1  19
TORSDOF 6
