REMARK  Name = ZINC42948225
REMARK  6 active torsions:
REMARK  status: ('A' for Active; 'I' for Inactive)
REMARK    1  A    between atoms: C_1  and  C_2
REMARK    2  A    between atoms: C_2  and  C_4
REMARK    3  A    between atoms: C_2  and  N_17
REMARK    4  A    between atoms: C_7  and  N_10
REMARK    5  A    between atoms: N_13  and  C_14
REMARK    6  A    between atoms: C_23  and  C_26
REMARK                            x       y       z     vdW  Elec       q    Type
REMARK                         _______ _______ _______ _____ _____    ______ ____
ROOT
ATOM      1  C   UNL     1       0.166   1.476   0.108  0.00  0.00    +0.033 C 
ATOM      2  C   UNL     1      -0.050  -0.036   0.197  0.00  0.00    +0.102 C 
ENDROOT
BRANCH   2   3
ATOM      3  N   UNL     1      -1.486  -0.324   0.216  0.00  0.00    -0.293 N 
ATOM      4  C   UNL     1      -2.169  -0.424  -0.941  0.00  0.00    +0.303 C 
ATOM      5  O   UNL     1      -1.579  -0.367  -2.002  0.00  0.00    -0.253 OA
ATOM      6  N   UNL     1      -3.507  -0.590  -0.922  0.00  0.00    -0.286 N 
ATOM      7  C   UNL     1      -4.221  -0.769   0.349  0.00  0.00    +0.110 C 
ATOM      8  C   UNL     1      -5.064  -2.045   0.265  0.00  0.00    +0.032 C 
ATOM      9  C   UNL     1      -5.975  -1.970  -0.963  0.00  0.00    +0.078 C 
ATOM     10  C   UNL     1      -5.121  -1.870  -2.229  0.00  0.00    +0.032 C 
ATOM     11  C   UNL     1      -4.279  -0.587  -2.172  0.00  0.00    +0.110 C 
ATOM     12  H   UNL     1      -1.946  -0.442   1.062  0.00  0.00    +0.151 HD
BRANCH   9  13
ATOM     13  C   UNL     1      -6.831  -3.208  -1.030  0.00  0.00    +0.214 C 
ATOM     14  O   UNL     1      -6.723  -4.067  -0.181  0.00  0.00    -0.276 OA
ATOM     15  N   UNL     1      -7.716  -3.362  -2.035  0.00  0.00    -0.329 N 
ATOM     16  H   UNL     1      -7.803  -2.675  -2.715  0.00  0.00    +0.145 HD
ATOM     17  H   UNL     1      -8.267  -4.159  -2.078  0.00  0.00    +0.145 HD
ENDBRANCH   9  13
ENDBRANCH   2   3
BRANCH   2  18
ATOM     18  C   UNL     1       0.585  -0.561   1.459  0.00  0.00    -0.027 A 
ATOM     19  C   UNL     1      -0.076  -0.435   2.667  0.00  0.00    +0.007 A 
ATOM     20  C   UNL     1       0.503  -0.915   3.826  0.00  0.00    +0.023 A 
ATOM     21  C   UNL     1       1.750  -1.524   3.776  0.00  0.00    +0.035 A 
ATOM     22  C   UNL     1       2.411  -1.649   2.561  0.00  0.00    +0.023 A 
ATOM     23  C   UNL     1       1.824  -1.172   1.405  0.00  0.00    +0.007 A 
BRANCH  21  24
ATOM     24  N   UNL     1       2.340  -2.011   4.948  0.00  0.00    -0.269 N 
ATOM     25  C   UNL     1       1.568  -2.514   5.932  0.00  0.00    +0.304 C 
ATOM     26  O   UNL     1       0.370  -2.632   5.765  0.00  0.00    -0.253 OA
ATOM     27  N   UNL     1       2.125  -2.887   7.101  0.00  0.00    -0.296 N 
ATOM     28  H   UNL     1       3.304  -1.987   5.052  0.00  0.00    +0.156 HD
ATOM     29  H   UNL     1       3.081  -2.793   7.235  0.00  0.00    +0.151 HD
BRANCH  27  30
ATOM     30  C   UNL     1       1.286  -3.433   8.171  0.00  0.00    +0.075 C 
ATOM     31  C   UNL     1       1.544  -2.936   9.595  0.00  0.00    +0.024 C 
ATOM     32  C   UNL     1       1.956  -4.353   9.194  0.00  0.00    +0.024 C 
ENDBRANCH  27  30
ENDBRANCH  21  24
ENDBRANCH   2  18
TORSDOF 5
