REMARK  Name = ZINC39154565
REMARK  7 active torsions:
REMARK  status: ('A' for Active; 'I' for Inactive)
REMARK    1  A    between atoms: C_4  and  C_7
REMARK    2  A    between atoms: C_9  and  C_28
REMARK    3  A    between atoms: C_12  and  S_14
REMARK    4  A    between atoms: S_14  and  C_15
REMARK    5  A    between atoms: C_15  and  C_16
REMARK    6  A    between atoms: N_18  and  C_19
REMARK    7  A    between atoms: C_22  and  C_24
REMARK                            x       y       z     vdW  Elec       q    Type
REMARK                         _______ _______ _______ _____ _____    ______ ____
ROOT
ATOM      1  C   UNL     1       3.711  -0.707  -0.038  0.00  0.00    +0.131 C 
ATOM      2  C   UNL     1       4.021  -1.233  -1.453  0.00  0.00    +0.162 C 
ATOM      3  N   UNL     1       4.080  -2.692  -1.286  0.00  0.00    -0.253 NA
ATOM      4  C   UNL     1       3.857  -3.007  -0.051  0.00  0.00    +0.151 C 
ATOM      5  N   UNL     1       3.631  -1.933   0.773  0.00  0.00    -0.315 N 
ATOM      6  H   UNL     1       3.449  -1.974   1.725  0.00  0.00    +0.149 HD
ENDROOT
BRANCH   1  10
ATOM      7  C   UNL     1      -0.017   1.378   0.010  0.00  0.00    +0.000 A 
ATOM      8  C   UNL     1       1.171   2.086   0.002  0.00  0.00    +0.000 A 
ATOM      9  C   UNL     1       2.377   1.411  -0.013  0.00  0.00    +0.005 A 
ATOM     10  C   UNL     1       2.396   0.029  -0.020  0.00  0.00    -0.025 A 
ATOM     11  C   UNL     1       1.208  -0.679  -0.012  0.00  0.00    +0.005 A 
ATOM     12  C   UNL     1       0.002  -0.004   0.002  0.00  0.00    +0.000 A 
ENDBRANCH   1  10
BRANCH   2  13
ATOM     13  C   UNL     1       5.346  -0.700  -1.936  0.00  0.00    -0.021 A 
ATOM     14  C   UNL     1       6.523  -1.291  -1.516  0.00  0.00    +0.006 A 
ATOM     15  C   UNL     1       7.738  -0.802  -1.960  0.00  0.00    +0.000 A 
ATOM     16  C   UNL     1       7.775   0.277  -2.823  0.00  0.00    +0.000 A 
ATOM     17  C   UNL     1       6.598   0.867  -3.243  0.00  0.00    +0.000 A 
ATOM     18  C   UNL     1       5.383   0.375  -2.804  0.00  0.00    +0.006 A 
ENDBRANCH   2  13
BRANCH   4  19
ATOM     19  S   UNL     1       3.848  -4.672   0.525  0.00  0.00    -0.082 S 
BRANCH  19  20
ATOM     20  C   UNL     1       4.201  -5.652  -0.961  0.00  0.00    +0.173 C 
BRANCH  20  21
ATOM     21  C   UNL     1       4.222  -7.116  -0.603  0.00  0.00    +0.228 C 
ATOM     22  O   UNL     1       4.019  -7.464   0.541  0.00  0.00    -0.275 OA
ATOM     23  N   UNL     1       4.466  -8.039  -1.555  0.00  0.00    -0.279 N 
ATOM     24  H   UNL     1       4.628  -7.760  -2.470  0.00  0.00    +0.155 HD
BRANCH  23  25
ATOM     25  C   UNL     1       4.486  -9.396  -1.224  0.00  0.00    +0.072 A 
ATOM     26  C   UNL     1       4.716 -10.472  -2.027  0.00  0.00    +0.032 A 
ATOM     27  C   UNL     1       4.684 -11.738  -1.471  0.00  0.00    +0.022 A 
ATOM     28  C   UNL     1       4.426 -11.869  -0.147  0.00  0.00    +0.094 A 
ATOM     29  S   UNL     1       4.223 -10.170   0.363  0.00  0.00    -0.070 S 
BRANCH  28  30
ATOM     30  C   UNL     1       4.338 -13.124   0.681  0.00  0.00    +0.424 C 
ATOM     31  F   UNL     1       5.602 -13.431   1.198  0.00  0.00    -0.165 F 
ATOM     32  F   UNL     1       3.439 -12.926   1.735  0.00  0.00    -0.165 F 
ATOM     33  F   UNL     1       3.892 -14.181  -0.119  0.00  0.00    -0.165 F 
ENDBRANCH  28  30
ENDBRANCH  23  25
ENDBRANCH  20  21
ENDBRANCH  19  20
ENDBRANCH   4  19
TORSDOF 7
