REMARK  Name = ZINC09227117
REMARK  8 active torsions:
REMARK  status: ('A' for Active; 'I' for Inactive)
REMARK    1  A    between atoms: C_1  and  C_2
REMARK    2  A    between atoms: C_2  and  C_3
REMARK    3  A    between atoms: C_3  and  C_4
REMARK    4  A    between atoms: N_6  and  C_7
REMARK    5  A    between atoms: C_12  and  N_13
REMARK    6  A    between atoms: C_14  and  C_16
REMARK    7  A    between atoms: N_19  and  S_22
REMARK    8  A    between atoms: S_22  and  C_25
REMARK                            x       y       z     vdW  Elec       q    Type
REMARK                         _______ _______ _______ _____ _____    ______ ____
ROOT
ATOM      1  C   UNL     1      -3.054   3.031  -2.737  0.00  0.00    +0.078 C 
ATOM      2  C   UNL     1      -2.069   3.925  -1.980  0.00  0.00    +0.030 C 
ATOM      3  C   UNL     1      -0.718   3.212  -1.872  0.00  0.00    +0.110 C 
ATOM      4  N   UNL     1      -0.928   1.892  -1.261  0.00  0.00    -0.177 NA
ATOM      5  C   UNL     1      -1.916   0.985  -1.861  0.00  0.00    +0.110 C 
ATOM      6  C   UNL     1      -3.258   1.726  -1.966  0.00  0.00    +0.030 C 
ENDROOT
BRANCH   1   8
ATOM      7  N   UNL     1      -5.401   3.145  -3.512  0.00  0.00    -0.284 N 
ATOM      8  C   UNL     1      -4.375   3.744  -2.876  0.00  0.00    +0.220 C 
ATOM      9  O   UNL     1      -4.515   4.857  -2.414  0.00  0.00    -0.275 OA
ATOM     10  H   UNL     1      -5.267   2.290  -3.950  0.00  0.00    +0.155 HD
BRANCH   7  16
ATOM     11  C   UNL     1      -7.556   3.467  -4.569  0.00  0.00    +0.055 A 
ATOM     12  C   UNL     1      -8.803   4.072  -4.588  0.00  0.00    +0.025 A 
ATOM     13  C   UNL     1      -9.153   4.967  -3.595  0.00  0.00    +0.002 A 
ATOM     14  C   UNL     1      -8.263   5.258  -2.576  0.00  0.00    +0.002 A 
ATOM     15  C   UNL     1      -7.020   4.656  -2.547  0.00  0.00    +0.025 A 
ATOM     16  C   UNL     1      -6.661   3.756  -3.540  0.00  0.00    +0.055 A 
BRANCH  11  19
ATOM     17  C   UNL     1      -8.153   1.899  -6.258  0.00  0.00    +0.217 C 
ATOM     18  O   UNL     1      -9.316   2.006  -5.930  0.00  0.00    -0.275 OA
ATOM     19  N   UNL     1      -7.197   2.564  -5.578  0.00  0.00    -0.284 N 
ATOM     20  H   UNL     1      -6.262   2.417  -5.788  0.00  0.00    +0.155 HD
BRANCH  17  21
ATOM     21  C   UNL     1      -7.776   1.024  -7.425  0.00  0.00    +0.096 C 
BRANCH  21  23
ATOM     22  C   UNL     1      -8.655  -0.499  -9.200  0.00  0.00    +0.004 C 
ATOM     23  C   UNL     1      -9.037   0.390  -8.015  0.00  0.00    +0.006 C 
ENDBRANCH  21  23
ENDBRANCH  17  21
ENDBRANCH  11  19
ENDBRANCH   7  16
ENDBRANCH   1   8
BRANCH   4  24
ATOM     24  S   UNL     1      -0.061   1.433   0.073  0.00  0.00    +0.061 S 
ATOM     25  O   UNL     1      -0.051   0.012   0.082  0.00  0.00    -0.153 OA
ATOM     26  O   UNL     1       1.133   2.203   0.066  0.00  0.00    -0.153 OA
BRANCH  24  27
ATOM     27  C   UNL     1      -0.979   1.939   1.490  0.00  0.00    +0.106 A 
ATOM     28  C   UNL     1      -0.755   3.201   2.037  0.00  0.00    +0.029 A 
ATOM     29  C   UNL     1      -1.451   3.624   3.128  0.00  0.00    +0.010 A 
ATOM     30  C   UNL     1      -2.401   2.775   3.720  0.00  0.00    -0.018 A 
ATOM     31  C   UNL     1      -3.134   3.175   4.850  0.00  0.00    +0.008 A 
ATOM     32  C   UNL     1      -4.046   2.325   5.396  0.00  0.00    +0.001 A 
ATOM     33  C   UNL     1      -4.266   1.061   4.852  0.00  0.00    +0.001 A 
ATOM     34  C   UNL     1      -3.575   0.640   3.758  0.00  0.00    +0.008 A 
ATOM     35  C   UNL     1      -2.624   1.489   3.166  0.00  0.00    -0.016 A 
ATOM     36  C   UNL     1      -1.891   1.089   2.035  0.00  0.00    +0.037 A 
ENDBRANCH  24  27
ENDBRANCH   4  24
TORSDOF 7
