REMARK  Name = ZINC12567240
REMARK  10 active torsions:
REMARK  status: ('A' for Active; 'I' for Inactive)
REMARK    1  A    between atoms: C_3  and  N_34
REMARK    2  A    between atoms: C_5  and  O_7
REMARK    3  A    between atoms: O_7  and  C_8
REMARK    4  A    between atoms: C_8  and  C_9
REMARK    5  A    between atoms: C_9  and  C_11
REMARK    6  A    between atoms: C_9  and  O_33
REMARK    7  A    between atoms: C_11  and  N_12
REMARK    8  A    between atoms: N_15  and  C_18
REMARK    9  A    between atoms: C_18  and  C_19
REMARK   10  A    between atoms: C_18  and  C_26
REMARK                            x       y       z     vdW  Elec       q    Type
REMARK                         _______ _______ _______ _____ _____    ______ ____
ROOT
ATOM      1  N   UNL     1      -0.151   0.563  -2.376  0.00  0.00    -0.303 NA
ATOM      2  C   UNL     1      -1.521   0.034  -2.429  0.00  0.00    +0.066 C 
ATOM      3  C   UNL     1      -2.168   0.434  -3.757  0.00  0.00    -0.062 C 
ATOM      4  N   UNL     1      -1.361  -0.088  -4.869  0.00  0.00    +0.389 N 
ATOM      5  C   UNL     1       0.008   0.441  -4.816  0.00  0.00    -0.062 C 
ATOM      6  C   UNL     1       0.656   0.041  -3.488  0.00  0.00    +0.066 C 
ATOM      7  H   UNL     1      -1.307  -1.182  -4.765  0.00  0.00    -0.080 HD
ENDROOT
BRANCH   1   8
ATOM      8  C   UNL     1       0.479   0.264  -1.083  0.00  0.00    +0.119 C 
BRANCH   8   9
ATOM      9  C   UNL     1      -0.246   1.028   0.027  0.00  0.00    +0.166 C 
BRANCH   9  10
ATOM     10  O   UNL     1      -0.164   2.431  -0.230  0.00  0.00    -0.387 OA
ATOM     11  H   UNL     1      -0.585   2.846  -1.157  0.00  0.00    +0.210 HD
ENDBRANCH   9  10
BRANCH   9  12
ATOM     12  C   UNL     1       0.410   0.716   1.373  0.00  0.00    +0.261 C 
BRANCH  12  13
ATOM     13  O   UNL     1      -0.337   1.336   2.422  0.00  0.00    -0.489 OA
BRANCH  13  18
ATOM     14  C   UNL     1       1.713   0.219   5.213  0.00  0.00    +0.006 A 
ATOM     15  C   UNL     1       1.037   0.792   6.274  0.00  0.00    +0.033 A 
ATOM     16  C   UNL     1      -0.099   1.547   6.046  0.00  0.00    +0.130 A 
ATOM     17  C   UNL     1      -0.558   1.735   4.757  0.00  0.00    +0.078 A 
ATOM     18  C   UNL     1       0.116   1.157   3.691  0.00  0.00    +0.123 A 
ATOM     19  C   UNL     1       1.255   0.399   3.922  0.00  0.00    +0.046 A 
BRANCH  16  20
ATOM     20  N   UNL     1      -0.820   2.160   7.184  0.00  0.00    +0.057 N 
ATOM     21  O   UNL     1      -0.413   1.998   8.321  0.00  0.00    -0.126 OA
ATOM     22  O   UNL     1      -1.820   2.825   6.985  0.00  0.00    -0.126 OA
ENDBRANCH  16  20
ENDBRANCH  13  18
ENDBRANCH  12  13
ENDBRANCH   9  12
ENDBRANCH   8   9
ENDBRANCH   1   8
BRANCH   4  23
ATOM     23  C   UNL     1      -1.992   0.211  -6.162  0.00  0.00    -0.007 C 
BRANCH  23  24
ATOM     24  C   UNL     1      -1.228  -0.477  -7.264  0.00  0.00    -0.057 A 
ATOM     25  C   UNL     1      -0.811  -1.785  -7.102  0.00  0.00    +0.005 A 
ATOM     26  C   UNL     1      -0.115  -2.418  -8.114  0.00  0.00    +0.038 A 
ATOM     27  C   UNL     1       0.174  -1.739  -9.286  0.00  0.00    +0.123 A 
ATOM     28  C   UNL     1      -0.240  -0.428  -9.444  0.00  0.00    +0.038 A 
ATOM     29  C   UNL     1      -0.941   0.202  -8.433  0.00  0.00    +0.005 A 
ATOM     30  F   UNL     1       0.859  -2.356 -10.274  0.00  0.00    -0.205 F 
ENDBRANCH  23  24
BRANCH  23  31
ATOM     31  C   UNL     1      -3.415  -0.283  -6.153  0.00  0.00    -0.057 A 
ATOM     32  C   UNL     1      -3.706  -1.543  -5.665  0.00  0.00    +0.005 A 
ATOM     33  C   UNL     1      -5.012  -1.995  -5.652  0.00  0.00    +0.038 A 
ATOM     34  C   UNL     1      -6.028  -1.190  -6.138  0.00  0.00    +0.123 A 
ATOM     35  C   UNL     1      -5.735   0.071  -6.631  0.00  0.00    +0.038 A 
ATOM     36  C   UNL     1      -4.429   0.523  -6.638  0.00  0.00    +0.005 A 
ATOM     37  F   UNL     1      -7.304  -1.632  -6.130  0.00  0.00    -0.205 F 
ENDBRANCH  23  31
ENDBRANCH   4  23
TORSDOF 10
