REMARK  Name = ZINC66745111
REMARK  9 active torsions:
REMARK  status: ('A' for Active; 'I' for Inactive)
REMARK    1  A    between atoms: C_1  and  C_2
REMARK    2  A    between atoms: C_2  and  C_3
REMARK    3  A    between atoms: C_2  and  C_4
REMARK    4  A    between atoms: C_2  and  N_7
REMARK    5  A    between atoms: C_4  and  O_5
REMARK    6  A    between atoms: O_5  and  C_6
REMARK    7  A    between atoms: C_8  and  C_10
REMARK    8  A    between atoms: N_13  and  S_16
REMARK    9  A    between atoms: S_16  and  C_19
REMARK                            x       y       z     vdW  Elec       q    Type
REMARK                         _______ _______ _______ _____ _____    ______ ____
ROOT
ATOM      1  C   UNL     1       2.677  -0.618  -2.667  0.00  0.00    +0.077 C 
ATOM      2  C   UNL     1       2.696  -2.148  -2.676  0.00  0.00    +0.030 C 
ATOM      3  C   UNL     1       3.383  -2.639  -3.954  0.00  0.00    +0.110 C 
ATOM      4  N   UNL     1       4.712  -2.018  -4.045  0.00  0.00    -0.176 NA
ATOM      5  C   UNL     1       4.816  -0.556  -3.956  0.00  0.00    +0.110 C 
ATOM      6  C   UNL     1       4.113  -0.088  -2.678  0.00  0.00    +0.030 C 
ENDROOT
BRANCH   1   8
ATOM      7  N   UNL     1       0.688  -0.476  -1.203  0.00  0.00    -0.308 N 
ATOM      8  C   UNL     1       1.972  -0.132  -1.427  0.00  0.00    +0.217 C 
ATOM      9  O   UNL     1       2.559   0.569  -0.630  0.00  0.00    -0.275 OA
ATOM     10  H   UNL     1       0.218  -1.037  -1.840  0.00  0.00    +0.149 HD
BRANCH   7  12
ATOM     11  C   UNL     1      -0.019   1.526   0.010  0.00  0.00    +0.033 C 
ATOM     12  C   UNL     1       0.002  -0.004   0.002  0.00  0.00    +0.052 C 
ATOM     13  C   UNL     1       0.742  -0.511   1.242  0.00  0.00    +0.033 C 
BRANCH  12  14
ATOM     14  C   UNL     1      -1.433  -0.534   0.013  0.00  0.00    +0.184 C 
BRANCH  14  15
ATOM     15  O   UNL     1      -2.102  -0.073   1.189  0.00  0.00    -0.381 OA
ATOM     16  C   UNL     1      -3.457  -0.513   1.297  0.00  0.00    +0.194 C 
ENDBRANCH  14  15
ENDBRANCH  12  14
ENDBRANCH   7  12
ENDBRANCH   1   8
BRANCH   4  17
ATOM     17  S   UNL     1       6.066  -2.950  -4.244  0.00  0.00    +0.067 S 
ATOM     18  O   UNL     1       7.159  -2.189  -3.747  0.00  0.00    -0.152 OA
ATOM     19  O   UNL     1       5.748  -4.242  -3.744  0.00  0.00    -0.152 OA
BRANCH  17  20
ATOM     20  C   UNL     1       6.325  -3.130  -5.977  0.00  0.00    +0.143 A 
ATOM     21  C   UNL     1       7.052  -2.353  -6.817  0.00  0.00    +0.036 A 
ATOM     22  C   UNL     1       7.115  -2.689  -8.156  0.00  0.00    +0.010 A 
ATOM     23  C   UNL     1       6.449  -3.787  -8.590  0.00  0.00    +0.047 A 
ATOM     24  S   UNL     1       5.705  -4.388  -7.082  0.00  0.00    -0.077 S 
ENDBRANCH  17  20
ENDBRANCH   4  17
TORSDOF 6
