REMARK  Name = ZINC35129668
REMARK  14 active torsions:
REMARK  status: ('A' for Active; 'I' for Inactive)
REMARK    1  A    between atoms: C_1  and  C_2
REMARK    2  A    between atoms: C_7  and  N_8
REMARK    3  A    between atoms: C_9  and  C_34
REMARK    4  A    between atoms: C_12  and  S_13
REMARK    5  A    between atoms: S_13  and  C_14
REMARK    6  A    between atoms: C_14  and  C_15
REMARK    7  A    between atoms: C_15  and  C_16
REMARK    8  A    between atoms: C_16  and  C_17
REMARK    9  A    between atoms: C_23  and  C_26
REMARK   10  A    between atoms: C_27  and  C_29
REMARK   11  A    between atoms: C_29  and  C_30
REMARK   12  A    between atoms: C_30  and  C_31
REMARK   13  A    between atoms: C_30  and  C_32
REMARK   14  A    between atoms: C_30  and  C_33
REMARK                            x       y       z     vdW  Elec       q    Type
REMARK                         _______ _______ _______ _____ _____    ______ ____
ROOT
ATOM      1  C   UNL     1       3.726   0.972   4.032  0.00  0.00    +0.078 C 
ENDROOT
BRANCH   1   2
ATOM      2  S   UNL     1       2.806   0.187   2.680  0.00  0.00    -0.086 S 
BRANCH   2   7
ATOM      3  N   UNL     1       0.025  -0.013   2.419  0.00  0.00    -0.268 N 
ATOM      4  C   UNL     1      -1.072   0.379   3.158  0.00  0.00    +0.205 A 
ATOM      5  N   UNL     1      -0.615   0.997   4.225  0.00  0.00    -0.125 NA
ATOM      6  N   UNL     1       0.670   1.017   4.205  0.00  0.00    -0.122 NA
ATOM      7  C   UNL     1       1.117   0.410   3.129  0.00  0.00    +0.196 A 
BRANCH   3  14
ATOM      8  C   UNL     1      -0.018   1.503   0.010  0.00  0.00    +0.046 C 
ATOM      9  C   UNL     1       0.002  -0.004   0.002  0.00  0.00    -0.026 A 
ATOM     10  C   UNL     1       0.006  -0.689  -1.198  0.00  0.00    +0.005 A 
ATOM     11  C   UNL     1       0.024  -2.071  -1.206  0.00  0.00    +0.000 A 
ATOM     12  C   UNL     1       0.040  -2.773  -0.014  0.00  0.00    +0.002 A 
ATOM     13  C   UNL     1       0.035  -2.094   1.188  0.00  0.00    +0.026 A 
ATOM     14  C   UNL     1       0.023  -0.705   1.200  0.00  0.00    +0.053 A 
ENDBRANCH   3  14
BRANCH   4  15
ATOM     15  C   UNL     1      -2.484   0.150   2.816  0.00  0.00    +0.172 A 
ATOM     16  C   UNL     1      -3.544   0.282   3.663  0.00  0.00    +0.053 A 
ATOM     17  C   UNL     1      -4.698  -0.033   2.920  0.00  0.00    +0.042 A 
ATOM     18  C   UNL     1      -4.294  -0.338   1.671  0.00  0.00    +0.196 A 
ATOM     19  O   UNL     1      -2.957  -0.221   1.610  0.00  0.00    -0.460 OA
ENDBRANCH   4  15
ENDBRANCH   2   7
ENDBRANCH   1   2
BRANCH   1  20
ATOM     20  C   UNL     1       5.228   0.848   3.766  0.00  0.00    +0.020 C 
BRANCH  20  21
ATOM     21  C   UNL     1       6.004   1.510   4.907  0.00  0.00    +0.097 C 
BRANCH  21  22
ATOM     22  C   UNL     1       7.483   1.389   4.644  0.00  0.00    +0.216 C 
ATOM     23  O   UNL     1       7.877   0.828   3.644  0.00  0.00    -0.276 OA
ATOM     24  N   UNL     1       8.367   1.903   5.522  0.00  0.00    -0.298 N 
ATOM     25  C   UNL     1       7.904   2.580   6.741  0.00  0.00    +0.127 C 
ATOM     26  C   UNL     1       8.513   3.987   6.782  0.00  0.00    +0.127 C 
ATOM     27  N   UNL     1       9.958   3.881   6.537  0.00  0.00    -0.296 N 
ATOM     28  C   UNL     1      10.421   3.204   5.317  0.00  0.00    +0.090 C 
ATOM     29  C   UNL     1       9.813   1.792   5.279  0.00  0.00    +0.130 C 
ATOM     30  C   UNL     1       9.973   3.997   4.088  0.00  0.00    +0.029 C 
ATOM     31  C   UNL     1      10.842   4.395   7.414  0.00  0.00    +0.216 C 
ATOM     32  O   UNL     1      12.033   4.301   7.201  0.00  0.00    -0.276 OA
BRANCH  31  33
ATOM     33  C   UNL     1      10.352   5.087   8.660  0.00  0.00    +0.102 C 
BRANCH  33  34
ATOM     34  C   UNL     1      11.550   5.574   9.477  0.00  0.00    -0.029 C 
ATOM     35  C   UNL     1      12.374   6.555   8.640  0.00  0.00    +0.011 C 
ATOM     36  C   UNL     1      11.053   6.277  10.742  0.00  0.00    +0.011 C 
ATOM     37  C   UNL     1      12.422   4.379   9.867  0.00  0.00    +0.011 C 
ENDBRANCH  33  34
ENDBRANCH  31  33
ENDBRANCH  21  22
ENDBRANCH  20  21
ENDBRANCH   1  20
TORSDOF 9
