REMARK  Name = ZINC67425175
REMARK  3 active torsions:
REMARK  status: ('A' for Active; 'I' for Inactive)
REMARK    1  A    between atoms: C_1  and  C_2
REMARK    2  A    between atoms: C_3  and  C_8
REMARK    3  A    between atoms: C_5  and  C_7
REMARK                            x       y       z     vdW  Elec       q    Type
REMARK                         _______ _______ _______ _____ _____    ______ ____
ROOT
ATOM      1  C   UNL     1      -0.018   1.503   0.010  0.00  0.00    +0.053 C 
ATOM      2  C   UNL     1       0.002  -0.004   0.002  0.00  0.00    +0.011 A 
ATOM      3  C   UNL     1      -1.031  -0.885   0.002  0.00  0.00    +0.066 A 
ATOM      4  N   UNL     1      -0.723  -2.167  -0.007  0.00  0.00    -0.248 NA
ATOM      5  C   UNL     1       0.524  -2.568  -0.014  0.00  0.00    +0.076 A 
ATOM      6  S   UNL     1       1.391  -1.126  -0.018  0.00  0.00    -0.077 S 
ATOM      7  C   UNL     1       1.053  -3.979  -0.024  0.00  0.00    +0.073 C 
ENDROOT
BRANCH   3   8
ATOM      8  C   UNL     1      -2.464  -0.419   0.011  0.00  0.00    +0.164 C 
ATOM      9 CL   UNL     1      -3.043  -0.224  -1.686  0.00  0.00    -0.119 Cl
ENDBRANCH   3   8
TORSDOF 1
