REMARK  Name = ZINC29035941
REMARK  13 active torsions:
REMARK  status: ('A' for Active; 'I' for Inactive)
REMARK    1  A    between atoms: C_1  and  C_2
REMARK    2  A    between atoms: C_2  and  C_3
REMARK    3  A    between atoms: C_3  and  O_4
REMARK    4  A    between atoms: O_4  and  C_5
REMARK    5  A    between atoms: C_6  and  O_27
REMARK    6  A    between atoms: C_8  and  C_12
REMARK    7  A    between atoms: C_12  and  O_14
REMARK    8  A    between atoms: O_14  and  C_15
REMARK    9  A    between atoms: C_15  and  C_17
REMARK   10  A    between atoms: C_15  and  C_18
REMARK   11  A    between atoms: N_20  and  C_21
REMARK   12  A    between atoms: C_23  and  C_26
REMARK   13  A    between atoms: O_27  and  C_28
REMARK                            x       y       z     vdW  Elec       q    Type
REMARK                         _______ _______ _______ _____ _____    ______ ____
ROOT
ATOM      1  C   UNL     1       4.693   1.504  -0.635  0.00  0.00    +0.340 C 
ATOM      2  O   UNL     1       4.773   0.407  -1.151  0.00  0.00    -0.245 OA
ENDROOT
BRANCH   1   6
ATOM      3  C   UNL     1       8.004   4.164  -0.760  0.00  0.00    +0.176 A 
ATOM      4  C   UNL     1       8.101   2.906  -1.353  0.00  0.00    +0.163 A 
ATOM      5  C   UNL     1       7.028   2.038  -1.310  0.00  0.00    +0.064 A 
ATOM      6  C   UNL     1       5.843   2.426  -0.680  0.00  0.00    +0.064 A 
ATOM      7  C   UNL     1       5.752   3.688  -0.086  0.00  0.00    +0.034 A 
ATOM      8  C   UNL     1       6.828   4.549  -0.129  0.00  0.00    +0.064 A 
ATOM      9 BR   UNL     1       6.703   6.256   0.674  0.00  0.00    -0.046 Br
BRANCH   4  10
ATOM     10  O   UNL     1       9.254   2.533  -1.970  0.00  0.00    -0.491 OA
ATOM     11  C   UNL     1       9.284   1.230  -2.557  0.00  0.00    +0.277 C 
ENDBRANCH   4  10
BRANCH   3  12
ATOM     12  O   UNL     1       9.062   5.015  -0.799  0.00  0.00    -0.487 OA
BRANCH  12  13
ATOM     13  C   UNL     1       9.997   4.938   0.279  0.00  0.00    +0.229 C 
BRANCH  13  15
ATOM     14  C   UNL     1      12.112   5.882   1.216  0.00  0.00    +0.007 C 
ATOM     15  C   UNL     1      11.111   5.965   0.062  0.00  0.00    +0.038 C 
ENDBRANCH  13  15
ENDBRANCH  12  13
ENDBRANCH   3  12
ENDBRANCH   1   6
BRANCH   1  16
ATOM     16  O   UNL     1       3.553   1.878  -0.022  0.00  0.00    -0.449 OA
BRANCH  16  17
ATOM     17  C   UNL     1       2.462   0.920  -0.017  0.00  0.00    +0.259 C 
ATOM     18  C   UNL     1       2.567   0.035   1.227  0.00  0.00    +0.062 C 
BRANCH  17  19
ATOM     19  C   UNL     1       1.147   1.655   0.000  0.00  0.00    +0.260 C 
ATOM     20  O   UNL     1       1.130   2.868   0.007  0.00  0.00    -0.271 OA
ATOM     21  N   UNL     1      -0.011   0.966   0.007  0.00  0.00    -0.251 N 
ATOM     22  H   UNL     1       0.004  -0.134   0.006  0.00  0.00    +0.158 HD
BRANCH  21  23
ATOM     23  C   UNL     1      -1.222   1.643   0.017  0.00  0.00    +0.224 A 
ATOM     24  C   UNL     1      -2.470   1.090   0.020  0.00  0.00    +0.092 A 
ATOM     25  C   UNL     1      -3.334   2.203   0.030  0.00  0.00    +0.082 A 
ATOM     26  N   UNL     1      -2.575   3.263   0.032  0.00  0.00    -0.081 NA
ATOM     27  O   UNL     1      -1.401   2.974   0.031  0.00  0.00    -0.339 OA
ATOM     28  C   UNL     1      -4.841   2.175   0.037  0.00  0.00    +0.069 C 
ENDBRANCH  21  23
ENDBRANCH  17  19
ENDBRANCH  16  17
ENDBRANCH   1  16
TORSDOF 9
