REMARK  Name = ZINC11718596
REMARK  7 active torsions:
REMARK  status: ('A' for Active; 'I' for Inactive)
REMARK    1  A    between atoms: C_1  and  C_2
REMARK    2  A    between atoms: C_2  and  C_4
REMARK    3  A    between atoms: C_2  and  N_49
REMARK    4  A    between atoms: N_6  and  C_7
REMARK    5  A    between atoms: C_16  and  N_19
REMARK    6  A    between atoms: N_19  and  S_20
REMARK    7  A    between atoms: S_20  and  C_23
REMARK                            x       y       z     vdW  Elec       q    Type
REMARK                         _______ _______ _______ _____ _____    ______ ____
ROOT
ATOM      1  C   UNL     1       4.508  -4.299   1.158  0.00  0.00    -0.076 C 
ATOM      2  C   UNL     1       5.989  -4.663   1.029  0.00  0.00    +0.002 C 
ATOM      3  C   UNL     1       6.135  -6.187   1.015  0.00  0.00    +0.073 C 
ATOM      4  C   UNL     1       5.310  -6.761  -0.140  0.00  0.00    +0.002 C 
ATOM      5  C   UNL     1       3.849  -6.336   0.023  0.00  0.00    -0.076 C 
ATOM      6  N   UNL     1       3.774  -4.859   0.004  0.00  0.00    +0.387 N 
ATOM      7  H   UNL     1       4.203  -4.515  -0.863  0.00  0.00    -0.081 HD
ENDROOT
BRANCH   6   9
ATOM      8  C   UNL     1       2.313  -2.897   0.106  0.00  0.00    -0.004 C 
ATOM      9  C   UNL     1       2.362  -4.425   0.045  0.00  0.00    +0.016 C 
BRANCH   9  10
ATOM     10  C   UNL     1       1.670  -4.901  -1.206  0.00  0.00    +0.203 C 
ATOM     11  O   UNL     1       2.315  -5.127  -2.207  0.00  0.00    -0.277 OA
ATOM     12  N   UNL     1       0.334  -5.076  -1.211  0.00  0.00    -0.287 N 
ATOM     13  H   UNL     1      -0.191  -4.828  -0.434  0.00  0.00    +0.155 HD
BRANCH  12  14
ATOM     14  C   UNL     1      -0.297  -5.615  -2.339  0.00  0.00    +0.033 A 
ATOM     15  C   UNL     1      -1.394  -6.454  -2.188  0.00  0.00    +0.026 A 
ATOM     16  C   UNL     1      -2.014  -6.985  -3.302  0.00  0.00    +0.040 A 
ATOM     17  C   UNL     1      -1.543  -6.682  -4.569  0.00  0.00    +0.124 A 
ATOM     18  C   UNL     1      -0.450  -5.846  -4.721  0.00  0.00    +0.040 A 
ATOM     19  C   UNL     1       0.173  -5.313  -3.610  0.00  0.00    +0.026 A 
ATOM     20  F   UNL     1      -2.152  -7.203  -5.657  0.00  0.00    -0.205 F 
ENDBRANCH  12  14
ENDBRANCH   9  10
ENDBRANCH   6   9
BRANCH   3  21
ATOM     21  N   UNL     1       7.545  -6.542   0.833  0.00  0.00    -0.187 NA
ATOM     22  H   UNL     1       7.923  -6.587  -0.059  0.00  0.00    +0.148 HD
BRANCH  21  23
ATOM     23  S   UNL     1       8.494  -6.867   2.151  0.00  0.00    +0.065 S 
ATOM     24  O   UNL     1       9.782  -7.199   1.652  0.00  0.00    -0.153 OA
ATOM     25  O   UNL     1       8.285  -5.806   3.073  0.00  0.00    -0.153 OA
BRANCH  23  26
ATOM     26  C   UNL     1       7.855  -8.325   2.906  0.00  0.00    +0.142 A 
ATOM     27  C   UNL     1       8.178  -9.620   2.671  0.00  0.00    +0.036 A 
ATOM     28  C   UNL     1       7.541 -10.612   3.392  0.00  0.00    +0.010 A 
ATOM     29  C   UNL     1       6.611 -10.260   4.313  0.00  0.00    +0.047 A 
ATOM     30  S   UNL     1       6.619  -8.479   4.185  0.00  0.00    -0.077 S 
ENDBRANCH  23  26
ENDBRANCH  21  23
ENDBRANCH   3  21
TORSDOF 6
