REMARK  Name = ZINC15672927
REMARK  12 active torsions:
REMARK  status: ('A' for Active; 'I' for Inactive)
REMARK    1  A    between atoms: C_1  and  C_2
REMARK    2  A    between atoms: C_2  and  C_3
REMARK    3  A    between atoms: C_3  and  C_4
REMARK    4  A    between atoms: C_4  and  N_76
REMARK    5  A    between atoms: C_5  and  C_6
REMARK    6  A    between atoms: C_5  and  N_76
REMARK    7  A    between atoms: C_7  and  C_8
REMARK    8  A    between atoms: C_7  and  N_76
REMARK    9  A    between atoms: C_8  and  N_9
REMARK   10  A    between atoms: C_18  and  C_19
REMARK   11  A    between atoms: C_18  and  C_20
REMARK   12  A    between atoms: N_22  and  C_23
REMARK                            x       y       z     vdW  Elec       q    Type
REMARK                         _______ _______ _______ _____ _____    ______ ____
ROOT
ATOM      1  N   UNL     1      -1.158   1.494   3.634  0.00  0.00    -0.282 N 
ATOM      2  C   UNL     1      -1.428   1.484   4.960  0.00  0.00    +0.264 C 
ATOM      3  O   UNL     1      -0.896   2.262   5.730  0.00  0.00    -0.268 OA
ATOM      4  C   UNL     1      -2.398   0.481   5.420  0.00  0.00    +0.106 A 
ATOM      5  C   UNL     1      -3.012   0.330   6.627  0.00  0.00    +0.048 A 
ATOM      6  C   UNL     1      -3.859  -0.767   6.521  0.00  0.00    +0.038 A 
ATOM      7  C   UNL     1      -3.767  -1.308   5.229  0.00  0.00    +0.057 A 
ATOM      8  N   UNL     1      -2.846  -0.519   4.564  0.00  0.00    -0.333 N 
ATOM      9  C   UNL     1      -2.353  -0.641   3.190  0.00  0.00    +0.157 C 
ATOM     10  C   UNL     1      -1.960   0.744   2.675  0.00  0.00    +0.128 C 
ATOM     11  C   UNL     1      -3.233   1.537   2.372  0.00  0.00    +0.043 C 
ATOM     12  C   UNL     1      -4.577  -2.425   4.980  0.00  0.00    +0.034 A 
ATOM     13  C   UNL     1      -5.375  -2.915   5.952  0.00  0.00    +0.048 A 
ATOM     14  S   UNL     1      -5.043  -1.819   7.320  0.00  0.00    -0.095 S 
ENDROOT
BRANCH  10  15
ATOM     15  C   UNL     1      -1.172   0.584   1.400  0.00  0.00    +0.238 C 
ATOM     16  O   UNL     1      -1.685   0.848   0.333  0.00  0.00    -0.273 OA
ATOM     17  N   UNL     1       0.102   0.149   1.446  0.00  0.00    -0.311 N 
ATOM     18  H   UNL     1       0.538   0.014   2.302  0.00  0.00    +0.149 HD
BRANCH  17  19
ATOM     19  C   UNL     1       0.829  -0.122   0.203  0.00  0.00    +0.073 C 
ATOM     20  C   UNL     1       1.446   1.177  -0.320  0.00  0.00    +0.022 C 
ATOM     21  C   UNL     1       2.514   0.849  -1.365  0.00  0.00    +0.002 C 
ATOM     22  C   UNL     1       1.836   0.453  -2.679  0.00  0.00    +0.000 C 
ATOM     23  C   UNL     1       1.286  -0.970  -2.560  0.00  0.00    +0.000 C 
ATOM     24  C   UNL     1       2.328  -1.865  -1.886  0.00  0.00    +0.000 C 
ATOM     25  C   UNL     1       1.812  -2.304  -0.514  0.00  0.00    +0.002 C 
ATOM     26  C   UNL     1       1.938  -1.141   0.473  0.00  0.00    +0.022 C 
ENDBRANCH  17  19
ENDBRANCH  10  15
BRANCH   1  27
ATOM     27  C   UNL     1      -0.024   2.282   3.147  0.00  0.00    +0.091 C 
BRANCH  27  28
ATOM     28  C   UNL     1      -0.482   3.714   2.863  0.00  0.00    -0.060 C 
BRANCH  28  29
ATOM     29  N   UNL     1       0.667   4.491   2.353  0.00  0.00    +0.381 N 
ATOM     30  H   UNL     1       1.095   3.979   1.572  0.00  0.00    -0.082 HD
BRANCH  29  31
ATOM     31  C   UNL     1       1.674   4.665   3.422  0.00  0.00    -0.082 C 
ATOM     32  C   UNL     1       2.982   5.148   2.792  0.00  0.00    -0.017 C 
ENDBRANCH  29  31
BRANCH  29  33
ATOM     33  C   UNL     1       0.211   5.811   1.869  0.00  0.00    -0.079 C 
BRANCH  33  34
ATOM     34  C   UNL     1      -0.444   5.630   0.498  0.00  0.00    -0.019 C 
BRANCH  34  36
ATOM     35  C   UNL     1      -1.439   6.822  -1.460  0.00  0.00    +0.004 C 
ATOM     36  C   UNL     1      -0.784   7.002  -0.088  0.00  0.00    -0.005 C 
ENDBRANCH  34  36
ENDBRANCH  33  34
ENDBRANCH  29  33
ENDBRANCH  28  29
ENDBRANCH  27  28
ENDBRANCH   1  27
TORSDOF 9
