REMARK  Name = ZINC61098933
REMARK  5 active torsions:
REMARK  status: ('A' for Active; 'I' for Inactive)
REMARK    1  A    between atoms: C_3  and  O_21
REMARK    2  A    between atoms: C_4  and  N_20
REMARK    3  A    between atoms: C_6  and  S_7
REMARK    4  A    between atoms: S_7  and  N_10
REMARK    5  A    between atoms: N_10  and  C_11
REMARK                            x       y       z     vdW  Elec       q    Type
REMARK                         _______ _______ _______ _____ _____    ______ ____
ROOT
ATOM      1  S   UNL     1      -0.790  -1.039  -0.450  0.00  0.00    +0.072 S 
ATOM      2  O   UNL     1      -0.731  -2.358   0.076  0.00  0.00    -0.150 OA
ATOM      3  O   UNL     1      -0.977   0.102   0.375  0.00  0.00    -0.150 OA
ENDROOT
BRANCH   1   9
ATOM      4  C   UNL     1       1.240   0.491  -1.440  0.00  0.00    +0.032 A 
ATOM      5  C   UNL     1       2.419   0.699  -2.132  0.00  0.00    +0.049 A 
ATOM      6  C   UNL     1       3.074  -0.369  -2.723  0.00  0.00    +0.137 A 
ATOM      7  C   UNL     1       2.542  -1.653  -2.617  0.00  0.00    +0.068 A 
ATOM      8  C   UNL     1       1.359  -1.854  -1.921  0.00  0.00    +0.055 A 
ATOM      9  C   UNL     1       0.712  -0.782  -1.334  0.00  0.00    +0.110 A 
BRANCH   7  10
ATOM     10  N   UNL     1       3.198  -2.736  -3.212  0.00  0.00    -0.355 N 
ATOM     11  H   UNL     1       4.025  -2.594  -3.699  0.00  0.00    +0.142 HD
ATOM     12  H   UNL     1       2.827  -3.629  -3.138  0.00  0.00    +0.142 HD
ENDBRANCH   7  10
BRANCH   6  13
ATOM     13  O   UNL     1       4.233  -0.166  -3.405  0.00  0.00    -0.505 OA
ATOM     14  H   UNL     1       5.028  -0.236  -2.859  0.00  0.00    +0.292 HD
ENDBRANCH   6  13
ENDBRANCH   1   9
BRANCH   1  15
ATOM     15  N   UNL     1      -2.020  -1.027  -1.559  0.00  0.00    -0.216 N 
ATOM     16  H   UNL     1      -2.561  -1.821  -1.693  0.00  0.00    +0.174 HD
BRANCH  15  17
ATOM     17  C   UNL     1      -2.279   0.129  -2.303  0.00  0.00    +0.054 A 
ATOM     18  C   UNL     1      -2.910   1.212  -1.706  0.00  0.00    +0.066 A 
ATOM     19  C   UNL     1      -3.165   2.355  -2.443  0.00  0.00    +0.163 A 
ATOM     20  C   UNL     1      -2.791   2.419  -3.776  0.00  0.00    +0.193 A 
ATOM     21  C   UNL     1      -2.161   1.338  -4.373  0.00  0.00    +0.163 A 
ATOM     22  C   UNL     1      -1.900   0.196  -3.637  0.00  0.00    +0.066 A 
ATOM     23  F   UNL     1      -1.797   1.402  -5.672  0.00  0.00    -0.202 F 
ATOM     24  F   UNL     1      -3.041   3.536  -4.494  0.00  0.00    -0.199 F 
ATOM     25  F   UNL     1      -3.780   3.409  -1.863  0.00  0.00    -0.202 F 
ENDBRANCH  15  17
ENDBRANCH   1  15
TORSDOF 5
