REMARK  Name = ZINC13126853
REMARK  6 active torsions:
REMARK  status: ('A' for Active; 'I' for Inactive)
REMARK    1  A    between atoms: C_1  and  C_2
REMARK    2  A    between atoms: C_2  and  C_4
REMARK    3  A    between atoms: C_2  and  N_13
REMARK    4  A    between atoms: C_14  and  C_16
REMARK    5  A    between atoms: C_16  and  N_17
REMARK    6  A    between atoms: C_19  and  C_28
REMARK                            x       y       z     vdW  Elec       q    Type
REMARK                         _______ _______ _______ _____ _____    ______ ____
ROOT
ATOM      1  N   UNL     1       2.370  10.609   2.802  0.00  0.00    -0.314 N 
ATOM      2  C   UNL     1       3.514   9.950   3.442  0.00  0.00    +0.160 C 
ATOM      3  C   UNL     1       4.398  11.024   4.090  0.00  0.00    +0.276 C 
ATOM      4  O   UNL     1       4.902  11.867   3.048  0.00  0.00    -0.476 OA
ATOM      5  C   UNL     1       4.007  12.277   2.108  0.00  0.00    +0.143 A 
ATOM      6  C   UNL     1       2.765  11.666   1.975  0.00  0.00    +0.073 A 
ATOM      7  C   UNL     1       1.883  12.112   0.997  0.00  0.00    +0.027 A 
ATOM      8  C   UNL     1       2.236  13.156   0.165  0.00  0.00    +0.002 A 
ATOM      9  C   UNL     1       3.470  13.764   0.301  0.00  0.00    +0.004 A 
ATOM     10  C   UNL     1       4.354  13.326   1.270  0.00  0.00    +0.047 A 
ENDROOT
BRANCH   3  11
ATOM     11  C   UNL     1       5.545  10.371   4.817  0.00  0.00    +0.258 C 
ATOM     12  O   UNL     1       6.674  10.473   4.385  0.00  0.00    -0.271 OA
ATOM     13  N   UNL     1       5.317   9.674   5.948  0.00  0.00    -0.298 N 
ATOM     14  C   UNL     1       3.973   9.627   6.540  0.00  0.00    +0.108 C 
ATOM     15  C   UNL     1       3.576   8.156   6.735  0.00  0.00    +0.019 C 
ATOM     16  C   UNL     1       4.652   7.448   7.562  0.00  0.00    +0.003 C 
ATOM     17  C   UNL     1       5.985   7.492   6.812  0.00  0.00    +0.019 C 
ATOM     18  C   UNL     1       6.408   8.950   6.614  0.00  0.00    +0.108 C 
ENDBRANCH   3  11
BRANCH   1  19
ATOM     19  C   UNL     1       1.551   9.640   2.062  0.00  0.00    +0.201 C 
BRANCH  19  21
ATOM     20  N   UNL     1       1.867   8.011   0.227  0.00  0.00    -0.304 N 
ATOM     21  C   UNL     1       2.377   9.016   0.967  0.00  0.00    +0.231 C 
ATOM     22  O   UNL     1       3.501   9.417   0.752  0.00  0.00    -0.274 OA
ATOM     23  H   UNL     1       0.968   7.690   0.400  0.00  0.00    +0.149 HD
BRANCH  20  25
ATOM     24  C   UNL     1       2.524   8.227  -2.119  0.00  0.00    +0.036 C 
ATOM     25  C   UNL     1       2.670   7.404  -0.837  0.00  0.00    +0.136 C 
BRANCH  25  26
ATOM     26  C   UNL     1       2.193   5.997  -1.086  0.00  0.00    +0.126 A 
ATOM     27  C   UNL     1       2.990   4.948  -1.330  0.00  0.00    +0.055 A 
ATOM     28  C   UNL     1       2.103   3.792  -1.509  0.00  0.00    +0.020 A 
ATOM     29  C   UNL     1       2.307   2.440  -1.781  0.00  0.00    +0.011 A 
ATOM     30  C   UNL     1       1.232   1.601  -1.889  0.00  0.00    +0.001 A 
ATOM     31  C   UNL     1      -0.058   2.089  -1.734  0.00  0.00    +0.004 A 
ATOM     32  C   UNL     1      -0.278   3.421  -1.459  0.00  0.00    +0.047 A 
ATOM     33  C   UNL     1       0.800   4.291  -1.345  0.00  0.00    +0.135 A 
ATOM     34  O   UNL     1       0.905   5.611  -1.095  0.00  0.00    -0.458 OA
ENDBRANCH  25  26
ENDBRANCH  20  25
ENDBRANCH  19  21
ENDBRANCH   1  19
TORSDOF 5
