REMARK  Name = ZINC07573053
REMARK  8 active torsions:
REMARK  status: ('A' for Active; 'I' for Inactive)
REMARK    1  A    between atoms: C_1  and  C_2
REMARK    2  A    between atoms: C_2  and  C_3
REMARK    3  A    between atoms: C_2  and  C_4
REMARK    4  A    between atoms: C_2  and  N_5
REMARK    5  A    between atoms: C_12  and  S_14
REMARK    6  A    between atoms: S_14  and  C_15
REMARK    7  A    between atoms: C_15  and  C_16
REMARK    8  A    between atoms: N_18  and  C_19
REMARK                            x       y       z     vdW  Elec       q    Type
REMARK                         _______ _______ _______ _____ _____    ______ ____
ROOT
ATOM      1  S   UNL     1       2.675   0.819   0.000  0.00  0.00    -0.088 S 
ENDROOT
BRANCH   1   9
ATOM      2  N   UNL     1       9.411   5.198   0.015  0.00  0.00    -0.294 N 
ATOM      3  C   UNL     1       8.124   4.798   0.017  0.00  0.00    +0.306 C 
ATOM      4  O   UNL     1       7.231   5.623   0.029  0.00  0.00    -0.252 OA
ATOM      5  N   UNL     1       7.827   3.484   0.006  0.00  0.00    -0.247 N 
ATOM      6  C   UNL     1       6.497   3.070   0.008  0.00  0.00    +0.190 A 
ATOM      7  N   UNL     1       5.396   3.796   0.019  0.00  0.00    -0.125 NA
ATOM      8  N   UNL     1       4.167   3.178   0.017  0.00  0.00    -0.133 NA
ATOM      9  C   UNL     1       4.096   1.860   0.005  0.00  0.00    +0.160 A 
ATOM     10  S   UNL     1       5.826   1.415   0.002  0.00  0.00    -0.024 S 
ATOM     11  H   UNL     1      10.123   4.540   0.006  0.00  0.00    +0.151 HD
ATOM     12  H   UNL     1       8.539   2.826  -0.003  0.00  0.00    +0.158 HD
BRANCH   2  14
ATOM     13  C   UNL     1       9.148   7.272   1.285  0.00  0.00    +0.031 C 
ATOM     14  C   UNL     1       9.734   6.627   0.028  0.00  0.00    +0.028 C 
ATOM     15  C   UNL     1      11.253   6.807   0.023  0.00  0.00    +0.031 C 
ATOM     16  C   UNL     1       9.138   7.295  -1.213  0.00  0.00    +0.031 C 
ENDBRANCH   2  14
ENDBRANCH   1   9
BRANCH   1  17
ATOM     17  C   UNL     1       1.280   1.979   0.016  0.00  0.00    +0.172 C 
BRANCH  17  18
ATOM     18  C   UNL     1      -0.015   1.208   0.013  0.00  0.00    +0.227 C 
ATOM     19  O   UNL     1       0.002  -0.004   0.002  0.00  0.00    -0.275 OA
ATOM     20  N   UNL     1      -1.191   1.867   0.018  0.00  0.00    -0.284 N 
ATOM     21  H   UNL     1      -1.205   2.834   0.093  0.00  0.00    +0.155 HD
BRANCH  20  22
ATOM     22  C   UNL     1      -2.388   1.157  -0.086  0.00  0.00    +0.041 A 
ATOM     23  C   UNL     1      -2.511  -0.088   0.493  0.00  0.00    +0.024 A 
ATOM     24  C   UNL     1      -3.701  -0.804   0.396  0.00  0.00    +0.002 A 
ATOM     25  C   UNL     1      -4.774  -0.296  -0.272  0.00  0.00    +0.008 A 
ATOM     26  C   UNL     1      -4.690   0.970  -0.875  0.00  0.00    -0.016 A 
ATOM     27  C   UNL     1      -3.486   1.710  -0.779  0.00  0.00    +0.003 A 
ATOM     28  C   UNL     1      -3.402   2.973  -1.386  0.00  0.00    +0.010 A 
ATOM     29  C   UNL     1      -4.480   3.473  -2.052  0.00  0.00    +0.001 A 
ATOM     30  C   UNL     1      -5.666   2.747  -2.144  0.00  0.00    +0.001 A 
ATOM     31  C   UNL     1      -5.782   1.518  -1.571  0.00  0.00    +0.008 A 
ENDBRANCH  20  22
ENDBRANCH  17  18
ENDBRANCH   1  17
TORSDOF 5
