REMARK  Name = ZINC34749627
REMARK  6 active torsions:
REMARK  status: ('A' for Active; 'I' for Inactive)
REMARK    1  A    between atoms: C_1  and  C_2
REMARK    2  A    between atoms: C_2  and  C_4
REMARK    3  A    between atoms: C_4  and  N_5
REMARK    4  A    between atoms: C_15  and  C_18
REMARK    5  A    between atoms: N_26  and  C_27
REMARK    6  A    between atoms: C_27  and  C_28
REMARK                            x       y       z     vdW  Elec       q    Type
REMARK                         _______ _______ _______ _____ _____    ______ ____
ROOT
ATOM      1  N   UNL     1      -1.424  -0.271   1.741  0.00  0.00    +0.384 N 
ATOM      2  C   UNL     1      -1.606   0.438   3.014  0.00  0.00    -0.059 C 
ATOM      3  C   UNL     1      -2.568  -0.354   3.906  0.00  0.00    +0.089 C 
ATOM      4  N   UNL     1      -3.813  -0.587   3.158  0.00  0.00    -0.304 N 
ATOM      5  C   UNL     1      -3.712  -1.147   1.801  0.00  0.00    +0.089 C 
ATOM      6  C   UNL     1      -2.696  -0.317   1.008  0.00  0.00    -0.059 C 
ATOM      7  C   UNL     1      -5.034  -0.291   3.710  0.00  0.00    +0.202 A 
ATOM      8  N   UNL     1      -5.222   0.880   4.280  0.00  0.00    -0.208 NA
ATOM      9  C   UNL     1      -6.394   1.195   4.822  0.00  0.00    +0.118 A 
ATOM     10  C   UNL     1      -7.480   0.304   4.816  0.00  0.00    +0.080 A 
ATOM     11  C   UNL     1      -8.694   0.806   5.454  0.00  0.00    +0.004 A 
ATOM     12  C   UNL     1      -8.682   2.051   5.986  0.00  0.00    +0.056 A 
ATOM     13  S   UNL     1      -7.027   2.626   5.659  0.00  0.00    -0.076 S 
ATOM     14  C   UNL     1      -7.246  -0.960   4.191  0.00  0.00    +0.264 A 
ATOM     15  O   UNL     1      -8.132  -1.796   4.139  0.00  0.00    -0.267 OA
ATOM     16  N   UNL     1      -6.038  -1.212   3.656  0.00  0.00    -0.276 N 
ATOM     17  H   UNL     1      -1.109  -1.212   1.925  0.00  0.00    -0.081 HD
ENDROOT
BRANCH  11  18
ATOM     18  C   UNL     1      -9.915  -0.031   5.517  0.00  0.00    -0.017 A 
ATOM     19  C   UNL     1     -10.399  -0.651   4.366  0.00  0.00    +0.008 A 
ATOM     20  C   UNL     1     -11.536  -1.430   4.431  0.00  0.00    +0.001 A 
ATOM     21  C   UNL     1     -12.197  -1.595   5.636  0.00  0.00    +0.000 A 
ATOM     22  C   UNL     1     -11.722  -0.981   6.781  0.00  0.00    +0.001 A 
ATOM     23  C   UNL     1     -10.582  -0.205   6.729  0.00  0.00    +0.008 A 
ENDBRANCH  11  18
BRANCH   1  24
ATOM     24  C   UNL     1      -0.419   0.430   0.931  0.00  0.00    -0.048 C 
BRANCH  24  26
ATOM     25  C   UNL     1       1.783  -0.868   1.458  0.00  0.00    +0.036 C 
ATOM     26  C   UNL     1       0.920   0.357   1.619  0.00  0.00    -0.096 C 
ATOM     27  C   UNL     1       1.333   1.358   2.355  0.00  0.00    +0.005 C 
ENDBRANCH  24  26
ENDBRANCH   1  24
BRANCH  16  28
ATOM     28  C   UNL     1      -5.794  -2.504   3.009  0.00  0.00    +0.163 C 
BRANCH  28  29
ATOM     29  C   UNL     1      -5.398  -3.520   4.049  0.00  0.00    -0.027 A 
ATOM     30  C   UNL     1      -4.080  -3.617   4.453  0.00  0.00    +0.007 A 
ATOM     31  C   UNL     1      -3.716  -4.549   5.407  0.00  0.00    +0.020 A 
ATOM     32  C   UNL     1      -4.671  -5.385   5.958  0.00  0.00    +0.041 A 
ATOM     33  C   UNL     1      -5.991  -5.287   5.553  0.00  0.00    +0.020 A 
ATOM     34  C   UNL     1      -6.354  -4.351   4.603  0.00  0.00    +0.007 A 
ATOM     35 CL   UNL     1      -4.215  -6.556   7.155  0.00  0.00    -0.084 Cl
ENDBRANCH  28  29
ENDBRANCH  16  28
TORSDOF 5
