REMARK  Name = ZINC08394833
REMARK  5 active torsions:
REMARK  status: ('A' for Active; 'I' for Inactive)
REMARK    1  A    between atoms: C_6  and  C_7
REMARK    2  A    between atoms: C_7  and  C_9
REMARK    3  A    between atoms: C_9  and  S_10
REMARK    4  A    between atoms: S_10  and  C_11
REMARK    5  A    between atoms: C_15  and  N_17
REMARK                            x       y       z     vdW  Elec       q    Type
REMARK                         _______ _______ _______ _____ _____    ______ ____
ROOT
ATOM      1  C   UNL     1      -7.160   0.446   2.442  0.00  0.00    +0.157 C 
ENDROOT
BRANCH   1   2
ATOM      2  C   UNL     1      -6.371   0.399   1.159  0.00  0.00    +0.173 C 
ATOM      3  O   UNL     1      -6.923   0.117   0.117  0.00  0.00    -0.291 OA
BRANCH   2   9
ATOM      4  C   UNL     1      -4.286   1.020   2.370  0.00  0.00    +0.011 A 
ATOM      5  C   UNL     1      -2.938   1.297   2.364  0.00  0.00    +0.004 A 
ATOM      6  C   UNL     1      -2.208   1.256   1.181  0.00  0.00    -0.044 A 
ATOM      7  C   UNL     1      -2.834   0.931  -0.004  0.00  0.00    -0.044 A 
ATOM      8  C   UNL     1      -4.191   0.652  -0.013  0.00  0.00    +0.015 A 
ATOM      9  C   UNL     1      -4.929   0.694   1.171  0.00  0.00    +0.019 A 
ATOM     10  C   UNL     1      -2.099   0.862  -1.317  0.00  0.00    +0.035 C 
ATOM     11  C   UNL     1      -0.765   1.599  -1.226  0.00  0.00    +0.005 C 
ATOM     12  C   UNL     1      -0.013   1.086   0.008  0.00  0.00    +0.005 C 
ATOM     13  C   UNL     1      -0.738   1.583   1.256  0.00  0.00    +0.035 C 
ENDBRANCH   2   9
ENDBRANCH   1   2
BRANCH   1  14
ATOM     14  S   UNL     1      -8.891   0.038   2.100  0.00  0.00    -0.078 S 
BRANCH  14  15
ATOM     15  C   UNL     1      -9.561   0.165   3.724  0.00  0.00    +0.192 A 
ATOM     16  N   UNL     1      -8.760   0.486   4.730  0.00  0.00    -0.207 NA
ATOM     17  C   UNL     1      -9.233   0.596   5.969  0.00  0.00    +0.122 A 
ATOM     18  C   UNL     1     -10.585   0.359   6.202  0.00  0.00    +0.086 A 
ATOM     19  C   UNL     1     -11.394   0.019   5.122  0.00  0.00    +0.122 A 
ATOM     20  N   UNL     1     -10.853  -0.068   3.909  0.00  0.00    -0.207 NA
ATOM     21  N   UNL     1      -8.390   0.938   7.015  0.00  0.00    -0.343 N 
ATOM     22  H   UNL     1      -8.740   1.013   7.916  0.00  0.00    +0.144 HD
ATOM     23  H   UNL     1      -7.449   1.102   6.845  0.00  0.00    +0.144 HD
BRANCH  19  24
ATOM     24  N   UNL     1     -12.746  -0.226   5.307  0.00  0.00    -0.343 N 
ATOM     25  H   UNL     1     -13.304  -0.462   4.550  0.00  0.00    +0.144 HD
ATOM     26  H   UNL     1     -13.133  -0.161   6.194  0.00  0.00    +0.144 HD
ENDBRANCH  19  24
ENDBRANCH  14  15
ENDBRANCH   1  14
TORSDOF 5
