REMARK  Name = ZINC05003869
REMARK  9 active torsions:
REMARK  status: ('A' for Active; 'I' for Inactive)
REMARK    1  A    between atoms: C_1  and  C_2
REMARK    2  A    between atoms: C_2  and  N_3
REMARK    3  A    between atoms: N_3  and  C_4
REMARK    4  A    between atoms: C_4  and  C_5
REMARK    5  A    between atoms: N_12  and  N_13
REMARK    6  A    between atoms: C_14  and  C_15
REMARK    7  A    between atoms: N_22  and  C_23
REMARK    8  A    between atoms: C_25  and  C_30
REMARK    9  A    between atoms: C_28  and  C_29
REMARK                            x       y       z     vdW  Elec       q    Type
REMARK                         _______ _______ _______ _____ _____    ______ ____
ROOT
ATOM      1  N   UNL     1      -2.421   3.457   0.182  0.00  0.00    -0.300 N 
ATOM      2  C   UNL     1      -1.581   4.148   1.032  0.00  0.00    +0.224 A 
ATOM      3  N   UNL     1      -1.671   3.969   2.347  0.00  0.00    -0.181 NA
ATOM      4  C   UNL     1      -0.862   4.634   3.166  0.00  0.00    +0.225 A 
ATOM      5  N   UNL     1       0.037   5.478   2.670  0.00  0.00    -0.179 NA
ATOM      6  C   UNL     1       0.127   5.658   1.356  0.00  0.00    +0.241 A 
ATOM      7  N   UNL     1      -0.678   4.989   0.537  0.00  0.00    -0.180 NA
ATOM      8  N   UNL     1       1.061   6.536   0.841  0.00  0.00    -0.205 N 
ATOM      9  N   UNL     1      -0.955   4.447   4.531  0.00  0.00    -0.283 N 
ATOM     10  H   UNL     1       1.191   6.598  -0.118  0.00  0.00    +0.177 HD
ATOM     11  H   UNL     1      -0.312   4.867   5.123  0.00  0.00    +0.155 HD
ENDROOT
BRANCH   9  12
ATOM     12  C   UNL     1      -1.976   3.651   5.060  0.00  0.00    +0.037 A 
ATOM     13  C   UNL     1      -2.320   2.456   4.440  0.00  0.00    +0.027 A 
ATOM     14  C   UNL     1      -3.328   1.673   4.965  0.00  0.00    -0.049 A 
ATOM     15  C   UNL     1      -3.996   2.076   6.106  0.00  0.00    +0.004 A 
ATOM     16  C   UNL     1      -3.657   3.265   6.726  0.00  0.00    +0.005 A 
ATOM     17  C   UNL     1      -2.645   4.051   6.209  0.00  0.00    -0.029 A 
ATOM     18  C   UNL     1      -2.272   5.343   6.889  0.00  0.00    +0.045 C 
ATOM     19  C   UNL     1      -3.701   0.376   4.293  0.00  0.00    +0.044 C 
ENDBRANCH   9  12
BRANCH   1  21
ATOM     20  C   UNL     1      -3.250   4.795  -1.689  0.00  0.00    +0.024 C 
ATOM     21  C   UNL     1      -2.322   3.655  -1.266  0.00  0.00    +0.104 C 
ENDBRANCH   1  21
BRANCH   1  22
ATOM     22  C   UNL     1      -3.411   2.526   0.729  0.00  0.00    +0.104 C 
ATOM     23  C   UNL     1      -2.794   1.131   0.838  0.00  0.00    +0.024 C 
ENDBRANCH   1  22
BRANCH   8  24
ATOM     24  N   UNL     1       1.821   7.336   1.704  0.00  0.00    -0.188 NA
ATOM     25  C   UNL     1       2.631   8.227   1.220  0.00  0.00    +0.138 C 
BRANCH  25  26
ATOM     26  C   UNL     1       3.515   8.988   2.121  0.00  0.00    -0.005 A 
ATOM     27  C   UNL     1       3.493   8.744   3.496  0.00  0.00    +0.011 A 
ATOM     28  C   UNL     1       4.325   9.457   4.334  0.00  0.00    +0.020 A 
ATOM     29  C   UNL     1       5.176  10.419   3.815  0.00  0.00    +0.041 A 
ATOM     30  C   UNL     1       5.199  10.668   2.453  0.00  0.00    +0.020 A 
ATOM     31  C   UNL     1       4.375   9.960   1.604  0.00  0.00    +0.011 A 
ATOM     32 CL   UNL     1       6.216  11.316   4.876  0.00  0.00    -0.084 Cl
ENDBRANCH  25  26
ENDBRANCH   8  24
TORSDOF 5
