REMARK  Name = ZINC35199734
REMARK  10 active torsions:
REMARK  status: ('A' for Active; 'I' for Inactive)
REMARK    1  A    between atoms: C_1  and  C_2
REMARK    2  A    between atoms: C_2  and  C_3
REMARK    3  A    between atoms: C_6  and  C_9
REMARK    4  A    between atoms: N_11  and  C_12
REMARK    5  A    between atoms: C_12  and  C_13
REMARK    6  A    between atoms: C_16  and  S_27
REMARK    7  A    between atoms: N_17  and  C_18
REMARK    8  A    between atoms: C_21  and  N_24
REMARK    9  A    between atoms: S_27  and  C_28
REMARK   10  A    between atoms: C_28  and  C_29
REMARK                            x       y       z     vdW  Elec       q    Type
REMARK                         _______ _______ _______ _____ _____    ______ ____
ROOT
ATOM      1  C   UNL     1       6.183  -2.701  -5.629  0.00  0.00    +0.156 A 
ATOM      2  N   UNL     1       7.099  -1.785  -5.774  0.00  0.00    -0.132 NA
ATOM      3  N   UNL     1       8.249  -2.252  -5.439  0.00  0.00    -0.122 NA
ATOM      4  C   UNL     1       8.129  -3.503  -5.058  0.00  0.00    +0.196 A 
ATOM      5  N   UNL     1       6.805  -3.828  -5.162  0.00  0.00    -0.273 N 
ENDROOT
BRANCH   5   6
ATOM      6  C   UNL     1       6.208  -5.060  -4.857  0.00  0.00    +0.050 A 
ATOM      7  C   UNL     1       5.290  -5.151  -3.820  0.00  0.00    +0.028 A 
ATOM      8  C   UNL     1       4.704  -6.365  -3.522  0.00  0.00    +0.035 A 
ATOM      9  C   UNL     1       5.030  -7.491  -4.256  0.00  0.00    +0.126 A 
ATOM     10  C   UNL     1       5.944  -7.404  -5.290  0.00  0.00    +0.035 A 
ATOM     11  C   UNL     1       6.529  -6.191  -5.596  0.00  0.00    +0.028 A 
BRANCH   9  12
ATOM     12  N   UNL     1       4.401  -8.791  -3.933  0.00  0.00    +0.056 N 
ATOM     13  O   UNL     1       3.602  -8.868  -3.029  0.00  0.00    -0.126 OA
ATOM     14  O   UNL     1       4.686  -9.776  -4.574  0.00  0.00    -0.126 OA
ENDBRANCH   9  12
ENDBRANCH   5   6
BRANCH   1  15
ATOM     15  C   UNL     1       4.712  -2.545  -5.917  0.00  0.00    +0.181 C 
BRANCH  15  18
ATOM     16  C   UNL     1       2.696  -1.860  -4.732  0.00  0.00    +0.244 C 
ATOM     17  O   UNL     1       2.064  -2.062  -5.752  0.00  0.00    -0.270 OA
ATOM     18  N   UNL     1       4.026  -2.072  -4.711  0.00  0.00    -0.304 N 
ATOM     19  H   UNL     1       4.530  -1.912  -3.898  0.00  0.00    +0.149 HD
BRANCH  16  23
ATOM     20  C   UNL     1       0.707  -0.490  -1.238  0.00  0.00    -0.048 A 
ATOM     21  C   UNL     1      -0.014  -0.718  -2.396  0.00  0.00    +0.004 A 
ATOM     22  C   UNL     1       0.625  -1.163  -3.535  0.00  0.00    +0.013 A 
ATOM     23  C   UNL     1       2.004  -1.383  -3.516  0.00  0.00    +0.037 A 
ATOM     24  C   UNL     1       2.726  -1.151  -2.344  0.00  0.00    +0.013 A 
ATOM     25  C   UNL     1       2.075  -0.701  -1.214  0.00  0.00    +0.004 A 
BRANCH  20  27
ATOM     26  C   UNL     1      -0.019   1.526   0.010  0.00  0.00    +0.009 C 
ATOM     27  C   UNL     1       0.002  -0.004   0.002  0.00  0.00    +0.032 C 
ENDBRANCH  20  27
ENDBRANCH  16  23
ENDBRANCH  15  18
ENDBRANCH   1  15
BRANCH   4  28
ATOM     28  S   UNL     1       9.428  -4.561  -4.511  0.00  0.00    -0.081 S 
BRANCH  28  29
ATOM     29  C   UNL     1      10.910  -3.519  -4.603  0.00  0.00    +0.112 C 
BRANCH  29  30
ATOM     30  C   UNL     1      12.111  -4.313  -4.156  0.00  0.00    -0.037 A 
ATOM     31  C   UNL     1      12.476  -4.322  -2.822  0.00  0.00    +0.004 A 
ATOM     32  C   UNL     1      13.577  -5.050  -2.412  0.00  0.00    +0.000 A 
ATOM     33  C   UNL     1      14.313  -5.769  -3.334  0.00  0.00    +0.000 A 
ATOM     34  C   UNL     1      13.947  -5.761  -4.668  0.00  0.00    +0.000 A 
ATOM     35  C   UNL     1      12.844  -5.037  -5.078  0.00  0.00    +0.004 A 
ENDBRANCH  29  30
ENDBRANCH  28  29
ENDBRANCH   4  28
TORSDOF 9
