REMARK  Name = ZINC60160281
REMARK  15 active torsions:
REMARK  status: ('A' for Active; 'I' for Inactive)
REMARK    1  A    between atoms: C_1  and  C_2
REMARK    2  A    between atoms: C_2  and  C_3
REMARK    3  A    between atoms: C_2  and  C_4
REMARK    4  A    between atoms: C_4  and  C_6
REMARK    5  A    between atoms: C_4  and  N_16
REMARK    6  A    between atoms: C_9  and  C_12
REMARK    7  A    between atoms: C_12  and  C_13
REMARK    8  A    between atoms: C_12  and  C_14
REMARK    9  A    between atoms: C_12  and  C_15
REMARK   10  A    between atoms: N_16  and  C_17
REMARK   11  A    between atoms: C_17  and  C_18
REMARK   12  A    between atoms: C_21  and  C_23
REMARK   13  A    between atoms: N_25  and  C_26
REMARK   14  A    between atoms: C_29  and  O_32
REMARK   15  A    between atoms: O_32  and  C_33
REMARK                            x       y       z     vdW  Elec       q    Type
REMARK                         _______ _______ _______ _____ _____    ______ ____
ROOT
ATOM      1  C   UNL     1      -2.538  -2.375   0.402  0.00  0.00    -0.016 C 
ENDROOT
BRANCH   1   2
ATOM      2  C   UNL     1      -2.465  -3.877   0.504  0.00  0.00    +0.086 A 
ATOM      3  N   UNL     1      -2.413  -4.633   1.582  0.00  0.00    -0.148 NA
ATOM      4  N   UNL     1      -2.355  -5.894   1.514  0.00  0.00    -0.137 NA
ATOM      5  C   UNL     1      -2.346  -6.470   0.315  0.00  0.00    +0.187 A 
ATOM      6  S   UNL     1      -2.437  -5.024  -0.731  0.00  0.00    -0.048 S 
BRANCH   5   7
ATOM      7  C   UNL     1      -2.284  -7.896  -0.048  0.00  0.00    +0.275 C 
ATOM      8  O   UNL     1      -2.286  -8.226  -1.218  0.00  0.00    -0.268 OA
ATOM      9  N   UNL     1      -2.225  -8.835   0.917  0.00  0.00    -0.280 N 
ATOM     10  H   UNL     1      -2.298  -8.577   1.850  0.00  0.00    +0.155 HD
BRANCH   9  11
ATOM     11  C   UNL     1      -2.057 -10.182   0.574  0.00  0.00    +0.034 A 
ATOM     12  C   UNL     1      -2.669 -11.173   1.330  0.00  0.00    +0.027 A 
ATOM     13  C   UNL     1      -2.503 -12.501   0.991  0.00  0.00    +0.047 A 
ATOM     14  C   UNL     1      -1.725 -12.846  -0.104  0.00  0.00    +0.120 A 
ATOM     15  C   UNL     1      -1.113 -11.856  -0.860  0.00  0.00    +0.047 A 
ATOM     16  C   UNL     1      -1.283 -10.527  -0.526  0.00  0.00    +0.027 A 
BRANCH  14  17
ATOM     17  O   UNL     1      -1.562 -14.154  -0.437  0.00  0.00    -0.495 OA
ATOM     18  C   UNL     1      -0.748 -14.436  -1.577  0.00  0.00    +0.277 C 
ENDBRANCH  14  17
ENDBRANCH   9  11
ENDBRANCH   5   7
ENDBRANCH   1   2
BRANCH   1  19
ATOM     19  N   UNL     1      -1.179  -1.822   0.340  0.00  0.00    +0.388 N 
ATOM     20  H   UNL     1      -0.676  -2.250  -0.422  0.00  0.00    -0.084 HD
ATOM     21  H   UNL     1      -0.699  -2.010   1.208  0.00  0.00    -0.084 HD
BRANCH  19  22
ATOM     22  C   UNL     1      -1.250  -0.370   0.126  0.00  0.00    -0.038 C 
BRANCH  22  23
ATOM     23  C   UNL     1      -1.865  -0.091  -1.222  0.00  0.00    -0.061 A 
ATOM     24  C   UNL     1      -1.537  -0.881  -2.308  0.00  0.00    +0.002 A 
ATOM     25  C   UNL     1      -2.100  -0.625  -3.544  0.00  0.00    +0.004 A 
ATOM     26  C   UNL     1      -2.992   0.420  -3.694  0.00  0.00    -0.042 A 
ATOM     27  C   UNL     1      -3.321   1.210  -2.607  0.00  0.00    +0.004 A 
ATOM     28  C   UNL     1      -2.761   0.951  -1.370  0.00  0.00    +0.002 A 
BRANCH  26  29
ATOM     29  C   UNL     1      -3.606   0.700  -5.041  0.00  0.00    -0.013 C 
ATOM     30  C   UNL     1      -4.393  -0.527  -5.508  0.00  0.00    +0.015 C 
ATOM     31  C   UNL     1      -4.549   1.900  -4.933  0.00  0.00    +0.015 C 
ATOM     32  C   UNL     1      -2.499   1.011  -6.051  0.00  0.00    +0.015 C 
ENDBRANCH  26  29
ENDBRANCH  22  23
BRANCH  22  34
ATOM     33  C   UNL     1       0.076   1.746   0.060  0.00  0.00    +0.006 C 
ATOM     34  C   UNL     1       0.159   0.223   0.176  0.00  0.00    -0.027 C 
ATOM     35  C   UNL     1       0.823  -0.152   1.503  0.00  0.00    +0.006 C 
ENDBRANCH  22  34
ENDBRANCH  19  22
ENDBRANCH   1  19
TORSDOF 9
