REMARK  Name = ZINC04518760
REMARK  8 active torsions:
REMARK  status: ('A' for Active; 'I' for Inactive)
REMARK    1  A    between atoms: C_1  and  C_2
REMARK    2  A    between atoms: C_5  and  N_9
REMARK    3  A    between atoms: C_7  and  C_8
REMARK    4  A    between atoms: C_12  and  C_25
REMARK    5  A    between atoms: C_14  and  C_16
REMARK    6  A    between atoms: C_19  and  C_22
REMARK    7  A    between atoms: C_22  and  C_23
REMARK    8  A    between atoms: C_22  and  C_24
REMARK                            x       y       z     vdW  Elec       q    Type
REMARK                         _______ _______ _______ _____ _____    ______ ____
ROOT
ATOM      1  N   UNL     1      -1.127   1.972   0.018  0.00  0.00    -0.245 N 
ATOM      2  C   UNL     1      -0.748   3.303   0.027  0.00  0.00    +0.170 A 
ATOM      3  C   UNL     1       0.659   3.321   0.014  0.00  0.00    +0.117 A 
ATOM      4  C   UNL     1       1.311   4.554   0.014  0.00  0.00    +0.154 A 
ATOM      5  N   UNL     1       0.574   5.665   0.028  0.00  0.00    -0.220 NA
ATOM      6  C   UNL     1      -0.748   5.605   0.040  0.00  0.00    +0.163 A 
ATOM      7  N   UNL     1      -1.404   4.449   0.039  0.00  0.00    -0.208 NA
ATOM      8  N   UNL     1       1.077   2.002   0.003  0.00  0.00    -0.303 N 
ATOM      9  H   UNL     1       1.998   1.698  -0.008  0.00  0.00    +0.171 HD
ATOM     10  C   UNL     1      -0.014   1.212   0.009  0.00  0.00    +0.333 A 
ATOM     11  O   UNL     1       0.002  -0.004   0.002  0.00  0.00    -0.246 OA
ENDROOT
BRANCH   1  16
ATOM     12  C   UNL     1      -6.463   0.041   0.029  0.00  0.00    +0.044 C 
ATOM     13  C   UNL     1      -5.046   0.554   0.027  0.00  0.00    -0.047 A 
ATOM     14  C   UNL     1      -4.805   1.916   0.032  0.00  0.00    +0.005 A 
ATOM     15  C   UNL     1      -3.507   2.389   0.029  0.00  0.00    +0.026 A 
ATOM     16  C   UNL     1      -2.444   1.495   0.021  0.00  0.00    +0.053 A 
ATOM     17  C   UNL     1      -2.690   0.129   0.009  0.00  0.00    +0.030 A 
ATOM     18  C   UNL     1      -3.990  -0.338   0.018  0.00  0.00    -0.046 A 
ATOM     19  C   UNL     1      -4.257  -1.821   0.011  0.00  0.00    +0.044 C 
ENDBRANCH   1  16
BRANCH   6  20
ATOM     20  C   UNL     1      -1.523   6.869   0.055  0.00  0.00    +0.019 A 
ATOM     21  C   UNL     1      -2.916   6.835   0.062  0.00  0.00    +0.012 A 
ATOM     22  C   UNL     1      -3.632   8.015   0.081  0.00  0.00    +0.004 A 
ATOM     23  C   UNL     1      -2.970   9.229   0.081  0.00  0.00    -0.045 A 
ATOM     24  C   UNL     1      -1.588   9.269   0.069  0.00  0.00    +0.004 A 
ATOM     25  C   UNL     1      -0.861   8.095   0.055  0.00  0.00    +0.012 A 
BRANCH  23  26
ATOM     26  C   UNL     1      -3.758  10.514   0.096  0.00  0.00    +0.013 C 
ATOM     27  C   UNL     1      -4.651  10.579  -1.145  0.00  0.00    +0.012 C 
ATOM     28  C   UNL     1      -4.628  10.564   1.353  0.00  0.00    +0.012 C 
ENDBRANCH  23  26
ENDBRANCH   6  20
BRANCH   4  29
ATOM     29  C   UNL     1       2.791   4.628   0.001  0.00  0.00    +0.262 C 
ATOM     30  O   UNL     1       3.450   3.607  -0.011  0.00  0.00    -0.269 OA
ATOM     31  N   UNL     1       3.405   5.827   0.002  0.00  0.00    -0.324 N 
ATOM     32  H   UNL     1       2.879   6.642   0.011  0.00  0.00    +0.145 HD
ATOM     33  H   UNL     1       4.374   5.876  -0.006  0.00  0.00    +0.145 HD
ENDBRANCH   4  29
TORSDOF 4
