REMARK  Name = ZINC22431440
REMARK  11 active torsions:
REMARK  status: ('A' for Active; 'I' for Inactive)
REMARK    1  A    between atoms: C_1  and  C_2
REMARK    2  A    between atoms: C_2  and  O_3
REMARK    3  A    between atoms: O_3  and  C_4
REMARK    4  A    between atoms: C_9  and  C_10
REMARK    5  A    between atoms: C_10  and  N_11
REMARK    6  A    between atoms: C_12  and  C_14
REMARK    7  A    between atoms: C_14  and  N_15
REMARK    8  A    between atoms: N_15  and  C_16
REMARK    9  A    between atoms: N_15  and  S_24
REMARK   10  A    between atoms: S_24  and  C_27
REMARK   11  A    between atoms: C_30  and  C_33
REMARK                            x       y       z     vdW  Elec       q    Type
REMARK                         _______ _______ _______ _____ _____    ______ ____
ROOT
ATOM      1  N   UNL     1      -1.552   2.094  -0.013  0.00  0.00    -0.194 N 
ENDROOT
BRANCH   1   2
ATOM      2  C   UNL     1      -0.448   1.279  -0.271  0.00  0.00    +0.055 A 
ATOM      3  C   UNL     1       0.813   1.842  -0.420  0.00  0.00    +0.044 A 
ATOM      4  C   UNL     1       1.903   1.034  -0.681  0.00  0.00    +0.044 A 
ATOM      5  C   UNL     1       1.740  -0.336  -0.793  0.00  0.00    +0.040 A 
ATOM      6  C   UNL     1       0.484  -0.899  -0.646  0.00  0.00    +0.044 A 
ATOM      7  C   UNL     1      -0.609  -0.096  -0.385  0.00  0.00    +0.044 A 
ATOM      8 CL   UNL     1       0.284  -2.618  -0.789  0.00  0.00    -0.083 Cl
ATOM      9 CL   UNL     1       3.479   1.737  -0.868  0.00  0.00    -0.083 Cl
ENDBRANCH   1   2
BRANCH   1  10
ATOM     10  S   UNL     1      -1.346   3.552   0.745  0.00  0.00    +0.075 S 
ATOM     11  O   UNL     1      -2.578   3.855   1.385  0.00  0.00    -0.150 OA
ATOM     12  O   UNL     1      -0.119   3.471   1.456  0.00  0.00    -0.150 OA
BRANCH  10  13
ATOM     13  C   UNL     1      -1.120   4.765  -0.513  0.00  0.00    +0.109 A 
ATOM     14  C   UNL     1       0.155   5.159  -0.872  0.00  0.00    +0.029 A 
ATOM     15  C   UNL     1       0.333   6.108  -1.862  0.00  0.00    +0.005 A 
ATOM     16  C   UNL     1      -0.765   6.669  -2.486  0.00  0.00    -0.050 A 
ATOM     17  C   UNL     1      -2.041   6.279  -2.124  0.00  0.00    +0.005 A 
ATOM     18  C   UNL     1      -2.218   5.327  -1.137  0.00  0.00    +0.029 A 
ATOM     19  C   UNL     1      -0.572   7.707  -3.562  0.00  0.00    +0.044 C 
ENDBRANCH  10  13
ENDBRANCH   1  10
BRANCH   1  20
ATOM     20  C   UNL     1      -2.893   1.659  -0.412  0.00  0.00    +0.227 C 
BRANCH  20  22
ATOM     21  N   UNL     1      -4.709   0.256   0.511  0.00  0.00    -0.310 N 
ATOM     22  C   UNL     1      -3.475   0.777   0.662  0.00  0.00    +0.232 C 
ATOM     23  O   UNL     1      -2.834   0.535   1.662  0.00  0.00    -0.274 OA
ATOM     24  H   UNL     1      -5.291   0.475  -0.397  0.00  0.00    +0.149 HD
BRANCH  21  25
ATOM     25  C   UNL     1      -5.275  -0.602   1.554  0.00  0.00    +0.143 C 
BRANCH  25  31
ATOM     26  C   UNL     1      -6.806  -2.098   0.248  0.00  0.00    +0.125 A 
ATOM     27  C   UNL     1      -8.077  -2.508  -0.127  0.00  0.00    +0.046 A 
ATOM     28  C   UNL     1      -9.188  -1.871   0.391  0.00  0.00    +0.004 A 
ATOM     29  C   UNL     1      -9.034  -0.826   1.283  0.00  0.00    +0.001 A 
ATOM     30  C   UNL     1      -7.769  -0.419   1.663  0.00  0.00    +0.009 A 
ATOM     31  C   UNL     1      -6.655  -1.049   1.144  0.00  0.00    +0.011 A 
BRANCH  26  32
ATOM     32  O   UNL     1      -5.712  -2.723  -0.259  0.00  0.00    -0.492 OA
BRANCH  32  34
ATOM     33  C   UNL     1      -4.603  -4.371  -1.637  0.00  0.00    +0.048 C 
ATOM     34  C   UNL     1      -5.943  -3.795  -1.176  0.00  0.00    +0.225 C 
ENDBRANCH  32  34
ENDBRANCH  26  32
ENDBRANCH  25  31
ENDBRANCH  21  25
ENDBRANCH  20  22
ENDBRANCH   1  20
TORSDOF 9
