REMARK  Name = ZINC39290073
REMARK  4 active torsions:
REMARK  status: ('A' for Active; 'I' for Inactive)
REMARK    1  A    between atoms: C_4  and  N_7
REMARK    2  A    between atoms: N_7  and  C_8
REMARK    3  A    between atoms: C_10  and  C_18
REMARK    4  A    between atoms: C_12  and  C_15
REMARK                            x       y       z     vdW  Elec       q    Type
REMARK                         _______ _______ _______ _____ _____    ______ ____
ROOT
ATOM      1  C   UNL     1       3.645  -2.110   0.066  0.00  0.00    +0.142 C 
ATOM      2  C   UNL     1       4.768  -2.712  -0.810  0.00  0.00    +0.108 C 
ATOM      3  C   UNL     1       6.037  -2.994  -0.067  0.00  0.00    +0.046 C 
ATOM      4  C   UNL     1       6.005  -2.635   1.411  0.00  0.00    +0.194 C 
ATOM      5  S   UNL     1       4.188  -2.651   1.746  0.00  0.00    -0.114 S 
ATOM      6  N   UNL     1       7.069  -3.498  -0.632  0.00  0.00    -0.306 NA
ATOM      7  H   UNL     1       7.872  -3.665  -0.114  0.00  0.00    +0.186 HD
ENDROOT
BRANCH   2   8
ATOM      8  C   UNL     1       5.076  -1.735  -1.946  0.00  0.00    +0.185 C 
ATOM      9  N   UNL     1       6.089  -2.307  -2.842  0.00  0.00    -0.363 N 
ATOM     10  C   UNL     1       5.553  -2.410  -4.023  0.00  0.00    +0.060 A 
ATOM     11  C   UNL     1       6.060  -2.903  -5.311  0.00  0.00    +0.027 A 
ATOM     12  C   UNL     1       5.255  -2.889  -6.393  0.00  0.00    +0.002 A 
ATOM     13  C   UNL     1       3.931  -2.417  -6.346  0.00  0.00    +0.002 A 
ATOM     14  C   UNL     1       3.367  -1.944  -5.216  0.00  0.00    +0.027 A 
ATOM     15  C   UNL     1       4.151  -1.911  -3.974  0.00  0.00    +0.060 A 
ATOM     16  N   UNL     1       3.875  -1.519  -2.764  0.00  0.00    -0.363 N 
ATOM     17  H   UNL     1       6.993  -2.560  -2.598  0.00  0.00    +0.162 HD
ATOM     18  H   UNL     1       3.032  -1.151  -2.458  0.00  0.00    +0.162 HD
ENDBRANCH   2   8
BRANCH   1  19
ATOM     19  N   UNL     1       3.620  -0.649  -0.036  0.00  0.00    -0.331 N 
ATOM     20  H   UNL     1       4.449  -0.147  -0.018  0.00  0.00    +0.147 HD
BRANCH  19  24
ATOM     21  C   UNL     1      -0.014   1.350  -0.404  0.00  0.00    +0.000 A 
ATOM     22  C   UNL     1       0.003  -0.010  -0.151  0.00  0.00    +0.002 A 
ATOM     23  C   UNL     1       1.206  -0.676  -0.029  0.00  0.00    +0.023 A 
ATOM     24  C   UNL     1       2.401   0.021  -0.160  0.00  0.00    +0.028 A 
ATOM     25  C   UNL     1       2.380   1.387  -0.414  0.00  0.00    +0.023 A 
ATOM     26  C   UNL     1       1.173   2.047  -0.535  0.00  0.00    +0.002 A 
ENDBRANCH  19  24
ENDBRANCH   1  19
BRANCH   4  27
ATOM     27  C   UNL     1       6.701  -3.651   2.218  0.00  0.00    +0.083 C 
ATOM     28  N   UNL     1       7.239  -4.434   2.840  0.00  0.00    -0.195 NA
ENDBRANCH   4  27
TORSDOF 4
