REMARK  Name = ZINC22921984
REMARK  8 active torsions:
REMARK  status: ('A' for Active; 'I' for Inactive)
REMARK    1  A    between atoms: C_4  and  C_7
REMARK    2  A    between atoms: C_7  and  N_8
REMARK    3  A    between atoms: N_11  and  C_14
REMARK    4  A    between atoms: C_14  and  N_15
REMARK    5  A    between atoms: N_22  and  C_25
REMARK    6  A    between atoms: C_25  and  N_26
REMARK    7  A    between atoms: N_29  and  C_32
REMARK    8  A    between atoms: C_32  and  C_33
REMARK                            x       y       z     vdW  Elec       q    Type
REMARK                         _______ _______ _______ _____ _____    ______ ____
ROOT
ATOM      1  N   UNL     1       1.941   7.383  -5.650  0.00  0.00    -0.306 N 
ATOM      2  C   UNL     1       3.197   7.976  -5.750  0.00  0.00    +0.069 A 
ATOM      3  C   UNL     1       3.741   9.144  -5.238  0.00  0.00    +0.028 A 
ATOM      4  C   UNL     1       5.056   9.467  -5.511  0.00  0.00    +0.002 A 
ATOM      5  C   UNL     1       5.835   8.627  -6.288  0.00  0.00    +0.002 A 
ATOM      6  C   UNL     1       5.303   7.458  -6.797  0.00  0.00    +0.028 A 
ATOM      7  C   UNL     1       3.985   7.125  -6.529  0.00  0.00    +0.069 A 
ATOM      8  N   UNL     1       3.179   6.047  -6.886  0.00  0.00    -0.306 N 
ATOM      9  C   UNL     1       1.960   6.230  -6.345  0.00  0.00    +0.164 A 
ATOM     10  S   UNL     1       0.636   5.159  -6.514  0.00  0.00    -0.013 S 
ENDROOT
BRANCH   1  11
ATOM     11  C   UNL     1       0.793   7.925  -4.920  0.00  0.00    +0.211 C 
BRANCH  11  15
ATOM     12  N   UNL     1      -0.090   5.844  -1.351  0.00  0.00    +0.384 N 
ATOM     13  C   UNL     1       1.163   5.519  -2.046  0.00  0.00    -0.063 C 
ATOM     14  C   UNL     1       1.071   5.982  -3.502  0.00  0.00    +0.067 C 
ATOM     15  N   UNL     1       0.813   7.428  -3.538  0.00  0.00    -0.288 NA
ATOM     16  C   UNL     1      -0.441   7.754  -2.843  0.00  0.00    +0.067 C 
ATOM     17  C   UNL     1      -0.349   7.290  -1.387  0.00  0.00    -0.063 C 
ATOM     18  H   UNL     1      -0.913   5.339  -1.879  0.00  0.00    -0.081 HD
BRANCH  12  19
ATOM     19  C   UNL     1      -0.070   5.347   0.031  0.00  0.00    -0.043 C 
BRANCH  19  23
ATOM     20  C   UNL     1      -0.013   1.076   0.008  0.00  0.00    +0.000 A 
ATOM     21  C   UNL     1      -1.219   1.751   0.017  0.00  0.00    +0.000 A 
ATOM     22  C   UNL     1      -1.238   3.133   0.030  0.00  0.00    +0.002 A 
ATOM     23  C   UNL     1      -0.050   3.840   0.023  0.00  0.00    -0.064 A 
ATOM     24  C   UNL     1       1.156   3.165   0.008  0.00  0.00    +0.002 A 
ATOM     25  C   UNL     1       1.175   1.783   0.000  0.00  0.00    +0.000 A 
ENDBRANCH  19  23
ENDBRANCH  12  19
ENDBRANCH  11  15
ENDBRANCH   1  11
BRANCH   8  26
ATOM     26  C   UNL     1       3.589   4.907  -7.712  0.00  0.00    +0.211 C 
BRANCH  26  27
ATOM     27  N   UNL     1       3.322   5.206  -9.125  0.00  0.00    -0.282 NA
ATOM     28  C   UNL     1       1.878   5.315  -9.377  0.00  0.00    +0.101 C 
ATOM     29  C   UNL     1       1.646   5.703 -10.839  0.00  0.00    +0.100 C 
ATOM     30  N   UNL     1       2.255   4.693 -11.714  0.00  0.00    -0.296 NA
ATOM     31  C   UNL     1       3.699   4.584 -11.463  0.00  0.00    +0.100 C 
ATOM     32  C   UNL     1       3.931   4.195 -10.001  0.00  0.00    +0.101 C 
BRANCH  30  33
ATOM     33  C   UNL     1       1.988   4.991 -13.128  0.00  0.00    +0.119 C 
BRANCH  33  34
ATOM     34  C   UNL     1       0.532   5.337 -13.302  0.00  0.00    -0.033 A 
ATOM     35  C   UNL     1      -0.386   4.342 -13.583  0.00  0.00    +0.005 A 
ATOM     36  C   UNL     1      -1.722   4.658 -13.738  0.00  0.00    +0.000 A 
ATOM     37  C   UNL     1      -2.140   5.971 -13.621  0.00  0.00    +0.000 A 
ATOM     38  C   UNL     1      -1.222   6.966 -13.345  0.00  0.00    +0.000 A 
ATOM     39  C   UNL     1       0.114   6.649 -13.185  0.00  0.00    +0.005 A 
ENDBRANCH  33  34
ENDBRANCH  30  33
ENDBRANCH  26  27
ENDBRANCH   8  26
TORSDOF 8
