REMARK  Name = ZINC58406446
REMARK  6 active torsions:
REMARK  status: ('A' for Active; 'I' for Inactive)
REMARK    1  A    between atoms: C_1  and  C_2
REMARK    2  A    between atoms: C_2  and  C_4
REMARK    3  A    between atoms: C_2  and  N_21
REMARK    4  A    between atoms: N_6  and  C_7
REMARK    5  A    between atoms: C_7  and  C_8
REMARK    6  A    between atoms: C_13  and  C_14
REMARK                            x       y       z     vdW  Elec       q    Type
REMARK                         _______ _______ _______ _____ _____    ______ ____
ROOT
ATOM      1  C   UNL     1       1.028  -0.689  -3.756  0.00  0.00    +0.140 C 
ENDROOT
BRANCH   1   2
ATOM      2  C   UNL     1       0.175  -0.267  -4.924  0.00  0.00    -0.023 A 
ATOM      3  C   UNL     1      -0.724  -1.155  -5.480  0.00  0.00    +0.006 A 
ATOM      4  C   UNL     1      -1.508  -0.769  -6.552  0.00  0.00    +0.000 A 
ATOM      5  C   UNL     1      -1.397   0.508  -7.073  0.00  0.00    +0.001 A 
ATOM      6  C   UNL     1      -0.501   1.403  -6.525  0.00  0.00    +0.009 A 
ATOM      7  C   UNL     1       0.288   1.022  -5.442  0.00  0.00    -0.013 A 
BRANCH   7   8
ATOM      8  C   UNL     1       1.248   1.982  -4.845  0.00  0.00    -0.017 A 
ATOM      9  C   UNL     1       0.802   3.214  -4.370  0.00  0.00    +0.010 A 
ATOM     10  C   UNL     1       1.699   4.104  -3.816  0.00  0.00    +0.020 A 
ATOM     11  C   UNL     1       3.041   3.774  -3.731  0.00  0.00    +0.041 A 
ATOM     12  C   UNL     1       3.490   2.552  -4.201  0.00  0.00    +0.020 A 
ATOM     13  C   UNL     1       2.599   1.653  -4.751  0.00  0.00    +0.010 A 
ATOM     14 CL   UNL     1       4.165   4.898  -3.033  0.00  0.00    -0.084 Cl
ENDBRANCH   7   8
ENDBRANCH   1   2
BRANCH   1  17
ATOM     15  C   UNL     1       1.187  -0.221  -1.370  0.00  0.00    +0.233 C 
ATOM     16  O   UNL     1       2.216  -0.862  -1.343  0.00  0.00    -0.274 OA
ATOM     17  N   UNL     1       0.515  -0.074  -2.529  0.00  0.00    -0.310 N 
ATOM     18  H   UNL     1      -0.308   0.438  -2.551  0.00  0.00    +0.149 HD
BRANCH  15  20
ATOM     19  C   UNL     1       0.572   1.927  -0.296  0.00  0.00    +0.038 C 
ATOM     20  C   UNL     1       0.660   0.411  -0.108  0.00  0.00    +0.157 C 
BRANCH  20  21
ATOM     21  N   UNL     1       1.563   0.108   1.004  0.00  0.00    -0.289 N 
ATOM     22  C   UNL     1       1.097   0.108   2.269  0.00  0.00    +0.298 C 
ATOM     23  O   UNL     1      -0.072   0.359   2.487  0.00  0.00    -0.253 OA
ATOM     24  N   UNL     1       1.929  -0.171   3.293  0.00  0.00    -0.313 N 
ATOM     25  H   UNL     1       2.496  -0.092   0.831  0.00  0.00    +0.151 HD
ATOM     26  H   UNL     1       2.861  -0.372   3.119  0.00  0.00    +0.146 HD
ATOM     27  H   UNL     1       1.593  -0.172   4.203  0.00  0.00    +0.146 HD
ENDBRANCH  20  21
ENDBRANCH  15  20
ENDBRANCH   1  17
TORSDOF 5
