REMARK  Name = ZINC34774406
REMARK  8 active torsions:
REMARK  status: ('A' for Active; 'I' for Inactive)
REMARK    1  A    between atoms: C_1  and  C_2
REMARK    2  A    between atoms: C_2  and  C_3
REMARK    3  A    between atoms: C_2  and  C_4
REMARK    4  A    between atoms: C_4  and  S_5
REMARK    5  A    between atoms: S_5  and  C_6
REMARK    6  A    between atoms: C_10  and  C_15
REMARK    7  A    between atoms: N_24  and  C_27
REMARK    8  A    between atoms: C_27  and  C_28
REMARK                            x       y       z     vdW  Elec       q    Type
REMARK                         _______ _______ _______ _____ _____    ______ ____
ROOT
ATOM      1  C   UNL     1      -3.888  -1.212  -1.464  0.00  0.00    +0.191 A 
ATOM      2  N   UNL     1      -4.759  -1.108  -2.460  0.00  0.00    -0.206 NA
ATOM      3  C   UNL     1      -5.931  -1.720  -2.434  0.00  0.00    +0.134 A 
ATOM      4  C   UNL     1      -6.277  -2.515  -1.308  0.00  0.00    +0.055 A 
ATOM      5  C   UNL     1      -7.494  -3.279  -1.047  0.00  0.00    +0.002 A 
ATOM      6  C   UNL     1      -7.594  -3.969   0.113  0.00  0.00    +0.056 A 
ATOM      7  S   UNL     1      -6.048  -3.631   0.933  0.00  0.00    -0.076 S 
ATOM      8  C   UNL     1      -5.306  -2.581  -0.288  0.00  0.00    +0.115 A 
ATOM      9  N   UNL     1      -4.155  -1.944  -0.391  0.00  0.00    -0.215 NA
ATOM     10  N   UNL     1      -6.813  -1.587  -3.491  0.00  0.00    -0.318 N 
ATOM     11  C   UNL     1      -7.561  -0.338  -3.700  0.00  0.00    +0.088 C 
ATOM     12  C   UNL     1      -7.383   0.098  -5.158  0.00  0.00    -0.059 C 
ATOM     13  N   UNL     1      -7.778  -1.002  -6.048  0.00  0.00    +0.384 N 
ATOM     14  C   UNL     1      -6.875  -2.144  -5.864  0.00  0.00    -0.059 C 
ATOM     15  C   UNL     1      -7.024  -2.688  -4.443  0.00  0.00    +0.088 C 
ATOM     16  H   UNL     1      -8.723  -1.283  -5.833  0.00  0.00    -0.081 HD
ENDROOT
BRANCH   5  17
ATOM     17  C   UNL     1      -8.598  -3.298  -2.035  0.00  0.00    -0.017 A 
ATOM     18  C   UNL     1      -9.227  -2.110  -2.405  0.00  0.00    +0.008 A 
ATOM     19  C   UNL     1     -10.255  -2.134  -3.326  0.00  0.00    +0.001 A 
ATOM     20  C   UNL     1     -10.662  -3.334  -3.881  0.00  0.00    +0.000 A 
ATOM     21  C   UNL     1     -10.041  -4.516  -3.518  0.00  0.00    +0.001 A 
ATOM     22  C   UNL     1      -9.009  -4.504  -2.603  0.00  0.00    +0.008 A 
ENDBRANCH   5  17
BRANCH   1  23
ATOM     23  S   UNL     1      -2.345  -0.367  -1.572  0.00  0.00    -0.086 S 
BRANCH  23  24
ATOM     24  C   UNL     1      -1.500  -0.797  -0.026  0.00  0.00    +0.080 C 
BRANCH  24  26
ATOM     25  C   UNL     1      -0.310   1.399   0.057  0.00  0.00    +0.008 C 
ATOM     26  C   UNL     1      -0.128  -0.119   0.010  0.00  0.00    -0.007 C 
ATOM     27  C   UNL     1       0.635  -0.580   1.254  0.00  0.00    +0.008 C 
ENDBRANCH  24  26
ENDBRANCH  23  24
ENDBRANCH   1  23
BRANCH  13  28
ATOM     28  C   UNL     1      -7.712  -0.548  -7.443  0.00  0.00    -0.041 C 
BRANCH  28  29
ATOM     29  C   UNL     1      -8.235  -1.633  -8.350  0.00  0.00    -0.046 A 
ATOM     30  C   UNL     1      -7.351  -2.458  -9.020  0.00  0.00    +0.003 A 
ATOM     31  C   UNL     1      -7.830  -3.453  -9.851  0.00  0.00    +0.000 A 
ATOM     32  C   UNL     1      -9.193  -3.623 -10.013  0.00  0.00    +0.001 A 
ATOM     33  C   UNL     1     -10.077  -2.799  -9.344  0.00  0.00    +0.020 A 
ATOM     34  C   UNL     1      -9.598  -1.806  -8.507  0.00  0.00    +0.042 A 
ATOM     35 CL   UNL     1     -10.708  -0.774  -7.661  0.00  0.00    -0.083 Cl
ENDBRANCH  28  29
ENDBRANCH  13  28
TORSDOF 6
