REMARK  Name = ZINC41805019
REMARK  7 active torsions:
REMARK  status: ('A' for Active; 'I' for Inactive)
REMARK    1  A    between atoms: C_1  and  C_2
REMARK    2  A    between atoms: C_2  and  C_4
REMARK    3  A    between atoms: C_2  and  N_7
REMARK    4  A    between atoms: N_7  and  C_8
REMARK    5  A    between atoms: C_8  and  C_9
REMARK    6  A    between atoms: C_8  and  C_10
REMARK    7  A    between atoms: C_8  and  C_17
REMARK                            x       y       z     vdW  Elec       q    Type
REMARK                         _______ _______ _______ _____ _____    ______ ____
ROOT
ATOM      1  C   UNL     1       0.041  -0.006   2.278  0.00  0.00    +0.059 C 
ATOM      2  C   UNL     1      -0.194   0.890   1.060  0.00  0.00    +0.007 C 
ENDROOT
BRANCH   1   3
ATOM      3  C   UNL     1       0.592   0.821   3.411  0.00  0.00    -0.048 A 
ATOM      4  C   UNL     1       1.892   0.628   3.839  0.00  0.00    +0.004 A 
ATOM      5  C   UNL     1       2.398   1.386   4.878  0.00  0.00    +0.015 A 
ATOM      6  C   UNL     1       1.603   2.338   5.490  0.00  0.00    +0.018 A 
ATOM      7  C   UNL     1       0.302   2.531   5.061  0.00  0.00    +0.015 A 
ATOM      8  C   UNL     1      -0.201   1.776   4.019  0.00  0.00    +0.004 A 
ATOM      9 BR   UNL     1       2.294   3.376   6.912  0.00  0.00    -0.050 Br
ENDBRANCH   1   3
BRANCH   1  10
ATOM     10  N   UNL     1       1.001  -1.062   1.931  0.00  0.00    +0.400 N 
ATOM     11  H   UNL     1       1.881  -0.644   1.666  0.00  0.00    -0.083 HD
ATOM     12  H   UNL     1       0.641  -1.605   1.160  0.00  0.00    -0.083 HD
BRANCH  10  14
ATOM     13  C   UNL     1       0.301  -3.167   2.971  0.00  0.00    -0.004 C 
ATOM     14  C   UNL     1       1.206  -1.939   3.092  0.00  0.00    +0.015 C 
BRANCH  14  15
ATOM     15  C   UNL     1       2.647  -2.379   3.141  0.00  0.00    +0.196 C 
ATOM     16  O   UNL     1       3.426  -2.000   2.293  0.00  0.00    -0.278 OA
ATOM     17  N   UNL     1       3.069  -3.194   4.128  0.00  0.00    -0.331 N 
ATOM     18  H   UNL     1       2.446  -3.497   4.807  0.00  0.00    +0.145 HD
ATOM     19  H   UNL     1       3.996  -3.477   4.160  0.00  0.00    +0.145 HD
ENDBRANCH  14  15
ENDBRANCH  10  14
ENDBRANCH   1  10
BRANCH   1  20
ATOM     20  C   UNL     1      -1.263  -0.632   2.701  0.00  0.00    +0.349 C 
ATOM     21  O   UNL     1      -1.761  -1.518   2.027  0.00  0.00    -0.248 OA
ATOM     22  O   UNL     1      -1.820  -0.252   3.716  0.00  0.00    -0.248 OA
ENDBRANCH   1  20
TORSDOF 5
