REMARK  Name = ZINC61290872
REMARK  11 active torsions:
REMARK  status: ('A' for Active; 'I' for Inactive)
REMARK    1  A    between atoms: C_1  and  C_2
REMARK    2  A    between atoms: C_2  and  N_3
REMARK    3  A    between atoms: N_3  and  C_4
REMARK    4  A    between atoms: C_4  and  C_5
REMARK    5  A    between atoms: C_4  and  C_6
REMARK    6  A    between atoms: C_4  and  C_7
REMARK    7  A    between atoms: N_9  and  C_10
REMARK    8  A    between atoms: C_10  and  C_12
REMARK    9  A    between atoms: C_10  and  C_13
REMARK   10  A    between atoms: C_16  and  S_19
REMARK   11  A    between atoms: S_19  and  N_22
REMARK                            x       y       z     vdW  Elec       q    Type
REMARK                         _______ _______ _______ _____ _____    ______ ____
ROOT
ATOM      1  C   UNL     1      -5.101  -2.350   0.708  0.00  0.00    +0.100 C 
ATOM      2  C   UNL     1      -5.248  -3.402   1.808  0.00  0.00    +0.033 C 
ENDROOT
BRANCH   1   3
ATOM      3  C   UNL     1      -6.054  -1.212   0.970  0.00  0.00    -0.027 A 
ATOM      4  C   UNL     1      -5.728  -0.236   1.892  0.00  0.00    +0.007 A 
ATOM      5  C   UNL     1      -6.602   0.808   2.132  0.00  0.00    +0.029 A 
ATOM      6  C   UNL     1      -7.803   0.875   1.450  0.00  0.00    +0.105 A 
ATOM      7  C   UNL     1      -8.129  -0.102   0.527  0.00  0.00    +0.029 A 
ATOM      8  C   UNL     1      -7.252  -1.143   0.284  0.00  0.00    +0.007 A 
BRANCH   6   9
ATOM      9  S   UNL     1      -8.918   2.204   1.757  0.00  0.00    +0.056 S 
ATOM     10  O   UNL     1     -10.210   1.743   1.390  0.00  0.00    -0.153 OA
ATOM     11  O   UNL     1      -8.623   2.688   3.060  0.00  0.00    -0.153 OA
BRANCH   9  12
ATOM     12  N   UNL     1      -8.532   3.420   0.702  0.00  0.00    -0.204 NA
ATOM     13  H   UNL     1      -9.221   4.026   0.387  0.00  0.00    +0.144 HD
ATOM     14  H   UNL     1      -7.617   3.527   0.398  0.00  0.00    +0.144 HD
ENDBRANCH   9  12
ENDBRANCH   6   9
ENDBRANCH   1   3
BRANCH   1  17
ATOM     15  C   UNL     1      -2.770  -2.503   0.015  0.00  0.00    +0.202 C 
ATOM     16  O   UNL     1      -3.047  -3.517  -0.590  0.00  0.00    -0.277 OA
ATOM     17  N   UNL     1      -3.727  -1.843   0.697  0.00  0.00    -0.310 N 
ATOM     18  H   UNL     1      -3.505  -1.032   1.181  0.00  0.00    +0.149 HD
BRANCH  15  19
ATOM     19  C   UNL     1      -1.356  -1.981   0.004  0.00  0.00    +0.004 C 
ATOM     20  C   UNL     1      -0.640  -2.475  -1.254  0.00  0.00    -0.001 C 
ATOM     21  C   UNL     1      -0.616  -2.488   1.244  0.00  0.00    -0.001 C 
BRANCH  19  22
ATOM     22  N   UNL     1      -1.376  -0.512   0.012  0.00  0.00    +0.388 N 
ATOM     23  H   UNL     1      -1.848  -0.187   0.843  0.00  0.00    -0.084 HD
ATOM     24  H   UNL     1      -1.864  -0.178  -0.805  0.00  0.00    -0.084 HD
BRANCH  22  26
ATOM     25  C   UNL     1      -0.019   1.526   0.010  0.00  0.00    -0.017 C 
ATOM     26  C   UNL     1       0.002  -0.004   0.002  0.00  0.00    -0.085 C 
ENDBRANCH  22  26
ENDBRANCH  19  22
ENDBRANCH  15  19
ENDBRANCH   1  17
TORSDOF 7
