REMARK  Name = ZINC22895735
REMARK  13 active torsions:
REMARK  status: ('A' for Active; 'I' for Inactive)
REMARK    1  A    between atoms: C_1  and  C_2
REMARK    2  A    between atoms: C_2  and  C_3
REMARK    3  A    between atoms: C_3  and  C_4
REMARK    4  A    between atoms: C_4  and  N_5
REMARK    5  A    between atoms: N_5  and  C_6
REMARK    6  A    between atoms: N_5  and  S_8
REMARK    7  A    between atoms: C_6  and  C_7
REMARK    8  A    between atoms: S_8  and  C_11
REMARK    9  A    between atoms: C_14  and  C_17
REMARK   10  A    between atoms: N_19  and  C_20
REMARK   11  A    between atoms: C_20  and  C_21
REMARK   12  A    between atoms: C_31  and  C_35
REMARK   13  A    between atoms: C_35  and  C_36
REMARK                            x       y       z     vdW  Elec       q    Type
REMARK                         _______ _______ _______ _____ _____    ______ ____
ROOT
ATOM      1  C   UNL     1      -3.051   2.907   5.021  0.00  0.00    +0.253 C 
ATOM      2  O   UNL     1      -4.203   2.543   5.159  0.00  0.00    -0.270 OA
ATOM      3  N   UNL     1      -2.540   3.847   5.841  0.00  0.00    -0.239 N 
ATOM      4  C   UNL     1      -3.288   4.319   6.905  0.00  0.00    +0.169 A 
ATOM      5  N   UNL     1      -2.967   5.223   7.802  0.00  0.00    -0.224 NA
ATOM      6  C   UNL     1      -3.805   5.590   8.795  0.00  0.00    +0.080 A 
ATOM      7  C   UNL     1      -3.583   6.543   9.816  0.00  0.00    +0.029 A 
ATOM      8  C   UNL     1      -4.548   6.800  10.755  0.00  0.00    +0.006 A 
ATOM      9  C   UNL     1      -5.769   6.141  10.739  0.00  0.00    -0.046 A 
ATOM     10  C   UNL     1      -6.019   5.203   9.755  0.00  0.00    +0.021 A 
ATOM     11  C   UNL     1      -5.059   4.939   8.810  0.00  0.00    +0.041 A 
ATOM     12  S   UNL     1      -4.942   3.860   7.403  0.00  0.00    -0.052 S 
ENDROOT
BRANCH   1  16
ATOM     13  C   UNL     1      -0.641   1.219   1.959  0.00  0.00    +0.106 A 
ATOM     14  C   UNL     1      -0.745   2.594   2.074  0.00  0.00    +0.029 A 
ATOM     15  C   UNL     1      -1.530   3.148   3.063  0.00  0.00    +0.015 A 
ATOM     16  C   UNL     1      -2.212   2.320   3.956  0.00  0.00    +0.037 A 
ATOM     17  C   UNL     1      -2.099   0.933   3.837  0.00  0.00    +0.015 A 
ATOM     18  C   UNL     1      -1.314   0.391   2.840  0.00  0.00    +0.029 A 
BRANCH  13  19
ATOM     19  S   UNL     1       0.358   0.518   0.688  0.00  0.00    +0.061 S 
ATOM     20  O   UNL     1       0.730  -0.779   1.132  0.00  0.00    -0.153 OA
ATOM     21  O   UNL     1       1.316   1.506   0.334  0.00  0.00    -0.153 OA
BRANCH  19  22
ATOM     22  N   UNL     1      -0.613   0.304  -0.636  0.00  0.00    -0.177 NA
BRANCH  22  23
ATOM     23  C   UNL     1      -0.744   1.374  -1.629  0.00  0.00    +0.106 C 
ATOM     24  C   UNL     1       0.246   1.134  -2.771  0.00  0.00    +0.022 C 
ENDBRANCH  22  23
BRANCH  22  25
ATOM     25  C   UNL     1      -1.341  -0.954  -0.815  0.00  0.00    +0.109 C 
BRANCH  25  26
ATOM     26  C   UNL     1      -2.757  -0.808  -0.256  0.00  0.00    +0.017 C 
BRANCH  26  28
ATOM     27  C   UNL     1      -4.934  -1.977   0.117  0.00  0.00    +0.004 C 
ATOM     28  C   UNL     1      -3.518  -2.123  -0.443  0.00  0.00    -0.002 C 
ENDBRANCH  26  28
ENDBRANCH  25  26
ENDBRANCH  22  25
ENDBRANCH  19  22
ENDBRANCH  13  19
ENDBRANCH   1  16
BRANCH   9  29
ATOM     29  C   UNL     1      -6.811   6.445  11.784  0.00  0.00    +0.032 C 
ATOM     30  C   UNL     1      -6.617   5.514  12.983  0.00  0.00    +0.009 C 
ENDBRANCH   9  29
BRANCH   3  31
ATOM     31  C   UNL     1      -1.191   4.369   5.605  0.00  0.00    +0.190 C 
BRANCH  31  32
ATOM     32  C   UNL     1      -1.284   5.759   5.031  0.00  0.00    +0.123 A 
ATOM     33  C   UNL     1      -1.428   6.894   5.738  0.00  0.00    +0.046 A 
ATOM     34  C   UNL     1      -1.470   7.956   4.805  0.00  0.00    +0.041 A 
ATOM     35  C   UNL     1      -1.349   7.406   3.583  0.00  0.00    +0.195 A 
ATOM     36  O   UNL     1      -1.231   6.076   3.727  0.00  0.00    -0.466 OA
ENDBRANCH  31  32
ENDBRANCH   3  31
TORSDOF 10
