REMARK  Name = ZINC59516167
REMARK  12 active torsions:
REMARK  status: ('A' for Active; 'I' for Inactive)
REMARK    1  A    between atoms: C_1  and  C_2
REMARK    2  A    between atoms: C_5  and  S_8
REMARK    3  A    between atoms: S_8  and  N_11
REMARK    4  A    between atoms: N_11  and  C_12
REMARK    5  A    between atoms: N_11  and  C_19
REMARK    6  A    between atoms: C_12  and  C_13
REMARK    7  A    between atoms: C_19  and  C_20
REMARK    8  A    between atoms: N_22  and  N_23
REMARK    9  A    between atoms: C_24  and  C_25
REMARK   10  A    between atoms: C_30  and  O_31
REMARK   11  A    between atoms: O_31  and  C_32
REMARK   12  A    between atoms: C_32  and  C_33
REMARK                            x       y       z     vdW  Elec       q    Type
REMARK                         _______ _______ _______ _____ _____    ______ ____
ROOT
ATOM      1  C   UNL     1       3.056  -3.789  -1.603  0.00  0.00    +0.248 C 
ATOM      2  O   UNL     1       2.991  -2.883  -0.798  0.00  0.00    -0.273 OA
ATOM      3  N   UNL     1       3.700  -3.607  -2.773  0.00  0.00    -0.206 N 
ATOM      4  H   UNL     1       3.690  -4.305  -3.446  0.00  0.00    +0.177 HD
ENDROOT
BRANCH   3   5
ATOM      5  N   UNL     1       4.382  -2.408  -3.018  0.00  0.00    -0.188 NA
ATOM      6  C   UNL     1       4.915  -2.190  -4.181  0.00  0.00    +0.142 C 
BRANCH   6   7
ATOM      7  C   UNL     1       5.730  -0.983  -4.404  0.00  0.00    +0.036 A 
ATOM      8  C   UNL     1       6.217  -0.690  -5.680  0.00  0.00    +0.013 A 
ATOM      9  C   UNL     1       6.979   0.442  -5.882  0.00  0.00    +0.001 A 
ATOM     10  C   UNL     1       7.264   1.289  -4.824  0.00  0.00    +0.004 A 
ATOM     11  C   UNL     1       6.789   1.010  -3.557  0.00  0.00    +0.046 A 
ATOM     12  C   UNL     1       6.017  -0.120  -3.338  0.00  0.00    +0.130 A 
BRANCH  12  13
ATOM     13  O   UNL     1       5.545  -0.392  -2.094  0.00  0.00    -0.487 OA
BRANCH  13  14
ATOM     14  C   UNL     1       5.789   0.584  -1.079  0.00  0.00    +0.264 C 
BRANCH  14  15
ATOM     15  C   UNL     1       5.305   0.061   0.248  0.00  0.00    -0.010 A 
ATOM     16  C   UNL     1       4.039   0.384   0.699  0.00  0.00    +0.007 A 
ATOM     17  C   UNL     1       3.595  -0.096   1.917  0.00  0.00    +0.000 A 
ATOM     18  C   UNL     1       4.418  -0.900   2.684  0.00  0.00    +0.000 A 
ATOM     19  C   UNL     1       5.683  -1.224   2.233  0.00  0.00    +0.000 A 
ATOM     20  C   UNL     1       6.125  -0.748   1.013  0.00  0.00    +0.007 A 
ENDBRANCH  14  15
ENDBRANCH  13  14
ENDBRANCH  12  13
ENDBRANCH   6   7
ENDBRANCH   3   5
BRANCH   1  21
ATOM     21  C   UNL     1       2.418  -5.119  -1.293  0.00  0.00    +0.207 C 
BRANCH  21  22
ATOM     22  N   UNL     1       1.677  -5.023  -0.033  0.00  0.00    -0.163 NA
BRANCH  22  23
ATOM     23  S   UNL     1       0.050  -4.715  -0.049  0.00  0.00    +0.062 S 
ATOM     24  O   UNL     1      -0.451  -5.110   1.220  0.00  0.00    -0.153 OA
ATOM     25  O   UNL     1      -0.452  -5.250  -1.267  0.00  0.00    -0.153 OA
BRANCH  23  30
ATOM     26  C   UNL     1      -0.632   1.271  -0.385  0.00  0.00    +0.044 C 
ATOM     27  C   UNL     1      -0.462  -0.224  -0.301  0.00  0.00    -0.050 A 
ATOM     28  C   UNL     1      -0.487  -0.989  -1.452  0.00  0.00    +0.005 A 
ATOM     29  C   UNL     1      -0.331  -2.360  -1.376  0.00  0.00    +0.029 A 
ATOM     30  C   UNL     1      -0.148  -2.967  -0.147  0.00  0.00    +0.106 A 
ATOM     31  C   UNL     1      -0.122  -2.203   1.004  0.00  0.00    +0.029 A 
ATOM     32  C   UNL     1      -0.274  -0.831   0.927  0.00  0.00    +0.005 A 
ENDBRANCH  23  30
ENDBRANCH  22  23
BRANCH  22  33
ATOM     33  C   UNL     1       2.376  -5.200   1.243  0.00  0.00    +0.145 C 
BRANCH  33  34
ATOM     34  C   UNL     1       2.460  -6.668   1.571  0.00  0.00    -0.032 A 
ATOM     35  C   UNL     1       1.451  -7.272   2.298  0.00  0.00    +0.005 A 
ATOM     36  C   UNL     1       1.528  -8.620   2.599  0.00  0.00    +0.000 A 
ATOM     37  C   UNL     1       2.612  -9.362   2.171  0.00  0.00    +0.000 A 
ATOM     38  C   UNL     1       3.620  -8.758   1.443  0.00  0.00    +0.000 A 
ATOM     39  C   UNL     1       3.542  -7.412   1.139  0.00  0.00    +0.005 A 
ENDBRANCH  33  34
ENDBRANCH  22  33
ENDBRANCH  21  22
ENDBRANCH   1  21
TORSDOF 11
