REMARK  Name = ZINC15109381
REMARK  12 active torsions:
REMARK  status: ('A' for Active; 'I' for Inactive)
REMARK    1  A    between atoms: C_1  and  C_2
REMARK    2  A    between atoms: C_2  and  C_4
REMARK    3  A    between atoms: C_2  and  S_16
REMARK    4  A    between atoms: N_6  and  C_7
REMARK    5  A    between atoms: C_12  and  C_13
REMARK    6  A    between atoms: C_13  and  C_14
REMARK    7  A    between atoms: C_13  and  C_15
REMARK    8  A    between atoms: S_16  and  C_17
REMARK    9  A    between atoms: N_21  and  C_22
REMARK   10  A    between atoms: C_25  and  C_28
REMARK   11  A    between atoms: C_28  and  C_29
REMARK   12  A    between atoms: C_28  and  C_30
REMARK                            x       y       z     vdW  Elec       q    Type
REMARK                         _______ _______ _______ _____ _____    ______ ____
ROOT
ATOM      1  C   UNL     1       0.001   1.510   0.003  0.00  0.00    +0.029 C 
ATOM      2  C   UNL     1       0.009  -0.020  -0.002  0.00  0.00    +0.137 C 
ENDROOT
BRANCH   2   3
ATOM      3  C   UNL     1      -1.409  -0.530   0.011  0.00  0.00    +0.230 C 
ATOM      4  O   UNL     1      -1.938  -0.825   1.062  0.00  0.00    -0.274 OA
ATOM      5  N   UNL     1      -2.089  -0.659  -1.146  0.00  0.00    -0.284 N 
ATOM      6  H   UNL     1      -1.696  -0.349  -1.977  0.00  0.00    +0.155 HD
BRANCH   5   7
ATOM      7  C   UNL     1      -3.363  -1.240  -1.147  0.00  0.00    +0.037 A 
ATOM      8  C   UNL     1      -3.725  -2.125  -0.141  0.00  0.00    +0.023 A 
ATOM      9  C   UNL     1      -4.982  -2.696  -0.145  0.00  0.00    +0.002 A 
ATOM     10  C   UNL     1      -5.880  -2.388  -1.151  0.00  0.00    +0.000 A 
ATOM     11  C   UNL     1      -5.522  -1.507  -2.155  0.00  0.00    +0.006 A 
ATOM     12  C   UNL     1      -4.268  -0.927  -2.153  0.00  0.00    -0.024 A 
BRANCH  12  13
ATOM     13  C   UNL     1      -3.881   0.038  -3.244  0.00  0.00    +0.015 C 
ATOM     14  C   UNL     1      -4.084  -0.626  -4.607  0.00  0.00    +0.012 C 
ATOM     15  C   UNL     1      -4.755   1.290  -3.150  0.00  0.00    +0.012 C 
ENDBRANCH  12  13
ENDBRANCH   5   7
ENDBRANCH   2   3
BRANCH   2  16
ATOM     16  S   UNL     1       0.882  -0.625   1.469  0.00  0.00    -0.072 S 
BRANCH  16  17
ATOM     17  C   UNL     1       2.540  -0.076   1.236  0.00  0.00    +0.215 A 
ATOM     18  N   UNL     1       2.998   0.618   0.216  0.00  0.00    -0.101 NA
ATOM     19  N   UNL     1       4.253   0.852   0.359  0.00  0.00    -0.022 NA
ATOM     20  N   UNL     1       4.684   0.337   1.459  0.00  0.00    -0.038 NA
ATOM     21  N   UNL     1       3.584  -0.284   2.076  0.00  0.00    -0.187 N 
BRANCH  21  22
ATOM     22  C   UNL     1       3.571  -0.973   3.298  0.00  0.00    +0.070 A 
ATOM     23  C   UNL     1       2.452  -0.911   4.118  0.00  0.00    +0.028 A 
ATOM     24  C   UNL     1       2.441  -1.590   5.321  0.00  0.00    +0.006 A 
ATOM     25  C   UNL     1       3.543  -2.331   5.708  0.00  0.00    -0.045 A 
ATOM     26  C   UNL     1       4.658  -2.394   4.893  0.00  0.00    +0.006 A 
ATOM     27  C   UNL     1       4.673  -1.722   3.687  0.00  0.00    +0.028 A 
BRANCH  25  28
ATOM     28  C   UNL     1       3.528  -3.070   7.021  0.00  0.00    +0.013 C 
ATOM     29  C   UNL     1       3.715  -4.567   6.766  0.00  0.00    +0.012 C 
ATOM     30  C   UNL     1       4.665  -2.558   7.908  0.00  0.00    +0.012 C 
ENDBRANCH  25  28
ENDBRANCH  21  22
ENDBRANCH  16  17
ENDBRANCH   2  16
TORSDOF 7
