REMARK  Name = ZINC14471738
REMARK  5 active torsions:
REMARK  status: ('A' for Active; 'I' for Inactive)
REMARK    1  A    between atoms: C_1  and  C_2
REMARK    2  A    between atoms: N_5  and  S_8
REMARK    3  A    between atoms: S_8  and  C_11
REMARK    4  A    between atoms: C_24  and  C_27
REMARK    5  A    between atoms: C_31  and  N_33
REMARK                            x       y       z     vdW  Elec       q    Type
REMARK                         _______ _______ _______ _____ _____    ______ ____
ROOT
ATOM      1  C   UNL     1      -1.218   1.754   0.017  0.00  0.00    +0.106 A 
ATOM      2  C   UNL     1      -0.013   1.076   0.008  0.00  0.00    +0.030 A 
ATOM      3  C   UNL     1       1.172   1.785   0.001  0.00  0.00    +0.025 A 
ATOM      4  C   UNL     1       1.149   3.175   0.009  0.00  0.00    +0.031 A 
ATOM      5  C   UNL     1      -0.054   3.857   0.026  0.00  0.00    -0.018 A 
ATOM      6  C   UNL     1      -1.240   3.134   0.031  0.00  0.00    +0.034 A 
ATOM      7  C   UNL     1      -0.143   5.360   0.043  0.00  0.00    +0.049 C 
ATOM      8  C   UNL     1      -0.893   5.758   1.307  0.00  0.00    -0.023 C 
ATOM      9  C   UNL     1      -0.050   6.066   2.260  0.00  0.00    -0.030 C 
ATOM     10  C   UNL     1       1.381   5.922   1.772  0.00  0.00    +0.033 C 
ATOM     11  C   UNL     1       1.232   6.025   0.235  0.00  0.00    +0.029 C 
ATOM     12  C   UNL     1       2.339   5.267  -0.472  0.00  0.00    +0.105 C 
ATOM     13  N   UNL     1       2.360   3.877  -0.003  0.00  0.00    -0.336 N 
ATOM     14  H   UNL     1       3.185   3.458   0.289  0.00  0.00    +0.147 HD
ENDROOT
BRANCH  12  15
ATOM     15  C   UNL     1       2.094   5.291  -1.959  0.00  0.00    -0.025 A 
ATOM     16  C   UNL     1       1.188   4.413  -2.525  0.00  0.00    +0.005 A 
ATOM     17  C   UNL     1       0.960   4.439  -3.888  0.00  0.00    +0.003 A 
ATOM     18  C   UNL     1       1.645   5.335  -4.687  0.00  0.00    +0.033 A 
ATOM     19  C   UNL     1       2.554   6.210  -4.122  0.00  0.00    +0.127 A 
ATOM     20  C   UNL     1       2.779   6.187  -2.758  0.00  0.00    +0.038 A 
BRANCH  19  21
ATOM     21  N   UNL     1       3.288   7.169  -4.977  0.00  0.00    +0.056 N 
ATOM     22  O   UNL     1       4.090   7.939  -4.479  0.00  0.00    -0.126 OA
ATOM     23  O   UNL     1       3.090   7.189  -6.179  0.00  0.00    -0.126 OA
ENDBRANCH  19  21
ENDBRANCH  12  15
BRANCH   1  24
ATOM     24  S   UNL     1      -2.732   0.853   0.018  0.00  0.00    +0.061 S 
ATOM     25  O   UNL     1      -3.720   1.718  -0.523  0.00  0.00    -0.153 OA
ATOM     26  O   UNL     1      -2.446  -0.422  -0.542  0.00  0.00    -0.153 OA
BRANCH  24  31
ATOM     27  C   UNL     1      -2.233   1.099   5.725  0.00  0.00    +0.007 C 
ATOM     28  C   UNL     1      -2.920   0.701   4.418  0.00  0.00    -0.012 C 
ATOM     29  C   UNL     1      -3.261   1.961   3.617  0.00  0.00    +0.020 C 
ATOM     30  C   UNL     1      -3.980   1.561   2.325  0.00  0.00    +0.110 C 
ATOM     31  N   UNL     1      -3.146   0.592   1.600  0.00  0.00    -0.177 NA
ATOM     32  C   UNL     1      -2.691  -0.615   2.304  0.00  0.00    +0.110 C 
ATOM     33  C   UNL     1      -1.982  -0.188   3.598  0.00  0.00    +0.020 C 
ENDBRANCH  24  31
ENDBRANCH   1  24
TORSDOF 4
