REMARK  Name = ZINC40347470
REMARK  6 active torsions:
REMARK  status: ('A' for Active; 'I' for Inactive)
REMARK    1  A    between atoms: C_4  and  C_8
REMARK    2  A    between atoms: C_8  and  N_9
REMARK    3  A    between atoms: N_9  and  S_10
REMARK    4  A    between atoms: S_10  and  C_13
REMARK    5  A    between atoms: C_16  and  O_20
REMARK    6  A    between atoms: C_17  and  N_19
REMARK                            x       y       z     vdW  Elec       q    Type
REMARK                         _______ _______ _______ _____ _____    ______ ____
ROOT
ATOM      1  S   UNL     1       5.504  -1.787   1.675  0.00  0.00    +0.059 S 
ATOM      2  O   UNL     1       5.837  -1.567   3.039  0.00  0.00    -0.153 OA
ATOM      3  O   UNL     1       5.114  -3.061   1.182  0.00  0.00    -0.153 OA
ENDROOT
BRANCH   1   4
ATOM      4  C   UNL     1       6.903  -1.286   0.729  0.00  0.00    +0.107 A 
ATOM      5  C   UNL     1       7.100  -1.805  -0.538  0.00  0.00    +0.032 A 
ATOM      6  C   UNL     1       8.196  -1.415  -1.285  0.00  0.00    +0.049 A 
ATOM      7  C   UNL     1       9.101  -0.503  -0.766  0.00  0.00    +0.137 A 
ATOM      8  C   UNL     1       8.903   0.019   0.510  0.00  0.00    +0.068 A 
ATOM      9  C   UNL     1       7.798  -0.372   1.252  0.00  0.00    +0.055 A 
BRANCH   8  10
ATOM     10  N   UNL     1       9.813   0.941   1.039  0.00  0.00    -0.355 N 
ATOM     11  H   UNL     1      10.584   1.216   0.518  0.00  0.00    +0.142 HD
ATOM     12  H   UNL     1       9.674   1.304   1.928  0.00  0.00    +0.142 HD
ENDBRANCH   8  10
BRANCH   7  13
ATOM     13  O   UNL     1      10.179  -0.120  -1.501  0.00  0.00    -0.505 OA
ATOM     14  H   UNL     1      10.021   0.654  -2.058  0.00  0.00    +0.292 HD
ENDBRANCH   7  13
ENDBRANCH   1   4
BRANCH   1  15
ATOM     15  N   UNL     1       4.270  -0.743   1.315  0.00  0.00    -0.186 NA
ATOM     16  H   UNL     1       3.916  -0.155   2.001  0.00  0.00    +0.148 HD
BRANCH  15  17
ATOM     17  C   UNL     1       3.713  -0.706  -0.039  0.00  0.00    +0.142 C 
BRANCH  17  21
ATOM     18  C   UNL     1      -0.017   1.380   0.010  0.00  0.00    +0.039 A 
ATOM     19  C   UNL     1       1.171   2.087   0.002  0.00  0.00    +0.018 A 
ATOM     20  C   UNL     1       2.378   1.412  -0.013  0.00  0.00    +0.022 A 
ATOM     21  C   UNL     1       2.397   0.029  -0.022  0.00  0.00    -0.015 A 
ATOM     22  C   UNL     1       1.211  -0.679  -0.014  0.00  0.00    +0.044 A 
ATOM     23  C   UNL     1       0.002  -0.004   0.002  0.00  0.00    +0.124 A 
ATOM     24  F   UNL     1      -1.158  -0.696   0.010  0.00  0.00    -0.205 F 
ATOM     25 BR   UNL     1       4.002   2.380  -0.025  0.00  0.00    -0.050 Br
ENDBRANCH  17  21
ENDBRANCH  15  17
ENDBRANCH   1  15
TORSDOF 6
