REMARK  Name = ZINC36290401
REMARK  3 active torsions:
REMARK  status: ('A' for Active; 'I' for Inactive)
REMARK    1  A    between atoms: C_3  and  C_7
REMARK    2  A    between atoms: C_12  and  N_22
REMARK    3  A    between atoms: C_13  and  C_15
REMARK                            x       y       z     vdW  Elec       q    Type
REMARK                         _______ _______ _______ _____ _____    ______ ____
ROOT
ATOM      1  C   UNL     1       3.680   2.029  -0.023  0.00  0.00    +0.065 A 
ATOM      2  C   UNL     1       4.055   2.768   1.038  0.00  0.00    +0.075 A 
ATOM      3  S   UNL     1       5.661   3.361   0.529  0.00  0.00    -0.057 S 
ATOM      4  C   UNL     1       5.715   2.578  -1.065  0.00  0.00    +0.180 A 
ATOM      5  N   UNL     1       4.517   1.907  -1.121  0.00  0.00    -0.274 N 
ATOM      6  C   UNL     1       4.513   1.269  -2.357  0.00  0.00    +0.129 A 
ATOM      7  C   UNL     1       5.686   1.571  -2.978  0.00  0.00    +0.112 A 
ATOM      8  N   UNL     1       6.397   2.386  -2.155  0.00  0.00    -0.219 NA
ENDROOT
BRANCH   7   9
ATOM      9  C   UNL     1       6.107   1.104  -4.319  0.00  0.00    +0.004 A 
ATOM     10  C   UNL     1       5.749  -0.170  -4.761  0.00  0.00    +0.013 A 
ATOM     11  C   UNL     1       6.144  -0.600  -6.011  0.00  0.00    +0.039 A 
ATOM     12  C   UNL     1       6.896   0.230  -6.826  0.00  0.00    +0.123 A 
ATOM     13  C   UNL     1       7.255   1.495  -6.392  0.00  0.00    +0.039 A 
ATOM     14  C   UNL     1       6.859   1.938  -5.146  0.00  0.00    +0.013 A 
ATOM     15  F   UNL     1       7.282  -0.197  -8.049  0.00  0.00    -0.205 F 
ENDBRANCH   7   9
BRANCH   1  18
ATOM     16  C   UNL     1      -0.017   1.379   0.010  0.00  0.00    +0.020 A 
ATOM     17  C   UNL     1       1.181   2.073   0.002  0.00  0.00    +0.013 A 
ATOM     18  C   UNL     1       2.373   1.339  -0.013  0.00  0.00    +0.018 A 
ATOM     19  C   UNL     1       2.306  -0.055  -0.020  0.00  0.00    +0.120 A 
ATOM     20  N   UNL     1       1.141  -0.670  -0.012  0.00  0.00    -0.263 NA
ATOM     21  C   UNL     1       0.002  -0.004   0.002  0.00  0.00    +0.111 A 
ENDBRANCH   1  18
BRANCH   6  22
ATOM     22  N   UNL     1       3.492   0.464  -2.866  0.00  0.00    -0.342 N 
ATOM     23  H   UNL     1       2.691   0.308  -2.343  0.00  0.00    +0.144 HD
ATOM     24  H   UNL     1       3.585   0.061  -3.744  0.00  0.00    +0.144 HD
ENDBRANCH   6  22
TORSDOF 3
