REMARK  Name = ZINC12780301
REMARK  11 active torsions:
REMARK  status: ('A' for Active; 'I' for Inactive)
REMARK    1  A    between atoms: C_1  and  C_2
REMARK    2  A    between atoms: C_2  and  C_3
REMARK    3  A    between atoms: C_2  and  C_4
REMARK    4  A    between atoms: C_4  and  C_6
REMARK    5  A    between atoms: C_4  and  N_28
REMARK    6  A    between atoms: C_6  and  O_8
REMARK    7  A    between atoms: O_8  and  C_9
REMARK    8  A    between atoms: C_9  and  C_10
REMARK    9  A    between atoms: C_13  and  C_23
REMARK   10  A    between atoms: C_16  and  C_18
REMARK   11  A    between atoms: C_29  and  C_31
REMARK                            x       y       z     vdW  Elec       q    Type
REMARK                         _______ _______ _______ _____ _____    ______ ____
ROOT
ATOM      1  O   UNL     1       1.165   1.688  -2.738  0.00  0.00    -0.454 OA
ENDROOT
BRANCH   1   2
ATOM      2  C   UNL     1      -0.127   1.447  -2.466  0.00  0.00    +0.328 C 
ATOM      3  O   UNL     1      -0.784   0.760  -3.212  0.00  0.00    -0.249 OA
BRANCH   2   4
ATOM      4  C   UNL     1      -0.759   2.033  -1.229  0.00  0.00    +0.185 C 
BRANCH   4   5
ATOM      5  N   UNL     1      -2.164   1.626  -1.159  0.00  0.00    -0.298 N 
ATOM      6  C   UNL     1      -3.051   2.380  -0.480  0.00  0.00    +0.247 C 
ATOM      7  O   UNL     1      -2.685   3.398   0.074  0.00  0.00    -0.270 OA
ATOM      8  H   UNL     1      -2.457   0.813  -1.602  0.00  0.00    +0.150 HD
BRANCH   6   9
ATOM      9  C   UNL     1      -4.468   1.969  -0.410  0.00  0.00    +0.072 A 
ATOM     10  C   UNL     1      -4.893   0.800  -1.045  0.00  0.00    +0.016 A 
ATOM     11  C   UNL     1      -6.217   0.423  -0.975  0.00  0.00    +0.001 A 
ATOM     12  C   UNL     1      -7.127   1.198  -0.277  0.00  0.00    +0.003 A 
ATOM     13  C   UNL     1      -6.716   2.356   0.356  0.00  0.00    +0.039 A 
ATOM     14  C   UNL     1      -5.390   2.746   0.299  0.00  0.00    +0.135 A 
ATOM     15  F   UNL     1      -4.988   3.875   0.921  0.00  0.00    -0.205 F 
ENDBRANCH   6   9
ENDBRANCH   4   5
BRANCH   4  17
ATOM     16  C   UNL     1       0.002  -0.004   0.002  0.00  0.00    +0.009 C 
ATOM     17  C   UNL     1      -0.019   1.526   0.010  0.00  0.00    +0.014 C 
ATOM     18  C   UNL     1       1.417   2.055  -0.000  0.00  0.00    +0.009 C 
ENDBRANCH   4  17
ENDBRANCH   2   4
ENDBRANCH   1   2
BRANCH   1  19
ATOM     19  C   UNL     1       1.707   1.092  -3.946  0.00  0.00    +0.329 C 
BRANCH  19  20
ATOM     20  C   UNL     1       3.159   1.470  -4.085  0.00  0.00    +0.273 C 
ATOM     21  O   UNL     1       3.686   2.173  -3.248  0.00  0.00    -0.270 OA
ATOM     22  N   UNL     1       3.873   1.027  -5.139  0.00  0.00    -0.179 N 
ATOM     23  C   UNL     1       5.292   1.320  -5.396  0.00  0.00    +0.173 C 
ATOM     24  C   UNL     1       5.584   0.574  -6.712  0.00  0.00    +0.090 C 
ATOM     25  C   UNL     1       4.264  -0.075  -7.065  0.00  0.00    +0.075 C 
ATOM     26  N   UNL     1       3.388   0.213  -6.161  0.00  0.00    -0.180 NA
BRANCH  25  27
ATOM     27  C   UNL     1       4.019  -0.907  -8.247  0.00  0.00    +0.035 A 
ATOM     28  C   UNL     1       2.852  -1.536  -8.645  0.00  0.00    +0.017 A 
ATOM     29  C   UNL     1       2.869  -2.272  -9.807  0.00  0.00    +0.008 A 
ATOM     30  C   UNL     1       4.021  -2.358 -10.522  0.00  0.00    +0.046 A 
ATOM     31  S   UNL     1       5.146  -1.368  -9.553  0.00  0.00    -0.095 S 
ENDBRANCH  25  27
BRANCH  23  32
ATOM     32  C   UNL     1       6.153   0.784  -4.281  0.00  0.00    +0.128 A 
ATOM     33  C   UNL     1       7.237   1.391  -3.763  0.00  0.00    +0.046 A 
ATOM     34  C   UNL     1       7.734   0.543  -2.747  0.00  0.00    +0.041 A 
ATOM     35  C   UNL     1       6.925  -0.530  -2.704  0.00  0.00    +0.195 A 
ATOM     36  O   UNL     1       5.965  -0.376  -3.631  0.00  0.00    -0.466 OA
ENDBRANCH  23  32
ENDBRANCH  19  20
ENDBRANCH   1  19
TORSDOF 9
