REMARK  Name = ZINC39977103
REMARK  7 active torsions:
REMARK  status: ('A' for Active; 'I' for Inactive)
REMARK    1  A    between atoms: C_1  and  S_2
REMARK    2  A    between atoms: S_2  and  C_3
REMARK    3  A    between atoms: C_8  and  C_10
REMARK    4  A    between atoms: C_10  and  S_11
REMARK    5  A    between atoms: S_11  and  C_12
REMARK    6  A    between atoms: C_16  and  C_22
REMARK    7  A    between atoms: N_18  and  C_19
REMARK                            x       y       z     vdW  Elec       q    Type
REMARK                         _______ _______ _______ _____ _____    ______ ____
ROOT
ATOM      1  C   UNL     1     -10.680  -2.234   0.090  0.00  0.00    +0.078 C 
ATOM      2  N   UNL     1     -10.657  -3.156  -1.075  0.00  0.00    -0.261 NA
ATOM      3  N   UNL     1     -11.501  -4.276  -0.629  0.00  0.00    -0.264 NA
ATOM      4  C   UNL     1     -11.175  -4.436   0.806  0.00  0.00    +0.086 C 
ATOM      5  N   UNL     1     -10.654  -3.131   1.269  0.00  0.00    +0.414 N 
ATOM      6  H   UNL     1     -11.046  -2.714  -1.894  0.00  0.00    +0.140 HD
ATOM      7  H   UNL     1     -11.288  -5.117  -1.144  0.00  0.00    +0.139 HD
ATOM      8  H   UNL     1      -9.708  -3.235   1.604  0.00  0.00    -0.075 HD
ENDROOT
BRANCH   4   9
ATOM      9  C   UNL     1     -10.128  -5.505   0.982  0.00  0.00    +0.106 A 
ATOM     10  C   UNL     1      -9.969  -6.587   0.199  0.00  0.00    +0.044 A 
ATOM     11  C   UNL     1      -8.877  -7.316   0.724  0.00  0.00    +0.041 A 
ATOM     12  C   UNL     1      -8.434  -6.635   1.796  0.00  0.00    +0.195 A 
ATOM     13  O   UNL     1      -9.192  -5.537   1.944  0.00  0.00    -0.468 OA
ENDBRANCH   4   9
BRANCH   5  14
ATOM     14  C   UNL     1     -11.511  -2.590   2.332  0.00  0.00    -0.062 C 
ATOM     15  C   UNL     1     -10.912  -2.483   3.736  0.00  0.00    -0.017 C 
ATOM     16  C   UNL     1     -11.146  -1.219   2.906  0.00  0.00    -0.017 C 
ENDBRANCH   5  14
BRANCH   1  17
ATOM     17  S   UNL     1      -9.219  -1.159   0.078  0.00  0.00    -0.150 S 
BRANCH  17  18
ATOM     18  C   UNL     1      -7.822  -2.317   0.066  0.00  0.00    +0.164 C 
BRANCH  18  24
ATOM     19  C   UNL     1      -1.702  -0.454   0.016  0.00  0.00    +0.160 A 
ATOM     20  N   UNL     1      -2.784   0.310   0.024  0.00  0.00    -0.133 NA
ATOM     21  N   UNL     1      -3.946  -0.180   0.034  0.00  0.00    -0.125 NA
ATOM     22  C   UNL     1      -4.156  -1.486   0.036  0.00  0.00    +0.189 A 
ATOM     23  N   UNL     1      -5.352  -2.200   0.046  0.00  0.00    -0.263 N 
ATOM     24  C   UNL     1      -6.529  -1.544   0.056  0.00  0.00    +0.229 C 
ATOM     25  O   UNL     1      -6.547  -0.331   0.056  0.00  0.00    -0.275 OA
ATOM     26  S   UNL     1      -2.465  -2.073   0.015  0.00  0.00    -0.024 S 
ATOM     27  H   UNL     1      -5.337  -3.170   0.045  0.00  0.00    +0.157 HD
BRANCH  19  29
ATOM     28  C   UNL     1      -0.022   1.810   0.012  0.00  0.00    +0.092 C 
ATOM     29  S   UNL     1       0.002  -0.004   0.002  0.00  0.00    -0.100 S 
ENDBRANCH  19  29
ENDBRANCH  18  24
ENDBRANCH  17  18
ENDBRANCH   1  17
TORSDOF 6
