REMARK  Name = ZINC31766610
REMARK  6 active torsions:
REMARK  status: ('A' for Active; 'I' for Inactive)
REMARK    1  A    between atoms: C_1  and  C_2
REMARK    2  A    between atoms: C_7  and  C_8
REMARK    3  A    between atoms: C_8  and  N_9
REMARK    4  A    between atoms: C_16  and  C_18
REMARK    5  A    between atoms: C_21  and  C_24
REMARK    6  A    between atoms: C_24  and  N_25
REMARK                            x       y       z     vdW  Elec       q    Type
REMARK                         _______ _______ _______ _____ _____    ______ ____
ROOT
ATOM      1  N   UNL     1      -1.796   1.041  -0.156  0.00  0.00    +0.383 N 
ATOM      2  C   UNL     1      -1.835   2.436  -0.594  0.00  0.00    -0.077 C 
ATOM      3  C   UNL     1      -2.699   3.230   0.360  0.00  0.00    +0.000 C 
ATOM      4  C   UNL     1      -1.821   3.841   1.466  0.00  0.00    +0.106 C 
ATOM      5  N   UNL     1      -0.782   2.891   1.910  0.00  0.00    -0.299 N 
ATOM      6  C   UNL     1      -1.053   1.482   2.111  0.00  0.00    +0.089 C 
ATOM      7  C   UNL     1      -0.801   0.710   0.793  0.00  0.00    -0.059 C 
ATOM      8  C   UNL     1       0.463   3.353   2.138  0.00  0.00    +0.247 C 
ATOM      9  O   UNL     1       0.748   4.500   1.853  0.00  0.00    -0.270 OA
ATOM     10  H   UNL     1      -2.715   0.903   0.432  0.00  0.00    -0.081 HD
ENDROOT
BRANCH   8  11
ATOM     11  C   UNL     1       1.484   2.466   2.735  0.00  0.00    +0.037 A 
ATOM     12  C   UNL     1       1.390   1.082   2.574  0.00  0.00    +0.013 A 
ATOM     13  C   UNL     1       2.348   0.260   3.129  0.00  0.00    +0.006 A 
ATOM     14  C   UNL     1       3.394   0.802   3.854  0.00  0.00    -0.030 A 
ATOM     15  C   UNL     1       3.489   2.172   4.023  0.00  0.00    +0.006 A 
ATOM     16  C   UNL     1       2.541   3.006   3.468  0.00  0.00    +0.013 A 
BRANCH  14  17
ATOM     17  C   UNL     1       4.434  -0.102   4.463  0.00  0.00    +0.141 C 
BRANCH  17  18
ATOM     18  N   UNL     1       4.018  -0.486   5.814  0.00  0.00    -0.295 N 
ATOM     19  C   UNL     1       4.799  -1.297   6.555  0.00  0.00    +0.297 C 
ATOM     20  O   UNL     1       5.848  -1.712   6.101  0.00  0.00    -0.253 OA
ATOM     21  N   UNL     1       4.416  -1.650   7.798  0.00  0.00    -0.313 N 
ATOM     22  H   UNL     1       3.069  -0.111   6.224  0.00  0.00    +0.151 HD
ATOM     23  H   UNL     1       5.053  -2.312   8.402  0.00  0.00    +0.146 HD
ATOM     24  H   UNL     1       3.466  -1.275   8.208  0.00  0.00    +0.146 HD
ENDBRANCH  17  18
ENDBRANCH  14  17
ENDBRANCH   8  11
BRANCH   1  25
ATOM     25  C   UNL     1      -1.751   0.129  -1.306  0.00  0.00    -0.043 C 
BRANCH  25  32
ATOM     26  C   UNL     1       0.017  -2.151  -1.458  0.00  0.00    +0.044 C 
ATOM     27  C   UNL     1       0.429  -0.836  -2.068  0.00  0.00    -0.049 A 
ATOM     28  C   UNL     1       1.652  -0.722  -2.703  0.00  0.00    +0.003 A 
ATOM     29  C   UNL     1       2.033   0.485  -3.258  0.00  0.00    +0.000 A 
ATOM     30  C   UNL     1       1.189   1.578  -3.181  0.00  0.00    +0.000 A 
ATOM     31  C   UNL     1      -0.035   1.463  -2.549  0.00  0.00    +0.002 A 
ATOM     32  C   UNL     1      -0.416   0.255  -1.995  0.00  0.00    -0.061 A 
ENDBRANCH  25  32
ENDBRANCH   1  25
TORSDOF 5
