REMARK  Name = ZINC36243634
REMARK  3 active torsions:
REMARK  status: ('A' for Active; 'I' for Inactive)
REMARK    1  A    between atoms: C_1  and  C_2
REMARK    2  A    between atoms: C_7  and  C_12
REMARK    3  A    between atoms: C_10  and  N_11
REMARK                            x       y       z     vdW  Elec       q    Type
REMARK                         _______ _______ _______ _____ _____    ______ ____
ROOT
ATOM      1  C   UNL     1      -0.018   1.503   0.010  0.00  0.00    +0.046 C 
ATOM      2  C   UNL     1       0.002  -0.004   0.002  0.00  0.00    -0.025 A 
ATOM      3  C   UNL     1       0.006  -0.703  -1.216  0.00  0.00    +0.023 A 
ATOM      4  C   UNL     1       0.024  -2.052  -1.228  0.00  0.00    +0.093 A 
ATOM      5  N   UNL     1       0.038  -2.762  -0.059  0.00  0.00    -0.305 N 
ATOM      6  C   UNL     1       0.056  -4.102   0.203  0.00  0.00    +0.121 A 
ATOM      7  C   UNL     1       0.064  -4.245   1.558  0.00  0.00    +0.090 A 
ATOM      8  N   UNL     1       0.051  -3.022   2.110  0.00  0.00    -0.226 NA
ATOM      9  C   UNL     1       0.035  -2.113   1.148  0.00  0.00    +0.159 A 
ATOM     10  C   UNL     1       0.023  -0.697   1.179  0.00  0.00    +0.071 A 
ENDROOT
BRANCH   7  11
ATOM     11  C   UNL     1       0.083  -5.532   2.296  0.00  0.00    +0.005 A 
ATOM     12  C   UNL     1       0.100  -6.752   1.613  0.00  0.00    +0.030 A 
ATOM     13  C   UNL     1       0.117  -7.925   2.339  0.00  0.00    +0.111 A 
ATOM     14  N   UNL     1       0.117  -7.905   3.658  0.00  0.00    -0.263 NA
ATOM     15  C   UNL     1       0.101  -6.776   4.341  0.00  0.00    +0.111 A 
ATOM     16  C   UNL     1       0.090  -5.558   3.694  0.00  0.00    +0.030 A 
ENDBRANCH   7  11
BRANCH  10  17
ATOM     17  N   UNL     1       0.025  -0.017   2.399  0.00  0.00    -0.355 N 
ATOM     18  H   UNL     1       0.012   0.953   2.414  0.00  0.00    +0.142 HD
ATOM     19  H   UNL     1       0.040  -0.515   3.231  0.00  0.00    +0.142 HD
ENDBRANCH  10  17
TORSDOF 2
