REMARK  Name = ZINC66501714
REMARK  10 active torsions:
REMARK  status: ('A' for Active; 'I' for Inactive)
REMARK    1  A    between atoms: C_1  and  C_2
REMARK    2  A    between atoms: C_2  and  C_3
REMARK    3  A    between atoms: C_2  and  C_4
REMARK    4  A    between atoms: C_2  and  C_5
REMARK    5  A    between atoms: C_7  and  C_10
REMARK    6  A    between atoms: C_10  and  S_11
REMARK    7  A    between atoms: S_11  and  C_14
REMARK    8  A    between atoms: C_14  and  C_15
REMARK    9  A    between atoms: C_15  and  C_17
REMARK   10  A    between atoms: C_15  and  O_25
REMARK                            x       y       z     vdW  Elec       q    Type
REMARK                         _______ _______ _______ _____ _____    ______ ____
ROOT
ATOM      1  S   UNL     1       0.624  -3.635  -4.530  0.00  0.00    -0.020 S 
ATOM      2  O   UNL     1      -0.517  -3.976  -3.754  0.00  0.00    -0.174 OA
ATOM      3  O   UNL     1       0.497  -2.658  -5.554  0.00  0.00    -0.174 OA
ENDROOT
BRANCH   1   4
ATOM      4  C   UNL     1       1.949  -3.118  -3.405  0.00  0.00    +0.264 C 
BRANCH   4   7
ATOM      5  C   UNL     1       0.707  -0.490  -1.238  0.00  0.00    +0.177 A 
ATOM      6  N   UNL     1       0.902  -1.771  -1.570  0.00  0.00    -0.194 NA
ATOM      7  C   UNL     1       1.545  -1.847  -2.703  0.00  0.00    +0.248 A 
ATOM      8  O   UNL     1       1.783  -0.602  -3.134  0.00  0.00    -0.336 OA
ATOM      9  N   UNL     1       1.222   0.269  -2.163  0.00  0.00    -0.061 NA
BRANCH   5  11
ATOM     10  C   UNL     1      -0.019   1.526   0.010  0.00  0.00    +0.019 C 
ATOM     11  C   UNL     1       0.002  -0.004   0.002  0.00  0.00    +0.025 C 
ATOM     12  C   UNL     1       0.742  -0.511   1.242  0.00  0.00    +0.019 C 
ATOM     13  C   UNL     1      -1.433  -0.534   0.013  0.00  0.00    +0.019 C 
ENDBRANCH   5  11
ENDBRANCH   4   7
ENDBRANCH   1   4
BRANCH   1  14
ATOM     14  C   UNL     1       1.292  -5.153  -5.265  0.00  0.00    +0.202 C 
BRANCH  14  15
ATOM     15  C   UNL     1       0.279  -5.728  -6.257  0.00  0.00    +0.165 C 
BRANCH  15  16
ATOM     16  C   UNL     1       0.779  -7.052  -6.775  0.00  0.00    -0.015 A 
ATOM     17  C   UNL     1       1.734  -7.085  -7.775  0.00  0.00    +0.009 A 
ATOM     18  C   UNL     1       2.194  -8.298  -8.252  0.00  0.00    +0.041 A 
ATOM     19  C   UNL     1       1.700  -9.480  -7.729  0.00  0.00    +0.158 A 
ATOM     20  C   UNL     1       0.744  -9.447  -6.726  0.00  0.00    +0.159 A 
ATOM     21  C   UNL     1       0.288  -8.230  -6.247  0.00  0.00    +0.047 A 
ATOM     22  F   UNL     1       0.260 -10.599  -6.214  0.00  0.00    -0.202 F 
ATOM     23  F   UNL     1       2.150 -10.666  -8.195  0.00  0.00    -0.202 F 
ENDBRANCH  15  16
BRANCH  15  24
ATOM     24  O   UNL     1       0.113  -4.821  -7.348  0.00  0.00    -0.386 OA
ATOM     25  H   UNL     1       0.926  -4.645  -7.841  0.00  0.00    +0.210 HD
ENDBRANCH  15  24
ENDBRANCH  14  15
ENDBRANCH   1  14
TORSDOF 7
