REMARK  Name = ZINC33462226
REMARK  9 active torsions:
REMARK  status: ('A' for Active; 'I' for Inactive)
REMARK    1  A    between atoms: C_1  and  C_2
REMARK    2  A    between atoms: C_2  and  N_3
REMARK    3  A    between atoms: N_3  and  C_4
REMARK    4  A    between atoms: N_3  and  C_6
REMARK    5  A    between atoms: C_4  and  C_5
REMARK    6  A    between atoms: C_9  and  C_12
REMARK    7  A    between atoms: C_12  and  C_14
REMARK    8  A    between atoms: C_12  and  N_16
REMARK    9  A    between atoms: C_14  and  N_15
REMARK                            x       y       z     vdW  Elec       q    Type
REMARK                         _______ _______ _______ _____ _____    ______ ____
ROOT
ATOM      1  C   UNL     1       1.401  -5.900   0.913  0.00  0.00    +0.086 C 
ENDROOT
BRANCH   1   2
ATOM      2  N   UNL     1       2.737  -5.948   0.313  0.00  0.00    -0.324 N 
ATOM      3  C   UNL     1       3.881  -6.463   1.077  0.00  0.00    +0.106 C 
ATOM      4  C   UNL     1       5.060  -5.506   0.859  0.00  0.00    +0.024 C 
ATOM      5  C   UNL     1       5.440  -5.521  -0.622  0.00  0.00    +0.038 C 
ATOM      6  C   UNL     1       4.226  -5.285  -1.480  0.00  0.00    -0.026 A 
ATOM      7  C   UNL     1       2.943  -5.509  -1.000  0.00  0.00    +0.033 A 
ATOM      8  C   UNL     1       1.843  -5.292  -1.822  0.00  0.00    +0.023 A 
ATOM      9  C   UNL     1       2.025  -4.855  -3.119  0.00  0.00    +0.002 A 
ATOM     10  C   UNL     1       3.303  -4.635  -3.599  0.00  0.00    +0.000 A 
ATOM     11  C   UNL     1       4.400  -4.841  -2.780  0.00  0.00    +0.005 A 
ENDBRANCH   1   2
BRANCH   1  15
ATOM     12  C   UNL     1       0.215  -1.828   1.425  0.00  0.00    +0.013 A 
ATOM     13  C   UNL     1      -0.719  -2.780   1.059  0.00  0.00    +0.022 A 
ATOM     14  C   UNL     1      -0.335  -4.097   0.893  0.00  0.00    +0.007 A 
ATOM     15  C   UNL     1       0.983  -4.463   1.093  0.00  0.00    -0.029 A 
ATOM     16  C   UNL     1       1.917  -3.512   1.458  0.00  0.00    +0.007 A 
ATOM     17  C   UNL     1       1.534  -2.194   1.620  0.00  0.00    +0.022 A 
BRANCH  12  18
ATOM     18  N   UNL     1      -0.173  -0.496   1.593  0.00  0.00    -0.394 NA
ATOM     19  H   UNL     1       0.629   0.058   1.854  0.00  0.00    +0.126 HD
BRANCH  18  21
ATOM     20  C   UNL     1       0.368   0.061  -0.729  0.00  0.00    +0.022 C 
ATOM     21  C   UNL     1      -0.732   0.014   0.334  0.00  0.00    +0.081 C 
ENDBRANCH  18  21
BRANCH  18  22
ATOM     22  C   UNL     1      -1.191  -0.412   2.650  0.00  0.00    +0.081 C 
ATOM     23  C   UNL     1      -0.574  -0.829   3.986  0.00  0.00    +0.022 C 
ENDBRANCH  18  22
ENDBRANCH  12  18
ENDBRANCH   1  15
BRANCH   1  24
ATOM     24  C   UNL     1       1.428  -6.598   2.274  0.00  0.00    -0.059 C 
BRANCH  24  25
ATOM     25  N   UNL     1       1.760  -8.017   2.090  0.00  0.00    +0.380 N 
ATOM     26  H   UNL     1       1.111  -8.432   1.438  0.00  0.00    -0.090 HD
ATOM     27  H   UNL     1       2.699  -8.099   1.729  0.00  0.00    -0.090 HD
ATOM     28  H   UNL     1       1.698  -8.494   2.977  0.00  0.00    -0.090 HD
ENDBRANCH  24  25
ENDBRANCH   1  24
TORSDOF 7
