REMARK  Name = ZINC66243932
REMARK  8 active torsions:
REMARK  status: ('A' for Active; 'I' for Inactive)
REMARK    1  A    between atoms: C_3  and  C_6
REMARK    2  A    between atoms: C_6  and  N_7
REMARK    3  A    between atoms: N_7  and  S_8
REMARK    4  A    between atoms: S_8  and  C_11
REMARK    5  A    between atoms: C_14  and  C_17
REMARK    6  A    between atoms: C_17  and  N_18
REMARK    7  A    between atoms: N_20  and  C_21
REMARK    8  A    between atoms: C_21  and  C_22
REMARK                            x       y       z     vdW  Elec       q    Type
REMARK                         _______ _______ _______ _____ _____    ______ ____
ROOT
ATOM      1  C   UNL     1       6.687   1.442   0.918  0.00  0.00    +0.105 A 
ATOM      2  C   UNL     1       7.112   1.308  -0.391  0.00  0.00    +0.029 A 
ATOM      3  C   UNL     1       7.904   2.285  -0.964  0.00  0.00    +0.007 A 
ATOM      4  C   UNL     1       8.272   3.396  -0.228  0.00  0.00    -0.028 A 
ATOM      5  C   UNL     1       7.847   3.531   1.081  0.00  0.00    +0.007 A 
ATOM      6  C   UNL     1       7.051   2.556   1.652  0.00  0.00    +0.029 A 
ENDROOT
BRANCH   1   7
ATOM      7  S   UNL     1       5.677   0.197   1.648  0.00  0.00    +0.059 S 
ATOM      8  O   UNL     1       5.861   0.297   3.054  0.00  0.00    -0.153 OA
ATOM      9  O   UNL     1       5.929  -1.003   0.930  0.00  0.00    -0.153 OA
BRANCH   7  10
ATOM     10  N   UNL     1       4.101   0.607   1.347  0.00  0.00    -0.183 NA
ATOM     11  H   UNL     1       3.510   0.834   2.082  0.00  0.00    +0.148 HD
BRANCH  10  12
ATOM     12  C   UNL     1       3.599   0.625  -0.029  0.00  0.00    +0.180 C 
BRANCH  12  15
ATOM     13  C   UNL     1      -0.016   1.341   0.009  0.00  0.00    +0.041 A 
ATOM     14  C   UNL     1       1.331   1.769  -0.001  0.00  0.00    +0.046 A 
ATOM     15  C   UNL     1       2.092   0.660  -0.014  0.00  0.00    +0.120 A 
ATOM     16  O   UNL     1       1.282  -0.411  -0.012  0.00  0.00    -0.466 OA
ATOM     17  C   UNL     1       0.002  -0.004   0.002  0.00  0.00    +0.195 A 
ENDBRANCH  12  15
ENDBRANCH  10  12
ENDBRANCH   7  10
ENDBRANCH   1   7
BRANCH   4  18
ATOM     18  C   UNL     1       9.137   4.461  -0.852  0.00  0.00    +0.151 C 
BRANCH  18  19
ATOM     19  N   UNL     1       8.287   5.469  -1.490  0.00  0.00    -0.354 N 
ATOM     20  C   UNL     1       8.857   6.544  -2.130  0.00  0.00    +0.169 C 
ATOM     21  N   UNL     1       8.101   7.441  -2.697  0.00  0.00    -0.351 N 
ATOM     22  N   UNL     1      10.225   6.674  -2.170  0.00  0.00    -0.371 N 
ATOM     23  H   UNL     1       7.322   5.378  -1.462  0.00  0.00    +0.163 HD
ATOM     24  H   UNL     1      10.788   6.006  -1.747  0.00  0.00    +0.159 HD
ATOM     25  H   UNL     1      10.628   7.432  -2.621  0.00  0.00    +0.159 HD
ATOM     26  H   UNL     1       7.135   7.350  -2.669  0.00  0.00    +0.163 HD
BRANCH  21  27
ATOM     27  C   UNL     1       8.708   8.587  -3.378  0.00  0.00    +0.190 C 
BRANCH  27  28
ATOM     28  C   UNL     1       7.624   9.467  -3.945  0.00  0.00    +0.124 A 
ATOM     29  C   UNL     1       7.036  10.498  -3.311  0.00  0.00    +0.046 A 
ATOM     30  C   UNL     1       6.083  11.038  -4.205  0.00  0.00    +0.041 A 
ATOM     31  C   UNL     1       6.147  10.306  -5.332  0.00  0.00    +0.195 A 
ATOM     32  O   UNL     1       7.086   9.359  -5.171  0.00  0.00    -0.466 OA
ENDBRANCH  27  28
ENDBRANCH  21  27
ENDBRANCH  18  19
ENDBRANCH   4  18
TORSDOF 8
