REMARK  Name = ZINC12276231
REMARK  5 active torsions:
REMARK  status: ('A' for Active; 'I' for Inactive)
REMARK    1  A    between atoms: C_3  and  O_28
REMARK    2  A    between atoms: C_6  and  C_7
REMARK    3  A    between atoms: C_15  and  N_27
REMARK    4  A    between atoms: C_16  and  C_18
REMARK    5  A    between atoms: C_18  and  C_20
REMARK                            x       y       z     vdW  Elec       q    Type
REMARK                         _______ _______ _______ _____ _____    ______ ____
ROOT
ATOM      1  C   UNL     1      -2.564  -0.083   0.217  0.00  0.00    +0.062 C 
ATOM      2  C   UNL     1      -3.571  -1.020  -0.447  0.00  0.00    +0.109 C 
ATOM      3  C   UNL     1      -3.378  -2.446  -0.011  0.00  0.00    +0.218 C 
ATOM      4  O   UNL     1      -4.346  -3.143   0.206  0.00  0.00    -0.275 OA
ATOM      5  N   UNL     1      -2.135  -2.961   0.133  0.00  0.00    -0.280 N 
ATOM      6  C   UNL     1      -1.075  -2.088   0.097  0.00  0.00    +0.078 A 
ATOM      7  C   UNL     1      -1.177  -0.712   0.125  0.00  0.00    +0.010 A 
ATOM      8  C   UNL     1       0.004   0.003   0.077  0.00  0.00    +0.048 A 
ATOM      9  C   UNL     1       1.216  -0.695   0.026  0.00  0.00    +0.082 A 
ATOM     10  S   UNL     1       0.665  -2.394   0.034  0.00  0.00    -0.068 S 
ATOM     11  H   UNL     1      -1.999  -3.911   0.268  0.00  0.00    +0.155 HD
ENDROOT
BRANCH   1  17
ATOM     12  C   UNL     1      -3.012  -0.977   2.512  0.00  0.00    +0.008 A 
ATOM     13  C   UNL     1      -3.346  -0.799   3.840  0.00  0.00    +0.045 A 
ATOM     14  C   UNL     1      -3.615   0.473   4.322  0.00  0.00    +0.117 A 
ATOM     15  C   UNL     1      -3.543   1.565   3.470  0.00  0.00    +0.045 A 
ATOM     16  C   UNL     1      -3.203   1.383   2.143  0.00  0.00    +0.008 A 
ATOM     17  C   UNL     1      -2.935   0.113   1.665  0.00  0.00    -0.039 A 
BRANCH  14  18
ATOM     18  O   UNL     1      -3.949   0.650   5.628  0.00  0.00    -0.507 OA
ATOM     19  H   UNL     1      -4.899   0.598   5.801  0.00  0.00    +0.292 HD
ENDBRANCH  14  18
ENDBRANCH   1  17
BRANCH   8  20
ATOM     20  N   UNL     1      -0.011   1.393   0.087  0.00  0.00    -0.357 N 
ATOM     21  H   UNL     1       0.824   1.887   0.057  0.00  0.00    +0.142 HD
ATOM     22  H   UNL     1      -0.855   1.869   0.119  0.00  0.00    +0.142 HD
ENDBRANCH   8  20
BRANCH   9  23
ATOM     23  C   UNL     1       2.529  -0.188  -0.020  0.00  0.00    +0.202 C 
ATOM     24  O   UNL     1       2.716   1.011  -0.140  0.00  0.00    -0.286 OA
BRANCH  23  25
ATOM     25  C   UNL     1       3.682  -1.111   0.075  0.00  0.00    +0.023 A 
ATOM     26  C   UNL     1       3.532  -2.359   0.682  0.00  0.00    +0.013 A 
ATOM     27  C   UNL     1       4.608  -3.217   0.764  0.00  0.00    +0.021 A 
ATOM     28  C   UNL     1       5.839  -2.838   0.255  0.00  0.00    +0.041 A 
ATOM     29  C   UNL     1       5.996  -1.598  -0.343  0.00  0.00    +0.021 A 
ATOM     30  C   UNL     1       4.925  -0.734  -0.435  0.00  0.00    +0.013 A 
ATOM     31 CL   UNL     1       7.192  -3.920   0.368  0.00  0.00    -0.084 Cl
ENDBRANCH  23  25
ENDBRANCH   9  23
TORSDOF 5
