REMARK  Name = ZINC40736462
REMARK  9 active torsions:
REMARK  status: ('A' for Active; 'I' for Inactive)
REMARK    1  A    between atoms: C_1  and  C_2
REMARK    2  A    between atoms: C_2  and  N_3
REMARK    3  A    between atoms: N_3  and  C_4
REMARK    4  A    between atoms: C_4  and  C_5
REMARK    5  A    between atoms: C_5  and  O_6
REMARK    6  A    between atoms: C_8  and  N_25
REMARK    7  A    between atoms: C_9  and  N_13
REMARK    8  A    between atoms: N_13  and  C_14
REMARK    9  A    between atoms: C_22  and  C_24
REMARK                            x       y       z     vdW  Elec       q    Type
REMARK                         _______ _______ _______ _____ _____    ______ ____
ROOT
ATOM      1  N   UNL     1      -1.021  -1.432   0.236  0.00  0.00    -0.312 N 
ATOM      2  C   UNL     1      -1.840  -1.460   1.358  0.00  0.00    +0.147 A 
ATOM      3  C   UNL     1      -1.387  -0.953   2.579  0.00  0.00    +0.106 A 
ATOM      4  C   UNL     1      -2.250  -1.005   3.674  0.00  0.00    +0.149 A 
ATOM      5  N   UNL     1      -3.463  -1.530   3.515  0.00  0.00    -0.219 NA
ATOM      6  C   UNL     1      -3.851  -1.997   2.346  0.00  0.00    +0.225 A 
ATOM      7  N   UNL     1      -3.069  -1.963   1.286  0.00  0.00    -0.219 NA
ENDROOT
BRANCH   3   8
ATOM      8  N   UNL     1      -0.099  -0.408   2.700  0.00  0.00    -0.353 N 
ATOM      9  H   UNL     1       0.454  -0.290   1.912  0.00  0.00    +0.143 HD
ATOM     10  H   UNL     1       0.238  -0.149   3.572  0.00  0.00    +0.143 HD
ENDBRANCH   3   8
BRANCH   1  12
ATOM     11  C   UNL     1       1.125  -2.593   0.411  0.00  0.00    +0.024 C 
ATOM     12  C   UNL     1      -0.291  -2.637  -0.168  0.00  0.00    +0.103 C 
ENDBRANCH   1  12
BRANCH   4  13
ATOM     13  N   UNL     1      -1.850  -0.515   4.913  0.00  0.00    -0.297 N 
ATOM     14  H   UNL     1      -0.999  -0.058   5.001  0.00  0.00    +0.154 HD
BRANCH  13  15
ATOM     15  C   UNL     1      -2.670  -0.682   6.026  0.00  0.00    +0.042 A 
ATOM     16  C   UNL     1      -3.601  -1.699   6.059  0.00  0.00    +0.024 A 
ATOM     17  C   UNL     1      -4.423  -1.871   7.167  0.00  0.00    +0.004 A 
ATOM     18  C   UNL     1      -4.333  -1.046   8.247  0.00  0.00    +0.026 A 
ATOM     19  C   UNL     1      -3.398   0.003   8.255  0.00  0.00    +0.048 A 
ATOM     20  C   UNL     1      -2.552   0.184   7.133  0.00  0.00    +0.020 A 
ATOM     21  C   UNL     1      -1.615   1.230   7.147  0.00  0.00    +0.013 A 
ATOM     22  C   UNL     1      -1.556   2.030   8.254  0.00  0.00    +0.021 A 
ATOM     23  C   UNL     1      -2.413   1.795   9.326  0.00  0.00    +0.013 A 
ATOM     24  N   UNL     1      -3.294   0.825   9.305  0.00  0.00    -0.358 N 
ATOM     25  C   UNL     1      -2.334   2.688  10.538  0.00  0.00    +0.063 C 
ATOM     26  H   UNL     1      -3.874   0.693  10.072  0.00  0.00    +0.166 HD
ENDBRANCH  13  15
ENDBRANCH   4  13
BRANCH   1  27
ATOM     27  C   UNL     1      -0.887  -0.199  -0.544  0.00  0.00    +0.134 C 
BRANCH  27  28
ATOM     28  C   UNL     1      -1.956  -0.170  -1.638  0.00  0.00    +0.174 C 
BRANCH  28  29
ATOM     29  O   UNL     1      -3.251  -0.099  -1.038  0.00  0.00    -0.393 OA
ATOM     30  H   UNL     1      -3.979  -0.077  -1.674  0.00  0.00    +0.209 HD
ENDBRANCH  28  29
ENDBRANCH  27  28
ENDBRANCH   1  27
TORSDOF 7
