REMARK  Name = ZINC15391762
REMARK  9 active torsions:
REMARK  status: ('A' for Active; 'I' for Inactive)
REMARK    1  A    between atoms: C_1  and  C_2
REMARK    2  A    between atoms: C_2  and  C_3
REMARK    3  A    between atoms: C_8  and  O_35
REMARK    4  A    between atoms: C_9  and  C_11
REMARK    5  A    between atoms: C_11  and  C_13
REMARK    6  A    between atoms: C_11  and  N_22
REMARK    7  A    between atoms: C_16  and  N_19
REMARK    8  A    between atoms: N_25  and  C_28
REMARK    9  A    between atoms: C_28  and  C_29
REMARK                            x       y       z     vdW  Elec       q    Type
REMARK                         _______ _______ _______ _____ _____    ______ ____
ROOT
ATOM      1  C   UNL     1      -6.961  -2.571  -0.749  0.00  0.00    +0.129 C 
ENDROOT
BRANCH   1   8
ATOM      2  C   UNL     1      -1.412  -0.526   0.013  0.00  0.00    +0.152 A 
ATOM      3  N   UNL     1      -2.127  -0.793   1.104  0.00  0.00    -0.205 NA
ATOM      4  C   UNL     1      -3.306  -1.227   0.751  0.00  0.00    +0.199 A 
ATOM      5  N   UNL     1      -3.395  -1.255  -0.607  0.00  0.00    -0.173 N 
ATOM      6  N   UNL     1      -2.131  -0.782  -1.047  0.00  0.00    -0.147 NA
ATOM      7  C   UNL     1      -4.579  -1.691  -1.151  0.00  0.00    +0.228 A 
ATOM      8  C   UNL     1      -5.593  -2.068  -0.364  0.00  0.00    +0.076 A 
ATOM      9  S   UNL     1      -4.901  -1.817   1.264  0.00  0.00    -0.047 S 
BRANCH   2  11
ATOM     10  C   UNL     1      -0.019   1.526   0.010  0.00  0.00    +0.012 C 
ATOM     11  C   UNL     1       0.002  -0.004   0.002  0.00  0.00    +0.075 C 
ENDBRANCH   2  11
BRANCH   7  12
ATOM     12  O   UNL     1      -4.722  -1.740  -2.503  0.00  0.00    -0.492 OA
ATOM     13  H   UNL     1      -3.939  -1.449  -2.992  0.00  0.00    +0.294 HD
ENDBRANCH   7  12
ENDBRANCH   1   8
BRANCH   1  14
ATOM     14  N   UNL     1      -7.202  -3.871  -0.110  0.00  0.00    -0.295 NA
ATOM     15  C   UNL     1      -8.562  -4.353  -0.393  0.00  0.00    +0.067 C 
ATOM     16  C   UNL     1      -8.793  -5.677   0.338  0.00  0.00    -0.063 C 
ATOM     17  N   UNL     1      -7.803  -6.664  -0.113  0.00  0.00    +0.384 N 
ATOM     18  C   UNL     1      -6.451  -6.181   0.198  0.00  0.00    -0.063 C 
ATOM     19  C   UNL     1      -6.200  -4.860  -0.533  0.00  0.00    +0.067 C 
ATOM     20  H   UNL     1      -7.891  -6.798  -1.109  0.00  0.00    -0.081 HD
BRANCH  17  21
ATOM     21  C   UNL     1      -8.036  -7.941   0.575  0.00  0.00    -0.043 C 
BRANCH  21  22
ATOM     22  C   UNL     1      -7.101  -8.986   0.025  0.00  0.00    -0.064 A 
ATOM     23  C   UNL     1      -7.485  -9.757  -1.056  0.00  0.00    +0.002 A 
ATOM     24  C   UNL     1      -6.627 -10.716  -1.561  0.00  0.00    +0.000 A 
ATOM     25  C   UNL     1      -5.384 -10.904  -0.985  0.00  0.00    +0.000 A 
ATOM     26  C   UNL     1      -4.999 -10.132   0.095  0.00  0.00    +0.000 A 
ATOM     27  C   UNL     1      -5.856  -9.170   0.597  0.00  0.00    +0.002 A 
ENDBRANCH  21  22
ENDBRANCH  17  21
ENDBRANCH   1  14
BRANCH   1  28
ATOM     28  C   UNL     1      -8.005  -1.585  -0.292  0.00  0.00    -0.025 A 
ATOM     29  C   UNL     1      -8.414  -1.573   1.028  0.00  0.00    +0.008 A 
ATOM     30  C   UNL     1      -9.372  -0.669   1.447  0.00  0.00    +0.033 A 
ATOM     31  C   UNL     1      -9.921   0.223   0.546  0.00  0.00    +0.126 A 
ATOM     32  C   UNL     1      -9.512   0.212  -0.774  0.00  0.00    +0.033 A 
ATOM     33  C   UNL     1      -8.551  -0.689  -1.193  0.00  0.00    +0.008 A 
BRANCH  31  34
ATOM     34  N   UNL     1     -10.948   1.191   0.994  0.00  0.00    +0.056 N 
ATOM     35  O   UNL     1     -11.306   1.200   2.149  0.00  0.00    -0.126 OA
ATOM     36  O   UNL     1     -11.428   1.971   0.206  0.00  0.00    -0.126 OA
ENDBRANCH  31  34
ENDBRANCH   1  28
TORSDOF 8
