REMARK  Name = ZINC45725354
REMARK  10 active torsions:
REMARK  status: ('A' for Active; 'I' for Inactive)
REMARK    1  A    between atoms: C_1  and  N_2
REMARK    2  A    between atoms: N_2  and  C_3
REMARK    3  A    between atoms: N_2  and  C_4
REMARK    4  A    between atoms: C_4  and  C_6
REMARK    5  A    between atoms: C_4  and  C_13
REMARK    6  A    between atoms: C_6  and  C_7
REMARK    7  A    between atoms: C_13  and  N_14
REMARK    8  A    between atoms: N_17  and  C_18
REMARK    9  A    between atoms: C_23  and  C_24
REMARK   10  A    between atoms: C_24  and  C_25
REMARK                            x       y       z     vdW  Elec       q    Type
REMARK                         _______ _______ _______ _____ _____    ______ ____
ROOT
ATOM      1  N   UNL     1      -0.515  -2.616   1.133  0.00  0.00    -0.301 N 
ATOM      2  C   UNL     1      -0.300  -3.946   1.132  0.00  0.00    +0.304 C 
ATOM      3  O   UNL     1      -0.670  -4.621   0.191  0.00  0.00    -0.253 OA
ATOM      4  N   UNL     1       0.327  -4.529   2.173  0.00  0.00    -0.269 N 
ATOM      5  H   UNL     1      -0.219  -2.077   1.883  0.00  0.00    +0.150 HD
ATOM      6  H   UNL     1       0.572  -4.000   2.949  0.00  0.00    +0.156 HD
ENDROOT
BRANCH   4   7
ATOM      7  C   UNL     1       0.623  -5.896   2.136  0.00  0.00    +0.038 A 
ATOM      8  C   UNL     1      -0.178  -6.762   1.403  0.00  0.00    +0.023 A 
ATOM      9  C   UNL     1       0.118  -8.110   1.368  0.00  0.00    +0.002 A 
ATOM     10  C   UNL     1       1.210  -8.599   2.062  0.00  0.00    +0.000 A 
ATOM     11  C   UNL     1       2.009  -7.739   2.793  0.00  0.00    +0.006 A 
ATOM     12  C   UNL     1       1.722  -6.388   2.827  0.00  0.00    -0.017 A 
BRANCH  12  13
ATOM     13  C   UNL     1       2.598  -5.451   3.619  0.00  0.00    +0.132 C 
BRANCH  13  14
ATOM     14  C   UNL     1       2.007  -5.251   4.991  0.00  0.00    +0.215 C 
ATOM     15  O   UNL     1       0.977  -5.814   5.295  0.00  0.00    -0.276 OA
ATOM     16  N   UNL     1       2.624  -4.446   5.879  0.00  0.00    -0.329 N 
ATOM     17  H   UNL     1       3.448  -3.996   5.635  0.00  0.00    +0.145 HD
ATOM     18  H   UNL     1       2.244  -4.317   6.762  0.00  0.00    +0.145 HD
ENDBRANCH  13  14
ENDBRANCH  12  13
ENDBRANCH   4   7
BRANCH   1  19
ATOM     19  C   UNL     1      -1.196  -1.983   0.001  0.00  0.00    +0.091 C 
BRANCH  19  20
ATOM     20  C   UNL     1      -1.165  -0.463   0.172  0.00  0.00    -0.048 C 
BRANCH  20  22
ATOM     21  C   UNL     1       1.024  -0.497   1.152  0.00  0.00    -0.096 C 
ATOM     22  N   UNL     1       0.217   0.017   0.037  0.00  0.00    +0.379 N 
ATOM     23  C   UNL     1       0.779  -0.458  -1.234  0.00  0.00    -0.096 C 
ATOM     24  H   UNL     1       0.226   1.026   0.053  0.00  0.00    -0.082 HD
ENDBRANCH  20  22
BRANCH  20  25
ATOM     25  C   UNL     1      -2.038   0.189  -0.903  0.00  0.00    +0.021 C 
BRANCH  25  26
ATOM     26  C   UNL     1      -2.120   1.673  -0.650  0.00  0.00    -0.049 A 
ATOM     27  C   UNL     1      -3.049   2.171   0.245  0.00  0.00    +0.003 A 
ATOM     28  C   UNL     1      -3.125   3.531   0.476  0.00  0.00    +0.000 A 
ATOM     29  C   UNL     1      -2.273   4.394  -0.187  0.00  0.00    +0.000 A 
ATOM     30  C   UNL     1      -1.344   3.896  -1.081  0.00  0.00    +0.000 A 
ATOM     31  C   UNL     1      -1.265   2.535  -1.310  0.00  0.00    +0.003 A 
ENDBRANCH  25  26
ENDBRANCH  20  25
ENDBRANCH  19  20
ENDBRANCH   1  19
TORSDOF 8
