REMARK  Name = ZINC62136239
REMARK  3 active torsions:
REMARK  status: ('A' for Active; 'I' for Inactive)
REMARK    1  A    between atoms: C_1  and  C_2
REMARK    2  A    between atoms: C_6  and  C_21
REMARK    3  A    between atoms: C_15  and  C_18
REMARK                            x       y       z     vdW  Elec       q    Type
REMARK                         _______ _______ _______ _____ _____    ______ ____
ROOT
ATOM      1  C   UNL     1       0.191   1.681   0.058  0.00  0.00    +0.028 C 
ATOM      2  C   UNL     1       0.109   0.154   0.000  0.00  0.00    +0.074 C 
ATOM      3  C   UNL     1      -1.360  -0.281  -0.030  0.00  0.00    +0.023 C 
ATOM      4  C   UNL     1      -2.030   0.108   1.290  0.00  0.00    +0.016 C 
ATOM      5  C   UNL     1      -1.336  -0.613   2.448  0.00  0.00    +0.092 C 
ATOM      6  C   UNL     1       0.133  -0.182   2.506  0.00  0.00    +0.122 C 
ATOM      7  N   UNL     1       0.751  -0.419   1.191  0.00  0.00    -0.282 N 
ATOM      8  C   UNL     1       1.879  -1.149   1.080  0.00  0.00    +0.305 C 
ATOM      9  O   UNL     1       2.278  -1.486  -0.018  0.00  0.00    -0.252 OA
ATOM     10  N   UNL     1       2.564  -1.504   2.185  0.00  0.00    -0.285 N 
ATOM     11  C   UNL     1       2.100  -1.339   3.570  0.00  0.00    +0.110 C 
ATOM     12  C   UNL     1       3.198  -1.909   4.492  0.00  0.00    +0.035 C 
ATOM     13  C   UNL     1       3.970  -2.876   3.556  0.00  0.00    +0.121 C 
ATOM     14  C   UNL     1       3.899  -2.127   2.205  0.00  0.00    +0.124 C 
ENDROOT
BRANCH   5  15
ATOM     15  C   UNL     1      -2.017  -0.255   3.744  0.00  0.00    +0.215 C 
ATOM     16  O   UNL     1      -2.965   0.502   3.742  0.00  0.00    -0.276 OA
ATOM     17  N   UNL     1      -1.574  -0.777   4.905  0.00  0.00    -0.329 N 
ATOM     18  H   UNL     1      -0.816  -1.383   4.907  0.00  0.00    +0.145 HD
ATOM     19  H   UNL     1      -2.013  -0.546   5.739  0.00  0.00    +0.145 HD
ENDBRANCH   5  15
BRANCH  13  20
ATOM     20  C   UNL     1       5.397  -3.044   4.011  0.00  0.00    +0.361 C 
ATOM     21  O   UNL     1       5.636  -3.513   5.110  0.00  0.00    -0.246 OA
ATOM     22  O   UNL     1       6.313  -2.711   3.278  0.00  0.00    -0.246 OA
ENDBRANCH  13  20
TORSDOF 2
