REMARK  Name = ZINC47138664
REMARK  7 active torsions:
REMARK  status: ('A' for Active; 'I' for Inactive)
REMARK    1  A    between atoms: C_1  and  C_2
REMARK    2  A    between atoms: C_7  and  C_8
REMARK    3  A    between atoms: N_9  and  N_10
REMARK    4  A    between atoms: N_12  and  C_26
REMARK    5  A    between atoms: C_16  and  C_17
REMARK    6  A    between atoms: C_22  and  O_23
REMARK    7  A    between atoms: C_26  and  C_27
REMARK                            x       y       z     vdW  Elec       q    Type
REMARK                         _______ _______ _______ _____ _____    ______ ____
ROOT
ATOM      1  N   UNL     1      -0.352   1.986   1.365  0.00  0.00    -0.126 NA
ATOM      2  C   UNL     1      -0.679   3.264   1.381  0.00  0.00    +0.190 C 
ATOM      3  N   UNL     1      -0.597   4.156   2.427  0.00  0.00    -0.237 N 
ATOM      4  C   UNL     1      -0.971   5.415   2.271  0.00  0.00    +0.259 C 
ATOM      5  O   UNL     1      -0.905   6.216   3.184  0.00  0.00    -0.269 OA
ATOM      6  C   UNL     1      -1.472   5.804   0.939  0.00  0.00    +0.078 C 
ATOM      7  C   UNL     1      -1.917   7.011   0.504  0.00  0.00    +0.032 C 
ATOM      8  S   UNL     1      -1.330   4.260   0.050  0.00  0.00    -0.047 S 
ENDROOT
BRANCH   7   9
ATOM      9  C   UNL     1      -2.166   7.230  -0.926  0.00  0.00    +0.019 A 
ATOM     10  C   UNL     1      -1.591   6.381  -1.879  0.00  0.00    +0.031 A 
ATOM     11  C   UNL     1      -1.829   6.593  -3.220  0.00  0.00    +0.042 A 
ATOM     12  C   UNL     1      -2.636   7.644  -3.630  0.00  0.00    +0.023 A 
ATOM     13  C   UNL     1      -3.210   8.489  -2.699  0.00  0.00    +0.047 A 
ATOM     14  C   UNL     1      -2.987   8.289  -1.347  0.00  0.00    +0.124 A 
ATOM     15 CL   UNL     1      -1.116   5.540  -4.402  0.00  0.00    -0.084 Cl
BRANCH  14  16
ATOM     16  O   UNL     1      -3.555   9.115  -0.432  0.00  0.00    -0.506 OA
ATOM     17  H   UNL     1      -3.015   9.885  -0.209  0.00  0.00    +0.292 HD
ENDBRANCH  14  16
ENDBRANCH   7   9
BRANCH   1  19
ATOM     18  C   UNL     1       0.339   0.140   2.446  0.00  0.00    +0.143 C 
ATOM     19  N   UNL     1       0.109   1.425   2.432  0.00  0.00    -0.155 NA
BRANCH  18  26
ATOM     20  C   UNL     1       0.124  -2.741   2.620  0.00  0.00    +0.044 C 
ATOM     21  C   UNL     1       0.068  -2.044   1.285  0.00  0.00    -0.042 A 
ATOM     22  C   UNL     1      -0.092  -2.777   0.129  0.00  0.00    +0.004 A 
ATOM     23  C   UNL     1      -0.144  -2.139  -1.098  0.00  0.00    +0.000 A 
ATOM     24  C   UNL     1      -0.035  -0.761  -1.175  0.00  0.00    +0.001 A 
ATOM     25  C   UNL     1       0.126  -0.014  -0.028  0.00  0.00    +0.010 A 
ATOM     26  C   UNL     1       0.173  -0.651   1.217  0.00  0.00    -0.002 A 
ENDBRANCH  18  26
ENDBRANCH   1  19
BRANCH   3  27
ATOM     27  C   UNL     1      -0.090   3.706   3.726  0.00  0.00    +0.190 C 
BRANCH  27  28
ATOM     28  C   UNL     1       1.404   3.896   3.775  0.00  0.00    +0.123 A 
ATOM     29  C   UNL     1       2.044   4.997   4.208  0.00  0.00    +0.046 A 
ATOM     30  C   UNL     1       3.429   4.743   4.080  0.00  0.00    +0.041 A 
ATOM     31  C   UNL     1       3.552   3.502   3.576  0.00  0.00    +0.195 A 
ATOM     32  O   UNL     1       2.323   2.991   3.399  0.00  0.00    -0.466 OA
ENDBRANCH  27  28
ENDBRANCH   3  27
TORSDOF 6
