REMARK  Name = ZINC36603103
REMARK  12 active torsions:
REMARK  status: ('A' for Active; 'I' for Inactive)
REMARK    1  A    between atoms: C_1  and  C_2
REMARK    2  A    between atoms: C_2  and  C_3
REMARK    3  A    between atoms: C_3  and  C_4
REMARK    4  A    between atoms: C_4  and  N_5
REMARK    5  A    between atoms: C_6  and  C_8
REMARK    6  A    between atoms: C_8  and  C_10
REMARK    7  A    between atoms: C_8  and  N_18
REMARK    8  A    between atoms: N_18  and  C_19
REMARK    9  A    between atoms: C_19  and  C_20
REMARK   10  A    between atoms: C_23  and  C_25
REMARK   11  A    between atoms: C_26  and  C_28
REMARK   12  A    between atoms: C_31  and  N_34
REMARK                            x       y       z     vdW  Elec       q    Type
REMARK                         _______ _______ _______ _____ _____    ______ ____
ROOT
ATOM      1  N   UNL     1      -4.470  -5.702  -0.171  0.00  0.00    -0.275 N 
ATOM      2  C   UNL     1      -4.188  -5.783   1.145  0.00  0.00    +0.248 C 
ATOM      3  O   UNL     1      -3.208  -6.396   1.519  0.00  0.00    -0.270 OA
ENDROOT
BRANCH   2   4
ATOM      4  C   UNL     1      -5.070  -5.125   2.132  0.00  0.00    +0.037 A 
ATOM      5  C   UNL     1      -6.213  -4.446   1.708  0.00  0.00    +0.015 A 
ATOM      6  C   UNL     1      -7.033  -3.835   2.635  0.00  0.00    +0.033 A 
ATOM      7  C   UNL     1      -6.723  -3.894   3.982  0.00  0.00    +0.126 A 
ATOM      8  C   UNL     1      -5.590  -4.565   4.409  0.00  0.00    +0.033 A 
ATOM      9  C   UNL     1      -4.766  -5.185   3.493  0.00  0.00    +0.015 A 
BRANCH   7  10
ATOM     10  N   UNL     1      -7.606  -3.235   4.970  0.00  0.00    +0.056 N 
ATOM     11  O   UNL     1      -8.596  -2.648   4.600  0.00  0.00    -0.126 OA
ATOM     12  O   UNL     1      -7.338  -3.285   6.148  0.00  0.00    -0.126 OA
ENDBRANCH   7  10
ENDBRANCH   2   4
BRANCH   1  13
ATOM     13  C   UNL     1      -5.271  -4.586  -0.681  0.00  0.00    +0.196 C 
BRANCH  13  14
ATOM     14  C   UNL     1      -4.896  -4.313  -2.115  0.00  0.00    +0.018 A 
ATOM     15  C   UNL     1      -3.589  -4.484  -2.533  0.00  0.00    +0.048 A 
ATOM     16  C   UNL     1      -3.246  -4.234  -3.850  0.00  0.00    +0.020 A 
ATOM     17  C   UNL     1      -4.209  -3.813  -4.747  0.00  0.00    +0.003 A 
ATOM     18  C   UNL     1      -5.516  -3.642  -4.330  0.00  0.00    +0.020 A 
ATOM     19  C   UNL     1      -5.861  -3.897  -3.015  0.00  0.00    +0.048 A 
ATOM     20 CL   UNL     1      -7.503  -3.690  -2.492  0.00  0.00    -0.083 Cl
ATOM     21 CL   UNL     1      -2.379  -5.013  -1.406  0.00  0.00    -0.083 Cl
ENDBRANCH  13  14
BRANCH  13  23
ATOM     22  N   UNL     1      -5.879  -2.330   0.133  0.00  0.00    -0.313 N 
ATOM     23  C   UNL     1      -5.005  -3.357   0.150  0.00  0.00    +0.238 C 
ATOM     24  O   UNL     1      -4.006  -3.291   0.834  0.00  0.00    -0.273 OA
ATOM     25  H   UNL     1      -6.678  -2.383  -0.414  0.00  0.00    +0.149 HD
BRANCH  22  26
ATOM     26  C   UNL     1      -5.621  -1.135   0.940  0.00  0.00    +0.104 C 
BRANCH  26  27
ATOM     27  C   UNL     1      -6.757  -0.130   0.741  0.00  0.00    +0.018 C 
BRANCH  27  29
ATOM     28  C   UNL     1      -7.623   2.123   1.385  0.00  0.00    +0.004 C 
ATOM     29  C   UNL     1      -6.487   1.118   1.584  0.00  0.00    -0.002 C 
ENDBRANCH  27  29
ENDBRANCH  26  27
ENDBRANCH  22  26
ENDBRANCH  13  23
ENDBRANCH   1  13
BRANCH   1  30
ATOM     30  C   UNL     1      -3.977  -6.730  -1.090  0.00  0.00    +0.183 C 
BRANCH  30  31
ATOM     31  C   UNL     1      -5.118  -7.626  -1.500  0.00  0.00    +0.122 A 
ATOM     32  C   UNL     1      -5.900  -7.459  -2.582  0.00  0.00    +0.046 A 
ATOM     33  C   UNL     1      -6.833  -8.521  -2.580  0.00  0.00    +0.045 A 
ATOM     34  C   UNL     1      -6.565  -9.274  -1.498  0.00  0.00    +0.102 A 
ATOM     35  O   UNL     1      -5.521  -8.730  -0.851  0.00  0.00    -0.463 OA
ATOM     36  C   UNL     1      -7.307 -10.519  -1.086  0.00  0.00    +0.086 C 
ENDBRANCH  30  31
ENDBRANCH   1  30
TORSDOF 10
