REMARK  Name = ZINC22057840
REMARK  5 active torsions:
REMARK  status: ('A' for Active; 'I' for Inactive)
REMARK    1  A    between atoms: C_4  and  O_31
REMARK    2  A    between atoms: C_5  and  N_7
REMARK    3  A    between atoms: N_10  and  C_13
REMARK    4  A    between atoms: C_13  and  C_14
REMARK    5  A    between atoms: C_24  and  C_26
REMARK                            x       y       z     vdW  Elec       q    Type
REMARK                         _______ _______ _______ _____ _____    ______ ____
ROOT
ATOM      1  C   UNL     1       2.940   5.859  -3.010  0.00  0.00    +0.019 C 
ENDROOT
BRANCH   1   2
ATOM      2  C   UNL     1       1.704   5.486  -2.233  0.00  0.00    +0.200 C 
ATOM      3  O   UNL     1       0.609   5.803  -2.646  0.00  0.00    -0.278 OA
ATOM      4  N   UNL     1       1.816   4.798  -1.079  0.00  0.00    -0.291 N 
ATOM      5  C   UNL     1       3.139   4.407  -0.569  0.00  0.00    +0.114 C 
ATOM      6  C   UNL     1       3.381   5.144   0.757  0.00  0.00    +0.062 C 
ATOM      7  C   UNL     1       2.129   5.092   1.571  0.00  0.00    -0.003 A 
ATOM      8  C   UNL     1       0.872   4.784   1.151  0.00  0.00    -0.012 A 
ATOM      9  C   UNL     1      -0.135   4.812   2.115  0.00  0.00    +0.013 A 
ATOM     10  C   UNL     1       0.164   5.131   3.395  0.00  0.00    +0.046 A 
ATOM     11  S   UNL     1       1.925   5.415   3.302  0.00  0.00    -0.101 S 
ATOM     12  C   UNL     1       0.618   4.429  -0.313  0.00  0.00    +0.144 C 
BRANCH  12  13
ATOM     13  C   UNL     1       0.366   2.949  -0.443  0.00  0.00    +0.015 A 
ATOM     14  C   UNL     1      -0.811   2.293  -0.590  0.00  0.00    +0.013 A 
ATOM     15  C   UNL     1      -0.802   0.914  -0.695  0.00  0.00    +0.008 A 
ATOM     16  C   UNL     1       0.383   0.259  -0.637  0.00  0.00    +0.045 A 
ATOM     17  S   UNL     1       1.540   1.604  -0.441  0.00  0.00    -0.099 S 
ENDBRANCH  12  13
ENDBRANCH   1   2
BRANCH   1  21
ATOM     18  N   UNL     1       2.533   7.146  -7.013  0.00  0.00    -0.331 N 
ATOM     19  C   UNL     1       3.278   8.008  -6.085  0.00  0.00    +0.086 C 
ATOM     20  C   UNL     1       3.730   7.183  -4.878  0.00  0.00    -0.059 C 
ATOM     21  N   UNL     1       2.554   6.598  -4.219  0.00  0.00    +0.387 N 
ATOM     22  C   UNL     1       1.809   5.736  -5.147  0.00  0.00    -0.059 C 
ATOM     23  C   UNL     1       1.357   6.561  -6.354  0.00  0.00    +0.086 C 
ATOM     24  H   UNL     1       1.891   7.421  -3.913  0.00  0.00    -0.081 HD
BRANCH  18  29
ATOM     25  C   UNL     1       0.465   8.798  -9.566  0.00  0.00    +0.002 A 
ATOM     26  C   UNL     1       1.435   9.243 -10.446  0.00  0.00    +0.004 A 
ATOM     27  C   UNL     1       2.771   8.994 -10.191  0.00  0.00    +0.047 A 
ATOM     28  C   UNL     1       3.141   8.298  -9.052  0.00  0.00    +0.138 A 
ATOM     29  C   UNL     1       2.165   7.850  -8.165  0.00  0.00    +0.072 A 
ATOM     30  C   UNL     1       0.826   8.098  -8.430  0.00  0.00    +0.027 A 
BRANCH  28  31
ATOM     31  O   UNL     1       4.455   8.053  -8.800  0.00  0.00    -0.505 OA
ATOM     32  H   UNL     1       4.748   7.500  -7.895  0.00  0.00    +0.292 HD
ENDBRANCH  28  31
ENDBRANCH  18  29
ENDBRANCH   1  21
TORSDOF 5
