REMARK  Name = ZINC63361931
REMARK  11 active torsions:
REMARK  status: ('A' for Active; 'I' for Inactive)
REMARK    1  A    between atoms: C_1  and  C_2
REMARK    2  A    between atoms: C_2  and  C_3
REMARK    3  A    between atoms: C_3  and  C_4
REMARK    4  A    between atoms: C_4  and  C_5
REMARK    5  A    between atoms: C_5  and  C_6
REMARK    6  A    between atoms: C_6  and  C_8
REMARK    7  A    between atoms: C_6  and  N_10
REMARK    8  A    between atoms: C_8  and  C_9
REMARK    9  A    between atoms: C_11  and  C_13
REMARK   10  A    between atoms: C_18  and  N_19
REMARK   11  A    between atoms: C_22  and  C_38
REMARK                            x       y       z     vdW  Elec       q    Type
REMARK                         _______ _______ _______ _____ _____    ______ ____
ROOT
ATOM      1  N   UNL     1      -0.913  -8.370  -1.223  0.00  0.00    -0.192 N 
ATOM      2  C   UNL     1      -0.623  -8.370   0.094  0.00  0.00    +0.253 C 
ATOM      3  O   UNL     1      -1.131  -7.683   0.955  0.00  0.00    -0.272 OA
ATOM      4  C   UNL     1       0.466  -9.405   0.276  0.00  0.00    +0.137 C 
ATOM      5  C   UNL     1       1.739  -8.740   0.812  0.00  0.00    +0.139 C 
ATOM      6  C   UNL     1       2.894  -9.668   0.455  0.00  0.00    -0.034 C 
ATOM      7  C   UNL     1       3.495  -9.975   1.600  0.00  0.00    -0.001 A 
ATOM      8  C   UNL     1       4.695 -10.777   1.889  0.00  0.00    +0.010 A 
ATOM      9  C   UNL     1       5.032 -10.898   3.201  0.00  0.00    +0.001 A 
ATOM     10  C   UNL     1       4.306 -10.308   4.240  0.00  0.00    +0.002 A 
ATOM     11  C   UNL     1       3.194  -9.550   4.064  0.00  0.00    +0.026 A 
ATOM     12  C   UNL     1       2.741  -9.348   2.728  0.00  0.00    +0.043 A 
ATOM     13  N   UNL     1       1.723  -8.656   2.274  0.00  0.00    -0.375 N 
ATOM     14  C   UNL     1       3.170 -10.143  -0.951  0.00  0.00    +0.052 C 
ATOM     15  C   UNL     1       1.853 -10.726  -1.502  0.00  0.00    +0.115 C 
ATOM     16  N   UNL     1       0.758  -9.834  -1.111  0.00  0.00    -0.268 N 
ATOM     17  C   UNL     1      -0.142  -9.232  -1.899  0.00  0.00    +0.317 C 
ATOM     18  O   UNL     1      -0.245  -9.442  -3.092  0.00  0.00    -0.252 OA
ATOM     19  C   UNL     1       0.006 -10.570   1.153  0.00  0.00    +0.044 C 
ATOM     20  H   UNL     1       1.070  -8.175   2.807  0.00  0.00    +0.160 HD
ENDROOT
BRANCH   1  26
ATOM     21  C   UNL     1      -1.578  -6.296  -2.290  0.00  0.00    +0.059 A 
ATOM     22  C   UNL     1      -2.572  -5.511  -2.879  0.00  0.00    +0.015 A 
ATOM     23  C   UNL     1      -3.859  -5.993  -2.980  0.00  0.00    +0.001 A 
ATOM     24  C   UNL     1      -4.173  -7.254  -2.499  0.00  0.00    +0.002 A 
ATOM     25  C   UNL     1      -3.201  -8.040  -1.915  0.00  0.00    +0.025 A 
ATOM     26  C   UNL     1      -1.899  -7.573  -1.810  0.00  0.00    +0.058 A 
BRANCH  21  28
ATOM     27  N   UNL     1       0.106  -4.557  -2.642  0.00  0.00    -0.308 N 
ATOM     28  C   UNL     1      -0.198  -5.786  -2.179  0.00  0.00    +0.246 C 
ATOM     29  O   UNL     1       0.665  -6.474  -1.670  0.00  0.00    -0.270 OA
ATOM     30  H   UNL     1      -0.583  -4.008  -3.049  0.00  0.00    +0.149 HD
BRANCH  27  31
ATOM     31  C   UNL     1       1.476  -4.051  -2.532  0.00  0.00    +0.073 C 
BRANCH  31  32
ATOM     32  C   UNL     1       2.299  -4.543  -3.725  0.00  0.00    +0.019 C 
ATOM     33  C   UNL     1       2.424  -6.066  -3.663  0.00  0.00    +0.006 C 
ENDBRANCH  31  32
BRANCH  31  34
ATOM     34  C   UNL     1       1.455  -2.521  -2.524  0.00  0.00    +0.022 C 
BRANCH  34  35
ATOM     35  C   UNL     1       0.739  -2.027  -1.265  0.00  0.00    +0.002 C 
BRANCH  35  36
ATOM     36  C   UNL     1       0.718  -0.497  -1.257  0.00  0.00    -0.000 C 
BRANCH  36  38
ATOM     37  C   UNL     1      -0.019   1.526   0.010  0.00  0.00    +0.004 C 
ATOM     38  C   UNL     1       0.002  -0.004   0.002  0.00  0.00    -0.003 C 
ENDBRANCH  36  38
ENDBRANCH  35  36
ENDBRANCH  34  35
ENDBRANCH  31  34
ENDBRANCH  27  31
ENDBRANCH  21  28
ENDBRANCH   1  26
TORSDOF 8
