REMARK  Name = ZINC35343714
REMARK  2 active torsions:
REMARK  status: ('A' for Active; 'I' for Inactive)
REMARK    1  A    between atoms: C_3  and  N_12
REMARK    2  A    between atoms: C_8  and  N_11
REMARK                            x       y       z     vdW  Elec       q    Type
REMARK                         _______ _______ _______ _____ _____    ______ ____
ROOT
ATOM      1  C   UNL     1      -0.017   1.405   0.010  0.00  0.00    +0.013 A 
ATOM      2  C   UNL     1       1.175   2.067   0.002  0.00  0.00    +0.047 A 
ATOM      3  C   UNL     1       2.374   1.344  -0.013  0.00  0.00    +0.139 A 
ATOM      4  N   UNL     1       2.386   0.029  -0.021  0.00  0.00    -0.229 NA
ATOM      5  C   UNL     1       1.249  -0.677  -0.014  0.00  0.00    +0.073 A 
ATOM      6  C   UNL     1       0.002  -0.004   0.002  0.00  0.00    +0.002 A 
ATOM      7  C   UNL     1      -1.188  -0.747   0.008  0.00  0.00    +0.032 A 
ATOM      8  C   UNL     1      -1.128  -2.124  -0.001  0.00  0.00    +0.025 A 
ATOM      9  C   UNL     1       0.107  -2.782  -0.015  0.00  0.00    +0.025 A 
ATOM     10  C   UNL     1       1.273  -2.083  -0.023  0.00  0.00    +0.030 A 
ENDROOT
BRANCH   3  11
ATOM     11  N   UNL     1       3.587   2.037  -0.021  0.00  0.00    -0.290 N 
ATOM     12  C   UNL     1       4.839   1.488  -0.138  0.00  0.00    +0.114 A 
ATOM     13  C   UNL     1       5.717   2.507  -0.099  0.00  0.00    +0.130 A 
ATOM     14  N   UNL     1       5.027   3.650   0.037  0.00  0.00    -0.244 NA
ATOM     15  C   UNL     1       3.751   3.382   0.079  0.00  0.00    +0.205 A 
ENDBRANCH   3  11
BRANCH   8  16
ATOM     16  N   UNL     1      -2.310  -2.869   0.006  0.00  0.00    -0.358 N 
ATOM     17  H   UNL     1      -3.168  -2.417   0.016  0.00  0.00    +0.142 HD
ATOM     18  H   UNL     1      -2.272  -3.838  -0.001  0.00  0.00    +0.142 HD
ENDBRANCH   8  16
TORSDOF 2
