REMARK  Name = ZINC09379639
REMARK  9 active torsions:
REMARK  status: ('A' for Active; 'I' for Inactive)
REMARK    1  A    between atoms: C_1  and  C_2
REMARK    2  A    between atoms: C_5  and  N_8
REMARK    3  A    between atoms: C_9  and  C_28
REMARK    4  A    between atoms: C_12  and  S_13
REMARK    5  A    between atoms: S_13  and  C_14
REMARK    6  A    between atoms: C_14  and  C_15
REMARK    7  A    between atoms: N_17  and  N_18
REMARK    8  A    between atoms: C_19  and  C_20
REMARK    9  A    between atoms: C_19  and  C_21
REMARK                            x       y       z     vdW  Elec       q    Type
REMARK                         _______ _______ _______ _____ _____    ______ ____
ROOT
ATOM      1  N   UNL     1      -3.764   1.531  -0.159  0.00  0.00    -0.270 N 
ATOM      2  C   UNL     1      -2.500   0.983  -0.132  0.00  0.00    +0.169 A 
ATOM      3  N   UNL     1      -2.643  -0.300   0.108  0.00  0.00    -0.128 NA
ATOM      4  N   UNL     1      -3.889  -0.590   0.225  0.00  0.00    -0.122 NA
ATOM      5  C   UNL     1      -4.622   0.490   0.068  0.00  0.00    +0.197 A 
ENDROOT
BRANCH   1  10
ATOM      6  C   UNL     1      -5.127   6.970  -1.039  0.00  0.00    +0.044 C 
ATOM      7  C   UNL     1      -4.765   5.526  -0.805  0.00  0.00    -0.050 A 
ATOM      8  C   UNL     1      -5.095   4.571  -1.749  0.00  0.00    +0.005 A 
ATOM      9  C   UNL     1      -4.764   3.246  -1.538  0.00  0.00    +0.026 A 
ATOM     10  C   UNL     1      -4.101   2.874  -0.376  0.00  0.00    +0.051 A 
ATOM     11  C   UNL     1      -3.777   3.835   0.572  0.00  0.00    +0.026 A 
ATOM     12  C   UNL     1      -4.104   5.159   0.352  0.00  0.00    +0.005 A 
ENDBRANCH   1  10
BRANCH   2  13
ATOM     13  C   UNL     1      -1.225   1.704  -0.329  0.00  0.00    +0.020 A 
ATOM     14  C   UNL     1      -1.218   2.963  -0.931  0.00  0.00    +0.013 A 
ATOM     15  C   UNL     1      -0.026   3.634  -1.107  0.00  0.00    +0.021 A 
ATOM     16  C   UNL     1       1.163   3.058  -0.692  0.00  0.00    +0.041 A 
ATOM     17  C   UNL     1       1.163   1.807  -0.098  0.00  0.00    +0.021 A 
ATOM     18  C   UNL     1      -0.023   1.127   0.083  0.00  0.00    +0.013 A 
ATOM     19 CL   UNL     1       2.660   3.908  -0.916  0.00  0.00    -0.084 Cl
ENDBRANCH   2  13
BRANCH   5  20
ATOM     20  S   UNL     1      -6.380   0.580   0.144  0.00  0.00    -0.076 S 
BRANCH  20  21
ATOM     21  C   UNL     1      -6.770  -1.155   0.477  0.00  0.00    +0.174 C 
BRANCH  21  22
ATOM     22  C   UNL     1      -8.264  -1.323   0.586  0.00  0.00    +0.242 C 
ATOM     23  O   UNL     1      -8.993  -0.363   0.450  0.00  0.00    -0.273 OA
ATOM     24  N   UNL     1      -8.789  -2.539   0.833  0.00  0.00    -0.206 N 
ATOM     25  H   UNL     1      -8.206  -3.307   0.941  0.00  0.00    +0.177 HD
BRANCH  24  26
ATOM     26  N   UNL     1     -10.178  -2.695   0.933  0.00  0.00    -0.185 NA
ATOM     27  C   UNL     1     -10.684  -3.865   1.171  0.00  0.00    +0.063 C 
ATOM     28  C   UNL     1      -9.778  -5.058   1.339  0.00  0.00    +0.068 C 
BRANCH  27  29
ATOM     29  C   UNL     1     -12.146  -4.029   1.277  0.00  0.00    -0.002 A 
ATOM     30  C   UNL     1     -12.694  -5.289   1.527  0.00  0.00    +0.011 A 
ATOM     31  C   UNL     1     -14.062  -5.435   1.632  0.00  0.00    +0.020 A 
ATOM     32  C   UNL     1     -14.892  -4.337   1.476  0.00  0.00    +0.041 A 
ATOM     33  C   UNL     1     -14.355  -3.086   1.222  0.00  0.00    +0.020 A 
ATOM     34  C   UNL     1     -12.989  -2.926   1.122  0.00  0.00    +0.011 A 
ATOM     35 CL   UNL     1     -16.612  -4.529   1.601  0.00  0.00    -0.084 Cl
ENDBRANCH  27  29
ENDBRANCH  24  26
ENDBRANCH  21  22
ENDBRANCH  20  21
ENDBRANCH   5  20
TORSDOF 7
