REMARK  Name = ZINC03312537
REMARK  8 active torsions:
REMARK  status: ('A' for Active; 'I' for Inactive)
REMARK    1  A    between atoms: C_3  and  C_9
REMARK    2  A    between atoms: C_4  and  O_8
REMARK    3  A    between atoms: C_6  and  O_7
REMARK    4  A    between atoms: C_9  and  C_11
REMARK    5  A    between atoms: C_11  and  S_12
REMARK    6  A    between atoms: S_12  and  C_13
REMARK    7  A    between atoms: C_16  and  C_19
REMARK    8  A    between atoms: N_17  and  N_18
REMARK                            x       y       z     vdW  Elec       q    Type
REMARK                         _______ _______ _______ _____ _____    ______ ____
ROOT
ATOM      1  C   UNL     1       2.041   0.776  -0.092  0.00  0.00    +0.209 A 
ATOM      2  N   UNL     1       1.187   1.760   0.082  0.00  0.00    -0.121 NA
ATOM      3  N   UNL     1      -0.011   1.299   0.139  0.00  0.00    -0.127 NA
ATOM      4  C   UNL     1       0.004  -0.006   0.005  0.00  0.00    +0.183 A 
ATOM      5  N   UNL     1       1.319  -0.382  -0.146  0.00  0.00    -0.224 N 
ENDROOT
BRANCH   4   6
ATOM      6  C   UNL     1      -1.171  -0.904   0.016  0.00  0.00    +0.040 A 
ATOM      7  C   UNL     1      -1.156  -2.068   0.787  0.00  0.00    +0.033 A 
ATOM      8  C   UNL     1      -2.256  -2.902   0.793  0.00  0.00    +0.042 A 
ATOM      9  C   UNL     1      -3.372  -2.586   0.036  0.00  0.00    +0.021 A 
ATOM     10  C   UNL     1      -3.393  -1.435  -0.730  0.00  0.00    +0.022 A 
ATOM     11  C   UNL     1      -2.302  -0.589  -0.740  0.00  0.00    +0.052 A 
ATOM     12 CL   UNL     1      -2.333   0.860  -1.696  0.00  0.00    -0.083 Cl
ATOM     13 CL   UNL     1      -2.240  -4.350   1.750  0.00  0.00    -0.084 Cl
ENDBRANCH   4   6
BRANCH   5  14
ATOM     14  N   UNL     1       1.801  -1.649  -0.317  0.00  0.00    -0.295 N 
ATOM     15  H   UNL     1       1.928  -1.858  -1.296  0.00  0.00    +0.163 HD
ATOM     16  H   UNL     1       2.660  -1.780   0.196  0.00  0.00    +0.163 HD
ENDBRANCH   5  14
BRANCH   1  17
ATOM     17  S   UNL     1       3.792   0.923  -0.228  0.00  0.00    -0.077 S 
BRANCH  17  18
ATOM     18  C   UNL     1       3.970   2.716  -0.062  0.00  0.00    +0.157 C 
BRANCH  18  19
ATOM     19  C   UNL     1       5.429   3.086  -0.150  0.00  0.00    +0.177 C 
ATOM     20  O   UNL     1       6.265   2.222  -0.310  0.00  0.00    -0.291 OA
BRANCH  19  23
ATOM     21  C   UNL     1       5.255   6.796   0.240  0.00  0.00    +0.046 A 
ATOM     22  C   UNL     1       4.873   5.490   0.141  0.00  0.00    +0.018 A 
ATOM     23  C   UNL     1       5.836   4.489  -0.043  0.00  0.00    +0.060 A 
ATOM     24  C   UNL     1       7.197   4.838  -0.120  0.00  0.00    +0.131 A 
ATOM     25  C   UNL     1       7.569   6.167  -0.023  0.00  0.00    +0.091 A 
ATOM     26  C   UNL     1       6.601   7.145   0.159  0.00  0.00    +0.120 A 
BRANCH  26  27
ATOM     27  O   UNL     1       6.968   8.447   0.260  0.00  0.00    -0.507 OA
ATOM     28  H   UNL     1       7.150   8.736   1.164  0.00  0.00    +0.292 HD
ENDBRANCH  26  27
BRANCH  24  29
ATOM     29  O   UNL     1       8.139   3.877  -0.292  0.00  0.00    -0.506 OA
ATOM     30  H   UNL     1       8.340   3.686  -1.218  0.00  0.00    +0.292 HD
ENDBRANCH  24  29
ENDBRANCH  19  23
ENDBRANCH  18  19
ENDBRANCH  17  18
ENDBRANCH   1  17
TORSDOF 8
