REMARK  Name = ZINC08704417
REMARK  4 active torsions:
REMARK  status: ('A' for Active; 'I' for Inactive)
REMARK    1  A    between atoms: C_4  and  S_7
REMARK    2  A    between atoms: S_7  and  C_8
REMARK    3  A    between atoms: C_8  and  C_9
REMARK    4  A    between atoms: C_11  and  C_14
REMARK                            x       y       z     vdW  Elec       q    Type
REMARK                         _______ _______ _______ _____ _____    ______ ____
ROOT
ATOM      1  C   UNL     1      -2.243   7.383   0.060  0.00  0.00    +0.238 A 
ATOM      2  N   UNL     1      -2.366   8.159  -0.988  0.00  0.00    -0.191 NA
ATOM      3  C   UNL     1      -2.558   9.404  -0.499  0.00  0.00    +0.202 A 
ATOM      4  N   UNL     1      -2.533   9.315   0.806  0.00  0.00    -0.056 NA
ATOM      5  O   UNL     1      -2.353   8.163   1.141  0.00  0.00    -0.337 OA
ENDROOT
BRANCH   3   6
ATOM      6  C   UNL     1      -2.755  10.642  -1.293  0.00  0.00    +0.023 A 
ATOM      7  C   UNL     1      -2.753  10.587  -2.685  0.00  0.00    +0.014 A 
ATOM      8  C   UNL     1      -2.941  11.739  -3.420  0.00  0.00    +0.039 A 
ATOM      9  C   UNL     1      -3.122  12.952  -2.775  0.00  0.00    +0.123 A 
ATOM     10  C   UNL     1      -3.120  13.013  -1.391  0.00  0.00    +0.039 A 
ATOM     11  C   UNL     1      -2.937  11.864  -0.648  0.00  0.00    +0.014 A 
ATOM     12  F   UNL     1      -3.301  14.079  -3.498  0.00  0.00    -0.205 F 
ENDBRANCH   3   6
BRANCH   1  13
ATOM     13  C   UNL     1      -2.015   5.894   0.051  0.00  0.00    +0.174 C 
BRANCH  13  14
ATOM     14  S   UNL     1      -0.233   5.556   0.033  0.00  0.00    -0.095 S 
BRANCH  14  18
ATOM     15  C   UNL     1      -0.013   1.076   0.008  0.00  0.00    +0.021 A 
ATOM     16  C   UNL     1       1.177   1.794   0.001  0.00  0.00    +0.024 A 
ATOM     17  C   UNL     1       1.114   3.175   0.008  0.00  0.00    +0.073 A 
ATOM     18  C   UNL     1      -0.133   3.796   0.023  0.00  0.00    +0.116 A 
ATOM     19  N   UNL     1      -1.244   3.076   0.029  0.00  0.00    -0.247 NA
ATOM     20  C   UNL     1      -1.213   1.756   0.017  0.00  0.00    +0.112 A 
ATOM     21 CL   UNL     1       2.569   4.123  -0.001  0.00  0.00    -0.081 Cl
ENDBRANCH  14  18
ENDBRANCH  13  14
ENDBRANCH   1  13
TORSDOF 4
