REMARK  Name = ZINC35128800
REMARK  16 active torsions:
REMARK  status: ('A' for Active; 'I' for Inactive)
REMARK    1  A    between atoms: C_1  and  C_2
REMARK    2  A    between atoms: C_5  and  C_8
REMARK    3  A    between atoms: C_11  and  S_20
REMARK    4  A    between atoms: N_12  and  C_13
REMARK    5  A    between atoms: C_16  and  C_19
REMARK    6  A    between atoms: S_20  and  C_21
REMARK    7  A    between atoms: C_21  and  C_22
REMARK    8  A    between atoms: C_22  and  C_23
REMARK    9  A    between atoms: C_23  and  C_24
REMARK   10  A    between atoms: N_26  and  C_27
REMARK   11  A    between atoms: N_26  and  C_32
REMARK   12  A    between atoms: C_27  and  C_28
REMARK   13  A    between atoms: C_28  and  N_29
REMARK   14  A    between atoms: N_29  and  C_30
REMARK   15  A    between atoms: N_29  and  C_31
REMARK   16  A    between atoms: C_32  and  C_33
REMARK                            x       y       z     vdW  Elec       q    Type
REMARK                         _______ _______ _______ _____ _____    ______ ____
ROOT
ATOM      1  S   UNL     1       0.515  -7.833   1.477  0.00  0.00    -0.086 S 
ENDROOT
BRANCH   1   5
ATOM      2  C   UNL     1       0.060  -4.251  -0.021  0.00  0.00    +0.169 A 
ATOM      3  N   UNL     1      -0.203  -5.029  -1.045  0.00  0.00    -0.128 NA
ATOM      4  N   UNL     1      -0.092  -6.262  -0.701  0.00  0.00    -0.122 NA
ATOM      5  C   UNL     1       0.249  -6.349   0.566  0.00  0.00    +0.196 A 
ATOM      6  N   UNL     1       0.363  -5.072   1.043  0.00  0.00    -0.270 N 
BRANCH   2  11
ATOM      7  C   UNL     1      -0.018   1.503   0.010  0.00  0.00    +0.044 C 
ATOM      8  C   UNL     1       0.002  -0.004   0.002  0.00  0.00    -0.050 A 
ATOM      9  C   UNL     1       0.006  -0.686  -1.202  0.00  0.00    +0.004 A 
ATOM     10  C   UNL     1       0.024  -2.066  -1.216  0.00  0.00    +0.012 A 
ATOM     11  C   UNL     1       0.040  -2.773  -0.013  0.00  0.00    +0.020 A 
ATOM     12  C   UNL     1       0.037  -2.079   1.198  0.00  0.00    +0.012 A 
ATOM     13  C   UNL     1       0.023  -0.699   1.198  0.00  0.00    +0.004 A 
ENDBRANCH   2  11
BRANCH   6  14
ATOM     14  C   UNL     1       0.712  -4.681   2.343  0.00  0.00    +0.051 A 
ATOM     15  C   UNL     1       1.889  -3.978   2.565  0.00  0.00    +0.026 A 
ATOM     16  C   UNL     1       2.230  -3.594   3.847  0.00  0.00    +0.005 A 
ATOM     17  C   UNL     1       1.401  -3.908   4.909  0.00  0.00    -0.050 A 
ATOM     18  C   UNL     1       0.229  -4.609   4.690  0.00  0.00    +0.005 A 
ATOM     19  C   UNL     1      -0.121  -4.990   3.410  0.00  0.00    +0.026 A 
ATOM     20  C   UNL     1       1.777  -3.488   6.306  0.00  0.00    +0.044 C 
ENDBRANCH   6  14
ENDBRANCH   1   5
BRANCH   1  21
ATOM     21  C   UNL     1       0.211  -9.151   0.269  0.00  0.00    +0.078 C 
BRANCH  21  22
ATOM     22  C   UNL     1       0.411 -10.513   0.938  0.00  0.00    +0.020 C 
BRANCH  22  23
ATOM     23  C   UNL     1       0.154 -11.624  -0.082  0.00  0.00    +0.097 C 
BRANCH  23  24
ATOM     24  C   UNL     1       0.350 -12.966   0.577  0.00  0.00    +0.216 C 
ATOM     25  O   UNL     1       0.665 -13.026   1.747  0.00  0.00    -0.276 OA
ATOM     26  N   UNL     1       0.177 -14.097  -0.134  0.00  0.00    -0.299 N 
BRANCH  26  27
ATOM     27  C   UNL     1      -0.203 -14.024  -1.547  0.00  0.00    +0.089 C 
BRANCH  27  28
ATOM     28  C   UNL     1       1.059 -13.978  -2.412  0.00  0.00    -0.060 C 
BRANCH  28  29
ATOM     29  N   UNL     1       0.678 -13.904  -3.829  0.00  0.00    +0.377 N 
ATOM     30  C   UNL     1       1.884 -13.740  -4.652  0.00  0.00    -0.097 C 
ATOM     31  C   UNL     1      -0.013 -15.142  -4.215  0.00  0.00    -0.097 C 
ATOM     32  H   UNL     1       0.063 -13.117  -3.972  0.00  0.00    -0.083 HD
ENDBRANCH  28  29
ENDBRANCH  27  28
ENDBRANCH  26  27
BRANCH  26  33
ATOM     33  C   UNL     1       0.368 -15.401   0.507  0.00  0.00    +0.142 C 
BRANCH  33  34
ATOM     34  C   UNL     1      -0.939 -15.868   1.094  0.00  0.00    -0.030 A 
ATOM     35  C   UNL     1      -1.273 -15.532   2.393  0.00  0.00    +0.005 A 
ATOM     36  C   UNL     1      -2.471 -15.961   2.931  0.00  0.00    +0.000 A 
ATOM     37  C   UNL     1      -3.337 -16.726   2.171  0.00  0.00    +0.000 A 
ATOM     38  C   UNL     1      -3.003 -17.061   0.872  0.00  0.00    +0.000 A 
ATOM     39  C   UNL     1      -1.806 -16.629   0.332  0.00  0.00    +0.005 A 
ENDBRANCH  33  34
ENDBRANCH  26  33
ENDBRANCH  23  24
ENDBRANCH  22  23
ENDBRANCH  21  22
ENDBRANCH   1  21
TORSDOF 12
