REMARK  Name = ZINC34829527
REMARK  15 active torsions:
REMARK  status: ('A' for Active; 'I' for Inactive)
REMARK    1  A    between atoms: C_1  and  C_2
REMARK    2  A    between atoms: C_2  and  C_3
REMARK    3  A    between atoms: C_3  and  C_5
REMARK    4  A    between atoms: C_3  and  C_11
REMARK    5  A    between atoms: N_13  and  C_14
REMARK    6  A    between atoms: N_13  and  C_35
REMARK    7  A    between atoms: C_14  and  C_15
REMARK    8  A    between atoms: C_16  and  C_34
REMARK    9  A    between atoms: N_18  and  C_28
REMARK   10  A    between atoms: C_19  and  N_20
REMARK   11  A    between atoms: N_23  and  C_26
REMARK   12  A    between atoms: C_26  and  C_27
REMARK   13  A    between atoms: C_35  and  C_36
REMARK   14  A    between atoms: C_36  and  C_37
REMARK   15  A    between atoms: C_36  and  C_38
REMARK                            x       y       z     vdW  Elec       q    Type
REMARK                         _______ _______ _______ _____ _____    ______ ____
ROOT
ATOM      1  C   UNL     1       1.506  -3.834  -0.876  0.00  0.00    +0.032 A 
ATOM      2  C   UNL     1       1.459  -2.856  -1.874  0.00  0.00    +0.067 A 
ATOM      3  N   UNL     1       2.644  -2.311  -1.978  0.00  0.00    -0.170 NA
ATOM      4  N   UNL     1       3.495  -2.922  -1.048  0.00  0.00    -0.218 N 
ATOM      5  C   UNL     1       2.772  -3.857  -0.373  0.00  0.00    +0.130 A 
ATOM      6  C   UNL     1       0.247  -2.490  -2.692  0.00  0.00    +0.068 C 
ENDROOT
BRANCH   5   7
ATOM      7  N   UNL     1       3.240  -4.686   0.642  0.00  0.00    -0.318 N 
ATOM      8  C   UNL     1       3.774  -6.023   0.341  0.00  0.00    +0.088 C 
ATOM      9  C   UNL     1       5.137  -6.167   1.025  0.00  0.00    -0.060 C 
ATOM     10  N   UNL     1       4.997  -5.879   2.458  0.00  0.00    +0.382 N 
ATOM     11  C   UNL     1       4.604  -4.477   2.651  0.00  0.00    -0.060 C 
ATOM     12  C   UNL     1       3.220  -4.247   2.046  0.00  0.00    +0.088 C 
ATOM     13  H   UNL     1       4.291  -6.482   2.854  0.00  0.00    -0.082 HD
BRANCH  10  14
ATOM     14  C   UNL     1       6.279  -6.124   3.133  0.00  0.00    -0.082 C 
ATOM     15  C   UNL     1       6.103  -5.945   4.642  0.00  0.00    -0.017 C 
ENDBRANCH  10  14
ENDBRANCH   5   7
BRANCH   4  16
ATOM     16  C   UNL     1       4.849  -2.621  -0.845  0.00  0.00    +0.067 A 
ATOM     17  C   UNL     1       5.291  -2.214   0.407  0.00  0.00    +0.028 A 
ATOM     18  C   UNL     1       6.626  -1.919   0.604  0.00  0.00    +0.002 A 
ATOM     19  C   UNL     1       7.521  -2.027  -0.444  0.00  0.00    +0.000 A 
ATOM     20  C   UNL     1       7.084  -2.432  -1.692  0.00  0.00    +0.002 A 
ATOM     21  C   UNL     1       5.752  -2.734  -1.894  0.00  0.00    +0.028 A 
ENDBRANCH   4  16
BRANCH   1  22
ATOM     22  C   UNL     1       0.359  -4.704  -0.432  0.00  0.00    +0.148 C 
BRANCH  22  25
ATOM     23  C   UNL     1      -1.529  -3.253   0.082  0.00  0.00    +0.223 C 
ATOM     24  O   UNL     1      -1.862  -3.316  -1.083  0.00  0.00    -0.275 OA
ATOM     25  N   UNL     1      -0.473  -3.966   0.521  0.00  0.00    -0.296 N 
BRANCH  23  26
ATOM     26  C   UNL     1      -2.296  -2.377   1.038  0.00  0.00    +0.105 C 
BRANCH  26  27
ATOM     27  C   UNL     1      -3.637  -2.035   0.441  0.00  0.00    -0.036 A 
ATOM     28  C   UNL     1      -3.706  -1.362  -0.764  0.00  0.00    +0.004 A 
ATOM     29  C   UNL     1      -4.936  -1.049  -1.312  0.00  0.00    +0.000 A 
ATOM     30  C   UNL     1      -6.097  -1.409  -0.654  0.00  0.00    +0.000 A 
ATOM     31  C   UNL     1      -6.028  -2.082   0.551  0.00  0.00    +0.000 A 
ATOM     32  C   UNL     1      -4.798  -2.400   1.096  0.00  0.00    +0.004 A 
ENDBRANCH  26  27
BRANCH  26  34
ATOM     33  C   UNL     1      -2.186  -0.291   2.409  0.00  0.00    +0.005 C 
ATOM     34  C   UNL     1      -1.509  -1.090   1.294  0.00  0.00    +0.014 C 
ENDBRANCH  26  34
ENDBRANCH  23  26
BRANCH  25  35
ATOM     35  C   UNL     1      -0.158  -4.004   1.951  0.00  0.00    +0.111 C 
BRANCH  35  36
ATOM     36  C   UNL     1      -0.751  -5.271   2.571  0.00  0.00    +0.000 C 
ATOM     37  C   UNL     1      -0.289  -5.392   4.025  0.00  0.00    +0.009 C 
ATOM     38  C   UNL     1      -2.278  -5.195   2.525  0.00  0.00    +0.009 C 
ENDBRANCH  35  36
ENDBRANCH  25  35
ENDBRANCH  22  25
ENDBRANCH   1  22
TORSDOF 10
