REMARK  Name = ZINC61912421
REMARK  4 active torsions:
REMARK  status: ('A' for Active; 'I' for Inactive)
REMARK    1  A    between atoms: C_1  and  C_2
REMARK    2  A    between atoms: N_6  and  C_15
REMARK    3  A    between atoms: C_10  and  N_14
REMARK    4  A    between atoms: C_15  and  C_16
REMARK                            x       y       z     vdW  Elec       q    Type
REMARK                         _______ _______ _______ _____ _____    ______ ____
ROOT
ATOM      1  C   UNL     1      -0.019   1.526   0.010  0.00  0.00    +0.062 C 
ATOM      2  C   UNL     1       0.002  -0.004   0.002  0.00  0.00    +0.256 C 
ATOM      3  C   UNL     1       0.706  -0.489  -1.239  0.00  0.00    +0.261 C 
ATOM      4  O   UNL     1       0.073  -0.718  -2.249  0.00  0.00    -0.271 OA
ATOM      5  N   UNL     1       2.045  -0.669  -1.223  0.00  0.00    -0.260 N 
ATOM      6  C   UNL     1       2.749  -0.430  -0.031  0.00  0.00    +0.079 A 
ATOM      7  C   UNL     1       4.126  -0.288  -0.041  0.00  0.00    +0.029 A 
ATOM      8  C   UNL     1       4.803  -0.055   1.142  0.00  0.00    +0.025 A 
ATOM      9  C   UNL     1       4.105   0.036   2.339  0.00  0.00    +0.028 A 
ATOM     10  C   UNL     1       2.723  -0.106   2.351  0.00  0.00    +0.070 A 
ATOM     11  C   UNL     1       2.044  -0.338   1.169  0.00  0.00    +0.145 A 
ATOM     12  O   UNL     1       0.692  -0.477   1.161  0.00  0.00    -0.478 OA
ENDROOT
BRANCH   9  13
ATOM     13  N   UNL     1       4.793   0.271   3.533  0.00  0.00    -0.358 N 
ATOM     14  H   UNL     1       5.758   0.370   3.525  0.00  0.00    +0.142 HD
ATOM     15  H   UNL     1       4.306   0.335   4.370  0.00  0.00    +0.142 HD
ENDBRANCH   9  13
BRANCH   5  16
ATOM     16  C   UNL     1       2.752  -1.105  -2.430  0.00  0.00    +0.156 C 
BRANCH  16  17
ATOM     17  C   UNL     1       3.180   0.102  -3.225  0.00  0.00    +0.009 A 
ATOM     18  C   UNL     1       4.337   0.804  -3.153  0.00  0.00    +0.014 A 
ATOM     19  C   UNL     1       4.516   1.890  -3.990  0.00  0.00    +0.028 A 
ATOM     20  C   UNL     1       3.527   2.219  -4.859  0.00  0.00    +0.078 A 
ATOM     21  S   UNL     1       2.299   0.971  -4.511  0.00  0.00    -0.080 S 
ATOM     22 CL   UNL     1       3.474   3.514  -6.014  0.00  0.00    -0.076 Cl
ENDBRANCH  16  17
ENDBRANCH   5  16
TORSDOF 3
