REMARK  Name = ZINC41006715
REMARK  10 active torsions:
REMARK  status: ('A' for Active; 'I' for Inactive)
REMARK    1  A    between atoms: C_1  and  C_2
REMARK    2  A    between atoms: C_2  and  C_4
REMARK    3  A    between atoms: C_2  and  O_24
REMARK    4  A    between atoms: C_10  and  C_15
REMARK    5  A    between atoms: C_15  and  O_16
REMARK    6  A    between atoms: O_16  and  C_17
REMARK    7  A    between atoms: O_24  and  C_25
REMARK    8  A    between atoms: C_28  and  C_31
REMARK    9  A    between atoms: C_31  and  C_32
REMARK   10  A    between atoms: C_31  and  C_33
REMARK                            x       y       z     vdW  Elec       q    Type
REMARK                         _______ _______ _______ _____ _____    ______ ____
ROOT
ATOM      1  C   UNL     1       0.627  -0.283  -1.345  0.00  0.00    +0.259 C 
ATOM      2  O   UNL     1      -0.044  -0.756  -2.238  0.00  0.00    -0.271 OA
ATOM      3  N   UNL     1       1.927  -0.000  -1.555  0.00  0.00    -0.260 N 
ATOM      4  C   UNL     1       2.501  -0.250  -2.796  0.00  0.00    +0.188 A 
ATOM      5  N   UNL     1       3.731  -0.051  -3.187  0.00  0.00    -0.140 NA
ATOM      6  N   UNL     1       4.135  -0.362  -4.478  0.00  0.00    -0.185 N 
ATOM      7  C   UNL     1       5.266  -0.318  -5.266  0.00  0.00    +0.193 A 
ATOM      8  N   UNL     1       4.955  -0.781  -6.445  0.00  0.00    -0.128 NA
ATOM      9  N   UNL     1       3.713  -1.119  -6.471  0.00  0.00    -0.120 NA
ATOM     10  C   UNL     1       3.179  -0.885  -5.311  0.00  0.00    +0.220 A 
ATOM     11  S   UNL     1       1.746  -0.934  -4.263  0.00  0.00    -0.011 S 
ATOM     12  H   UNL     1       2.463   0.378  -0.841  0.00  0.00    +0.157 HD
ENDROOT
BRANCH   1  14
ATOM     13  C   UNL     1       0.004   1.495   0.268  0.00  0.00    +0.062 C 
ATOM     14  C   UNL     1       0.005  -0.012   0.001  0.00  0.00    +0.256 C 
BRANCH  14  15
ATOM     15  O   UNL     1      -1.339  -0.499   0.012  0.00  0.00    -0.480 OA
BRANCH  15  16
ATOM     16  C   UNL     1      -1.869  -0.818   1.222  0.00  0.00    +0.122 A 
ATOM     17  C   UNL     1      -3.124  -1.405   1.297  0.00  0.00    +0.046 A 
ATOM     18  C   UNL     1      -3.661  -1.729   2.528  0.00  0.00    +0.007 A 
ATOM     19  C   UNL     1      -2.950  -1.468   3.684  0.00  0.00    -0.045 A 
ATOM     20  C   UNL     1      -1.699  -0.881   3.612  0.00  0.00    +0.007 A 
ATOM     21  C   UNL     1      -1.155  -0.561   2.383  0.00  0.00    +0.046 A 
BRANCH  19  22
ATOM     22  C   UNL     1      -3.538  -1.821   5.026  0.00  0.00    +0.013 C 
ATOM     23  C   UNL     1      -2.621  -2.817   5.739  0.00  0.00    +0.012 C 
ATOM     24  C   UNL     1      -3.673  -0.555   5.874  0.00  0.00    +0.012 C 
ENDBRANCH  19  22
ENDBRANCH  15  16
ENDBRANCH  14  15
ENDBRANCH   1  14
BRANCH   7  25
ATOM     25  C   UNL     1       6.623   0.180  -4.840  0.00  0.00    +0.307 C 
BRANCH  25  26
ATOM     26  O   UNL     1       7.382  -0.905  -4.303  0.00  0.00    -0.484 OA
BRANCH  26  27
ATOM     27  C   UNL     1       8.639  -0.625  -3.869  0.00  0.00    +0.121 A 
ATOM     28  C   UNL     1       9.129   0.670  -3.953  0.00  0.00    +0.047 A 
ATOM     29  C   UNL     1      10.407   0.954  -3.511  0.00  0.00    +0.023 A 
ATOM     30  C   UNL     1      11.198  -0.053  -2.985  0.00  0.00    +0.041 A 
ATOM     31  C   UNL     1      10.710  -1.345  -2.901  0.00  0.00    +0.023 A 
ATOM     32  C   UNL     1       9.431  -1.631  -3.336  0.00  0.00    +0.047 A 
ATOM     33 CL   UNL     1      12.803   0.306  -2.431  0.00  0.00    -0.084 Cl
ENDBRANCH  26  27
ENDBRANCH  25  26
ENDBRANCH   7  25
TORSDOF 7
