REMARK  Name = ZINC40036257
REMARK  9 active torsions:
REMARK  status: ('A' for Active; 'I' for Inactive)
REMARK    1  A    between atoms: C_1  and  C_2
REMARK    2  A    between atoms: C_2  and  C_3
REMARK    3  A    between atoms: C_3  and  C_4
REMARK    4  A    between atoms: C_4  and  C_35
REMARK    5  A    between atoms: N_16  and  C_28
REMARK    6  A    between atoms: N_19  and  N_20
REMARK    7  A    between atoms: C_21  and  C_22
REMARK    8  A    between atoms: C_25  and  C_27
REMARK    9  A    between atoms: C_31  and  C_34
REMARK                            x       y       z     vdW  Elec       q    Type
REMARK                         _______ _______ _______ _____ _____    ______ ____
ROOT
ATOM      1  C   UNL     1       1.115   0.128   0.555  0.00  0.00    +0.004 C 
ATOM      2  C   UNL     1       2.458   0.547   1.148  0.00  0.00    +0.047 C 
ATOM      3  C   UNL     1       3.159   1.518   0.237  0.00  0.00    -0.037 A 
ATOM      4  C   UNL     1       3.917   2.544   0.760  0.00  0.00    +0.004 A 
ATOM      5  C   UNL     1       4.562   3.430  -0.085  0.00  0.00    +0.000 A 
ATOM      6  C   UNL     1       4.453   3.295  -1.458  0.00  0.00    +0.001 A 
ATOM      7  C   UNL     1       3.695   2.273  -1.994  0.00  0.00    +0.010 A 
ATOM      8  C   UNL     1       3.043   1.380  -1.147  0.00  0.00    +0.004 A 
ATOM      9  C   UNL     1       2.216   0.280  -1.693  0.00  0.00    +0.084 A 
ATOM     10  C   UNL     1       1.284  -0.330  -0.866  0.00  0.00    +0.050 A 
ATOM     11  C   UNL     1       0.508  -1.376  -1.381  0.00  0.00    +0.264 A 
ATOM     12  O   UNL     1      -0.321  -1.939  -0.683  0.00  0.00    -0.267 OA
ATOM     13  N   UNL     1       0.696  -1.750  -2.665  0.00  0.00    -0.248 N 
ATOM     14  C   UNL     1       1.622  -1.112  -3.437  0.00  0.00    +0.223 A 
ATOM     15  N   UNL     1       2.356  -0.127  -2.958  0.00  0.00    -0.214 NA
ATOM     16  N   UNL     1       1.794  -1.504  -4.739  0.00  0.00    -0.206 N 
ATOM     17  C   UNL     1       0.531  -1.015   1.387  0.00  0.00    +0.017 C 
ATOM     18  H   UNL     1       1.260  -2.227  -5.102  0.00  0.00    +0.177 HD
ENDROOT
BRANCH  13  19
ATOM     19  C   UNL     1      -0.063  -2.795  -3.206  0.00  0.00    +0.053 A 
ATOM     20  C   UNL     1       0.406  -4.100  -3.143  0.00  0.00    +0.026 A 
ATOM     21  C   UNL     1      -0.344  -5.129  -3.677  0.00  0.00    +0.005 A 
ATOM     22  C   UNL     1      -1.562  -4.861  -4.274  0.00  0.00    -0.050 A 
ATOM     23  C   UNL     1      -2.033  -3.562  -4.338  0.00  0.00    +0.005 A 
ATOM     24  C   UNL     1      -1.289  -2.529  -3.801  0.00  0.00    +0.026 A 
ATOM     25  C   UNL     1      -2.379  -5.986  -4.856  0.00  0.00    +0.044 C 
ENDBRANCH  13  19
BRANCH  16  26
ATOM     26  N   UNL     1       2.742  -0.860  -5.545  0.00  0.00    -0.184 NA
ATOM     27  C   UNL     1       2.905  -1.232  -6.781  0.00  0.00    +0.176 C 
BRANCH  27  28
ATOM     28  C   UNL     1       3.897  -0.558  -7.624  0.00  0.00    +0.148 A 
ATOM     29  C   UNL     1       4.164  -0.843  -8.932  0.00  0.00    +0.051 A 
ATOM     30  C   UNL     1       5.178   0.043  -9.341  0.00  0.00    +0.045 A 
ATOM     31  C   UNL     1       5.479   0.818  -8.279  0.00  0.00    +0.103 A 
ATOM     32  O   UNL     1       4.700   0.456  -7.246  0.00  0.00    -0.459 OA
ATOM     33  C   UNL     1       6.514   1.913  -8.257  0.00  0.00    +0.086 C 
ENDBRANCH  27  28
ENDBRANCH  16  26
BRANCH   1  34
ATOM     34  C   UNL     1       0.155   1.319   0.589  0.00  0.00    +0.011 C 
BRANCH  34  36
ATOM     35  C   UNL     1      -2.162   2.088   0.057  0.00  0.00    +0.004 C 
ATOM     36  C   UNL     1      -1.202   0.897   0.022  0.00  0.00    -0.003 C 
ENDBRANCH  34  36
ENDBRANCH   1  34
TORSDOF 5
