REMARK  Name = ZINC33812612
REMARK  11 active torsions:
REMARK  status: ('A' for Active; 'I' for Inactive)
REMARK    1  A    between atoms: C_1  and  C_2
REMARK    2  A    between atoms: C_2  and  C_3
REMARK    3  A    between atoms: C_3  and  N_4
REMARK    4  A    between atoms: C_5  and  N_30
REMARK    5  A    between atoms: C_6  and  C_14
REMARK    6  A    between atoms: C_7  and  C_13
REMARK    7  A    between atoms: C_8  and  C_11
REMARK    8  A    between atoms: N_18  and  C_22
REMARK    9  A    between atoms: C_22  and  C_23
REMARK   10  A    between atoms: C_23  and  C_24
REMARK   11  A    between atoms: N_33  and  C_36
REMARK                            x       y       z     vdW  Elec       q    Type
REMARK                         _______ _______ _______ _____ _____    ______ ____
ROOT
ATOM      1  N   UNL     1       1.099  -2.334   0.963  0.00  0.00    -0.295 N 
ATOM      2  C   UNL     1       0.020  -2.853   1.604  0.00  0.00    +0.112 A 
ATOM      3  C   UNL     1       0.012  -4.196   2.016  0.00  0.00    +0.019 A 
ATOM      4  C   UNL     1       1.133  -5.004   1.759  0.00  0.00    -0.017 A 
ATOM      5  C   UNL     1       2.226  -4.448   1.100  0.00  0.00    +0.120 A 
ATOM      6  C   UNL     1       2.181  -3.088   0.701  0.00  0.00    +0.270 A 
ATOM      7  O   UNL     1       3.133  -2.598   0.119  0.00  0.00    -0.266 OA
ATOM      8  C   UNL     1       1.151  -6.447   2.191  0.00  0.00    +0.046 C 
ENDROOT
BRANCH   3   9
ATOM      9  C   UNL     1      -1.154  -4.749   2.707  0.00  0.00    +0.032 C 
ATOM     10  C   UNL     1      -1.901  -5.718   2.112  0.00  0.00    +0.077 C 
ATOM     11  C   UNL     1      -1.800  -6.264   0.797  0.00  0.00    +0.258 C 
ATOM     12  O   UNL     1      -0.952  -5.869   0.017  0.00  0.00    -0.269 OA
ATOM     13  N   UNL     1      -2.654  -7.211   0.451  0.00  0.00    -0.255 N 
ATOM     14  C   UNL     1      -3.595  -7.649   1.316  0.00  0.00    +0.121 C 
ATOM     15  S   UNL     1      -4.791  -8.852   1.082  0.00  0.00    -0.027 S 
ATOM     16  S   UNL     1      -3.272  -6.660   2.768  0.00  0.00    -0.061 S 
BRANCH  13  17
ATOM     17  C   UNL     1      -2.580  -7.795  -0.891  0.00  0.00    +0.119 C 
BRANCH  17  18
ATOM     18  C   UNL     1      -1.640  -9.001  -0.872  0.00  0.00    +0.054 C 
BRANCH  18  19
ATOM     19  C   UNL     1      -1.564  -9.601  -2.252  0.00  0.00    -0.046 A 
ATOM     20  C   UNL     1      -2.456 -10.588  -2.627  0.00  0.00    +0.004 A 
ATOM     21  C   UNL     1      -2.386 -11.139  -3.893  0.00  0.00    +0.000 A 
ATOM     22  C   UNL     1      -1.424 -10.701  -4.785  0.00  0.00    +0.000 A 
ATOM     23  C   UNL     1      -0.533  -9.713  -4.410  0.00  0.00    +0.000 A 
ATOM     24  C   UNL     1      -0.605  -9.160  -3.146  0.00  0.00    +0.004 A 
ENDBRANCH  18  19
ENDBRANCH  17  18
ENDBRANCH  13  17
ENDBRANCH   3   9
BRANCH   2  25
ATOM     25  N   UNL     1      -1.065  -2.063   1.850  0.00  0.00    -0.320 N 
ATOM     26  C   UNL     1      -2.212  -2.046   0.930  0.00  0.00    +0.088 C 
ATOM     27  C   UNL     1      -3.493  -2.256   1.745  0.00  0.00    -0.060 C 
ATOM     28  N   UNL     1      -3.560  -1.254   2.816  0.00  0.00    +0.380 N 
ATOM     29  C   UNL     1      -2.453  -1.456   3.760  0.00  0.00    -0.060 C 
ATOM     30  C   UNL     1      -1.123  -1.210   3.047  0.00  0.00    +0.088 C 
ATOM     31  C   UNL     1      -4.838  -1.385   3.528  0.00  0.00    -0.096 C 
ATOM     32  H   UNL     1      -3.494  -0.330   2.416  0.00  0.00    -0.082 HD
ENDBRANCH   2  25
BRANCH   5  33
ATOM     33  C   UNL     1       3.384  -5.245   0.824  0.00  0.00    +0.105 C 
ATOM     34  N   UNL     1       4.302  -5.876   0.605  0.00  0.00    -0.191 NA
ENDBRANCH   5  33
BRANCH   1  35
ATOM     35  C   UNL     1       1.081  -0.930   0.545  0.00  0.00    +0.126 C 
BRANCH  35  37
ATOM     36  C   UNL     1       0.601   0.628  -1.348  0.00  0.00    +0.005 C 
ATOM     37  C   UNL     1       0.619  -0.838  -0.911  0.00  0.00    +0.018 C 
ENDBRANCH  35  37
ENDBRANCH   1  35
TORSDOF 8
