REMARK  Name = ZINC09796102
REMARK  10 active torsions:
REMARK  status: ('A' for Active; 'I' for Inactive)
REMARK    1  A    between atoms: C_1  and  C_2
REMARK    2  A    between atoms: C_5  and  S_24
REMARK    3  A    between atoms: C_7  and  N_8
REMARK    4  A    between atoms: C_9  and  C_11
REMARK    5  A    between atoms: C_11  and  N_62
REMARK    6  A    between atoms: C_12  and  C_13
REMARK    7  A    between atoms: C_12  and  N_62
REMARK    8  A    between atoms: C_18  and  C_19
REMARK    9  A    between atoms: C_18  and  N_62
REMARK   10  A    between atoms: S_24  and  N_27
REMARK                            x       y       z     vdW  Elec       q    Type
REMARK                         _______ _______ _______ _____ _____    ______ ____
ROOT
ATOM      1  N   UNL     1       6.496   0.050  -2.666  0.00  0.00    -0.287 N 
ATOM      2  C   UNL     1       6.352   1.374  -2.459  0.00  0.00    +0.201 C 
ATOM      3  O   UNL     1       5.636   1.774  -1.565  0.00  0.00    -0.278 OA
ATOM      4  H   UNL     1       7.126  -0.271  -3.330  0.00  0.00    +0.155 HD
ENDROOT
BRANCH   1  11
ATOM      5  C   UNL     1       5.690  -2.371  -3.924  0.00  0.00    +0.045 C 
ATOM      6  C   UNL     1       5.324  -2.055  -2.496  0.00  0.00    -0.029 A 
ATOM      7  C   UNL     1       4.576  -2.951  -1.759  0.00  0.00    +0.007 A 
ATOM      8  C   UNL     1       4.244  -2.664  -0.448  0.00  0.00    +0.029 A 
ATOM      9  C   UNL     1       4.650  -1.473   0.126  0.00  0.00    +0.107 A 
ATOM     10  C   UNL     1       5.399  -0.572  -0.606  0.00  0.00    +0.052 A 
ATOM     11  C   UNL     1       5.739  -0.861  -1.921  0.00  0.00    +0.038 A 
BRANCH   9  12
ATOM     12  S   UNL     1       4.219  -1.108   1.795  0.00  0.00    +0.061 S 
ATOM     13  O   UNL     1       5.186  -0.182   2.271  0.00  0.00    -0.153 OA
ATOM     14  O   UNL     1       3.979  -2.354   2.434  0.00  0.00    -0.153 OA
BRANCH  12  15
ATOM     15  N   UNL     1       2.771  -0.306   1.762  0.00  0.00    -0.177 NA
ATOM     16  C   UNL     1       1.504  -1.047   1.831  0.00  0.00    +0.109 C 
ATOM     17  C   UNL     1       0.626  -0.633   0.645  0.00  0.00    +0.017 C 
ATOM     18  C   UNL     1       0.465   0.889   0.641  0.00  0.00    +0.003 C 
ATOM     19  C   UNL     1       1.837   1.548   0.481  0.00  0.00    +0.017 C 
ATOM     20  C   UNL     1       2.728   1.159   1.664  0.00  0.00    +0.109 C 
ENDBRANCH  12  15
ENDBRANCH   9  12
ENDBRANCH   1  11
BRANCH   2  21
ATOM     21  C   UNL     1       7.079   2.358  -3.339  0.00  0.00    +0.020 C 
BRANCH  21  22
ATOM     22  N   UNL     1       6.729   3.729  -2.912  0.00  0.00    +0.393 N 
ATOM     23  H   UNL     1       5.707   3.815  -2.870  0.00  0.00    -0.080 HD
BRANCH  22  24
ATOM     24  C   UNL     1       7.289   3.999  -1.571  0.00  0.00    -0.002 C 
BRANCH  24  25
ATOM     25  C   UNL     1       8.788   3.837  -1.583  0.00  0.00    +0.089 A 
ATOM     26  C   UNL     1       9.685   4.827  -1.735  0.00  0.00    +0.042 A 
ATOM     27  C   UNL     1      10.966   4.231  -1.683  0.00  0.00    +0.041 A 
ATOM     28  C   UNL     1      10.775   2.912  -1.502  0.00  0.00    +0.195 A 
ATOM     29  O   UNL     1       9.454   2.680  -1.435  0.00  0.00    -0.470 OA
ENDBRANCH  24  25
ENDBRANCH  22  24
BRANCH  22  30
ATOM     30  C   UNL     1       7.253   4.710  -3.886  0.00  0.00    -0.034 C 
BRANCH  30  31
ATOM     31  C   UNL     1       6.590   6.041  -3.637  0.00  0.00    -0.027 A 
ATOM     32  C   UNL     1       7.039   7.096  -2.915  0.00  0.00    +0.009 A 
ATOM     33  C   UNL     1       6.253   8.230  -2.826  0.00  0.00    +0.008 A 
ATOM     34  C   UNL     1       5.052   8.249  -3.454  0.00  0.00    +0.045 A 
ATOM     35  S   UNL     1       5.005   6.632  -4.210  0.00  0.00    -0.103 S 
ENDBRANCH  30  31
ENDBRANCH  22  30
ENDBRANCH  21  22
ENDBRANCH   2  21
TORSDOF 9
