REMARK  Name = ZINC36653025
REMARK  17 active torsions:
REMARK  status: ('A' for Active; 'I' for Inactive)
REMARK    1  A    between atoms: C_1  and  C_2
REMARK    2  A    between atoms: C_2  and  N_3
REMARK    3  A    between atoms: N_3  and  C_4
REMARK    4  A    between atoms: N_3  and  C_6
REMARK    5  A    between atoms: C_4  and  C_5
REMARK    6  A    between atoms: C_6  and  C_7
REMARK    7  A    between atoms: C_7  and  N_8
REMARK    8  A    between atoms: C_12  and  O_20
REMARK    9  A    between atoms: C_15  and  O_18
REMARK   10  A    between atoms: O_18  and  C_19
REMARK   11  A    between atoms: O_20  and  C_21
REMARK   12  A    between atoms: C_22  and  C_24
REMARK   13  A    between atoms: C_24  and  C_25
REMARK   14  A    between atoms: C_28  and  S_31
REMARK   15  A    between atoms: S_31  and  C_32
REMARK   16  A    between atoms: C_32  and  C_33
REMARK   17  A    between atoms: C_32  and  C_34
REMARK                            x       y       z     vdW  Elec       q    Type
REMARK                         _______ _______ _______ _____ _____    ______ ____
ROOT
ATOM      1  N   UNL     1      -0.343  -2.443   2.229  0.00  0.00    -0.252 N 
ATOM      2  C   UNL     1       0.805  -3.111   1.835  0.00  0.00    +0.168 A 
ATOM      3  N   UNL     1       1.855  -2.641   1.203  0.00  0.00    -0.221 NA
ATOM      4  C   UNL     1       2.915  -3.415   0.880  0.00  0.00    +0.125 A 
ATOM      5  C   UNL     1       4.103  -3.035   0.203  0.00  0.00    +0.147 A 
ATOM      6  C   UNL     1       5.092  -3.954  -0.050  0.00  0.00    +0.051 A 
ATOM      7  C   UNL     1       4.967  -5.279   0.344  0.00  0.00    +0.050 A 
ATOM      8  C   UNL     1       3.820  -5.685   1.007  0.00  0.00    +0.136 A 
ATOM      9  C   UNL     1       2.823  -4.769   1.265  0.00  0.00    +0.086 A 
ATOM     10  S   UNL     1       1.237  -4.830   2.063  0.00  0.00    -0.048 S 
ATOM     11  C   UNL     1      -1.319  -3.106   2.880  0.00  0.00    +0.225 C 
ATOM     12  O   UNL     1      -1.192  -4.288   3.121  0.00  0.00    -0.275 OA
ENDROOT
BRANCH   8  13
ATOM     13  O   UNL     1       3.678  -6.980   1.401  0.00  0.00    -0.494 OA
ATOM     14  C   UNL     1       4.753  -7.871   1.098  0.00  0.00    +0.277 C 
ENDBRANCH   8  13
BRANCH   5  15
ATOM     15  O   UNL     1       4.264  -1.746  -0.200  0.00  0.00    -0.493 OA
ATOM     16  C   UNL     1       5.481  -1.424  -0.876  0.00  0.00    +0.277 C 
ENDBRANCH   5  15
BRANCH   1  17
ATOM     17  C   UNL     1      -0.497  -1.015   1.938  0.00  0.00    +0.097 C 
BRANCH  17  18
ATOM     18  C   UNL     1      -1.171  -0.842   0.576  0.00  0.00    -0.059 C 
BRANCH  18  19
ATOM     19  N   UNL     1      -1.325   0.590   0.284  0.00  0.00    +0.380 N 
ATOM     20  H   UNL     1      -1.824   1.035   1.040  0.00  0.00    -0.082 HD
BRANCH  19  22
ATOM     21  C   UNL     1      -0.155   2.719  -0.020  0.00  0.00    -0.017 C 
ATOM     22  C   UNL     1       0.001   1.206   0.142  0.00  0.00    -0.082 C 
ENDBRANCH  19  22
BRANCH  19  23
ATOM     23  C   UNL     1      -2.079   0.757  -0.966  0.00  0.00    -0.082 C 
ATOM     24  C   UNL     1      -3.508   0.244  -0.772  0.00  0.00    -0.017 C 
ENDBRANCH  19  23
ENDBRANCH  18  19
ENDBRANCH  17  18
ENDBRANCH   1  17
BRANCH  11  25
ATOM     25  C   UNL     1      -2.568  -2.380   3.309  0.00  0.00    +0.131 C 
BRANCH  25  26
ATOM     26  C   UNL     1      -3.492  -3.341   4.011  0.00  0.00    -0.039 A 
ATOM     27  C   UNL     1      -4.428  -4.054   3.284  0.00  0.00    +0.005 A 
ATOM     28  C   UNL     1      -5.276  -4.936   3.924  0.00  0.00    +0.015 A 
ATOM     29  C   UNL     1      -5.189  -5.106   5.300  0.00  0.00    +0.008 A 
ATOM     30  C   UNL     1      -4.248  -4.388   6.028  0.00  0.00    +0.015 A 
ATOM     31  C   UNL     1      -3.399  -3.512   5.380  0.00  0.00    +0.005 A 
BRANCH  29  32
ATOM     32  S   UNL     1      -6.271  -6.229   6.121  0.00  0.00    -0.122 S 
BRANCH  32  33
ATOM     33  C   UNL     1      -5.328  -7.777   6.186  0.00  0.00    +0.045 C 
ATOM     34  C   UNL     1      -4.123  -7.602   7.113  0.00  0.00    +0.019 C 
ATOM     35  C   UNL     1      -6.224  -8.897   6.720  0.00  0.00    +0.019 C 
ENDBRANCH  32  33
ENDBRANCH  29  32
ENDBRANCH  25  26
ENDBRANCH  11  25
TORSDOF 11
