REMARK  Name = ZINC09886181
REMARK  13 active torsions:
REMARK  status: ('A' for Active; 'I' for Inactive)
REMARK    1  A    between atoms: C_1  and  C_2
REMARK    2  A    between atoms: C_5  and  N_8
REMARK    3  A    between atoms: N_8  and  S_9
REMARK    4  A    between atoms: S_9  and  C_12
REMARK    5  A    between atoms: C_15  and  N_18
REMARK    6  A    between atoms: C_19  and  C_21
REMARK    7  A    between atoms: C_22  and  C_23
REMARK    8  A    between atoms: C_25  and  O_33
REMARK    9  A    between atoms: C_26  and  O_31
REMARK   10  A    between atoms: C_27  and  O_29
REMARK   11  A    between atoms: O_29  and  C_30
REMARK   12  A    between atoms: O_31  and  C_32
REMARK   13  A    between atoms: O_33  and  C_34
REMARK                            x       y       z     vdW  Elec       q    Type
REMARK                         _______ _______ _______ _____ _____    ______ ____
ROOT
ATOM      1  C   UNL     1       1.537   2.556  -0.166  0.00  0.00    +0.109 A 
ATOM      2  C   UNL     1       1.994   3.518   0.717  0.00  0.00    +0.030 A 
ATOM      3  C   UNL     1       3.215   4.127   0.504  0.00  0.00    +0.025 A 
ATOM      4  C   UNL     1       3.979   3.781  -0.603  0.00  0.00    +0.034 A 
ATOM      5  C   UNL     1       3.514   2.819  -1.490  0.00  0.00    +0.025 A 
ATOM      6  C   UNL     1       2.295   2.209  -1.269  0.00  0.00    +0.030 A 
ENDROOT
BRANCH   4   7
ATOM      7  N   UNL     1       5.213   4.401  -0.824  0.00  0.00    -0.282 N 
ATOM      8  C   UNL     1       5.979   4.769   0.221  0.00  0.00    +0.241 C 
ATOM      9  O   UNL     1       5.643   4.478   1.355  0.00  0.00    -0.270 OA
ATOM     10  H   UNL     1       5.517   4.565  -1.730  0.00  0.00    +0.155 HD
BRANCH   8  11
ATOM     11  C   UNL     1       7.214   5.518  -0.005  0.00  0.00    +0.068 C 
ATOM     12  C   UNL     1       7.982   5.886   1.042  0.00  0.00    +0.013 C 
BRANCH  12  13
ATOM     13  C   UNL     1       9.224   6.639   0.815  0.00  0.00    -0.018 A 
ATOM     14  C   UNL     1       9.615   6.969  -0.488  0.00  0.00    +0.057 A 
ATOM     15  C   UNL     1      10.781   7.680  -0.698  0.00  0.00    +0.166 A 
ATOM     16  C   UNL     1      11.572   8.060   0.384  0.00  0.00    +0.204 A 
ATOM     17  C   UNL     1      11.188   7.729   1.681  0.00  0.00    +0.166 A 
ATOM     18  C   UNL     1      10.021   7.022   1.899  0.00  0.00    +0.057 A 
BRANCH  17  19
ATOM     19  O   UNL     1      11.963   8.102   2.735  0.00  0.00    -0.491 OA
ATOM     20  C   UNL     1      11.510   7.729   4.038  0.00  0.00    +0.277 C 
ENDBRANCH  17  19
BRANCH  16  21
ATOM     21  O   UNL     1      12.720   8.755   0.173  0.00  0.00    -0.488 OA
ATOM     22  C   UNL     1      13.914   7.994  -0.015  0.00  0.00    +0.277 C 
ENDBRANCH  16  21
BRANCH  15  23
ATOM     23  O   UNL     1      11.160   8.005  -1.963  0.00  0.00    -0.491 OA
ATOM     24  C   UNL     1      10.302   7.583  -3.026  0.00  0.00    +0.277 C 
ENDBRANCH  15  23
ENDBRANCH  12  13
ENDBRANCH   8  11
ENDBRANCH   4   7
BRANCH   1  25
ATOM     25  S   UNL     1      -0.019   1.776   0.112  0.00  0.00    +0.072 S 
ATOM     26  O   UNL     1      -0.422   1.220  -1.131  0.00  0.00    -0.150 OA
ATOM     27  O   UNL     1      -0.819   2.709   0.825  0.00  0.00    -0.150 OA
BRANCH  25  28
ATOM     28  N   UNL     1       0.248   0.502   1.136  0.00  0.00    -0.216 N 
ATOM     29  H   UNL     1       0.107  -0.406   0.827  0.00  0.00    +0.174 HD
BRANCH  28  34
ATOM     30  C   UNL     1       1.991   1.451   6.449  0.00  0.00    +0.044 C 
ATOM     31  C   UNL     1       1.528   1.199   5.037  0.00  0.00    -0.050 A 
ATOM     32  C   UNL     1       0.213   1.449   4.687  0.00  0.00    +0.005 A 
ATOM     33  C   UNL     1      -0.214   1.220   3.394  0.00  0.00    +0.025 A 
ATOM     34  C   UNL     1       0.678   0.736   2.445  0.00  0.00    +0.048 A 
ATOM     35  C   UNL     1       1.996   0.481   2.801  0.00  0.00    +0.025 A 
ATOM     36  C   UNL     1       2.418   0.718   4.095  0.00  0.00    +0.005 A 
ENDBRANCH  28  34
ENDBRANCH  25  28
ENDBRANCH   1  25
TORSDOF 9
