REMARK  Name = ZINC46638104
REMARK  10 active torsions:
REMARK  status: ('A' for Active; 'I' for Inactive)
REMARK    1  A    between atoms: C_1  and  C_2
REMARK    2  A    between atoms: C_2  and  N_3
REMARK    3  A    between atoms: C_4  and  C_6
REMARK    4  A    between atoms: C_9  and  C_12
REMARK    5  A    between atoms: C_12  and  N_13
REMARK    6  A    between atoms: C_14  and  C_16
REMARK    7  A    between atoms: C_19  and  S_22
REMARK    8  A    between atoms: S_22  and  N_25
REMARK    9  A    between atoms: N_25  and  C_26
REMARK   10  A    between atoms: C_26  and  C_27
REMARK                            x       y       z     vdW  Elec       q    Type
REMARK                         _______ _______ _______ _____ _____    ______ ____
ROOT
ATOM      1  N   UNL     1       4.951  -3.806  -5.880  0.00  0.00    -0.307 N 
ATOM      2  C   UNL     1       5.785  -4.232  -6.849  0.00  0.00    +0.244 C 
ATOM      3  O   UNL     1       5.351  -4.491  -7.954  0.00  0.00    -0.270 OA
ATOM      4  H   UNL     1       5.297  -3.599  -4.998  0.00  0.00    +0.149 HD
ENDROOT
BRANCH   2   5
ATOM      5  C   UNL     1       7.229  -4.385  -6.567  0.00  0.00    +0.037 A 
ATOM      6  C   UNL     1       7.729  -4.094  -5.297  0.00  0.00    +0.015 A 
ATOM      7  C   UNL     1       9.077  -4.239  -5.040  0.00  0.00    +0.029 A 
ATOM      8  C   UNL     1       9.932  -4.671  -6.039  0.00  0.00    +0.105 A 
ATOM      9  C   UNL     1       9.442  -4.960  -7.300  0.00  0.00    +0.029 A 
ATOM     10  C   UNL     1       8.096  -4.826  -7.568  0.00  0.00    +0.015 A 
BRANCH   8  11
ATOM     11  S   UNL     1      11.652  -4.853  -5.703  0.00  0.00    +0.059 S 
ATOM     12  O   UNL     1      12.323  -4.747  -6.951  0.00  0.00    -0.153 OA
ATOM     13  O   UNL     1      11.944  -3.998  -4.606  0.00  0.00    -0.153 OA
BRANCH  11  14
ATOM     14  N   UNL     1      11.886  -6.403  -5.169  0.00  0.00    -0.178 NA
ATOM     15  H   UNL     1      12.185  -6.563  -4.261  0.00  0.00    +0.149 HD
BRANCH  14  16
ATOM     16  C   UNL     1      11.639  -7.532  -6.069  0.00  0.00    +0.194 C 
BRANCH  16  17
ATOM     17  C   UNL     1      12.246  -8.749  -5.507  0.00  0.00    -0.089 C 
ATOM     18  C   UNL     1      12.731  -9.720  -5.059  0.00  0.00    +0.005 C 
ENDBRANCH  16  17
ENDBRANCH  14  16
ENDBRANCH  11  14
ENDBRANCH   8  11
ENDBRANCH   2   5
BRANCH   1  19
ATOM     19  C   UNL     1       3.521  -3.655  -6.159  0.00  0.00    +0.139 C 
BRANCH  19  23
ATOM     20  C   UNL     1       1.519  -2.275  -2.641  0.00  0.00    +0.037 A 
ATOM     21  C   UNL     1       2.034  -1.359  -3.559  0.00  0.00    +0.013 A 
ATOM     22  C   UNL     1       2.679  -1.810  -4.692  0.00  0.00    +0.006 A 
ATOM     23  C   UNL     1       2.816  -3.168  -4.920  0.00  0.00    -0.030 A 
ATOM     24  C   UNL     1       2.306  -4.082  -4.014  0.00  0.00    +0.006 A 
ATOM     25  C   UNL     1       1.665  -3.644  -2.874  0.00  0.00    +0.013 A 
BRANCH  20  27
ATOM     26  N   UNL     1       0.688  -0.476  -1.203  0.00  0.00    -0.312 N 
ATOM     27  C   UNL     1       0.827  -1.799  -1.425  0.00  0.00    +0.244 C 
ATOM     28  O   UNL     1       0.383  -2.599  -0.625  0.00  0.00    -0.270 OA
ATOM     29  H   UNL     1       1.042   0.162  -1.842  0.00  0.00    +0.149 HD
BRANCH  26  31
ATOM     30  C   UNL     1      -0.019   1.526   0.010  0.00  0.00    +0.024 C 
ATOM     31  C   UNL     1       0.002  -0.004   0.002  0.00  0.00    +0.101 C 
ENDBRANCH  26  31
ENDBRANCH  20  27
ENDBRANCH  19  23
ENDBRANCH   1  19
TORSDOF 9
