REMARK  Name = ZINC21727374
REMARK  9 active torsions:
REMARK  status: ('A' for Active; 'I' for Inactive)
REMARK    1  A    between atoms: C_1  and  C_2
REMARK    2  A    between atoms: C_2  and  C_3
REMARK    3  A    between atoms: C_3  and  C_5
REMARK    4  A    between atoms: C_3  and  N_6
REMARK    5  A    between atoms: C_7  and  C_9
REMARK    6  A    between atoms: C_9  and  S_10
REMARK    7  A    between atoms: S_10  and  C_11
REMARK    8  A    between atoms: C_16  and  C_24
REMARK    9  A    between atoms: C_27  and  C_30
REMARK                            x       y       z     vdW  Elec       q    Type
REMARK                         _______ _______ _______ _____ _____    ______ ____
ROOT
ATOM      1  C   UNL     1      -7.681   1.992   2.052  0.00  0.00    +0.198 A 
ATOM      2  N   UNL     1      -8.052   1.110   1.151  0.00  0.00    -0.122 NA
ATOM      3  N   UNL     1      -9.059   0.431   1.579  0.00  0.00    -0.128 NA
ATOM      4  C   UNL     1      -9.391   0.838   2.777  0.00  0.00    +0.173 A 
ATOM      5  N   UNL     1      -8.514   1.850   3.123  0.00  0.00    -0.253 N 
ATOM      6  C   UNL     1      -8.632   2.477   4.340  0.00  0.00    +0.149 A 
ATOM      7  N   UNL     1      -9.546   2.150   5.214  0.00  0.00    -0.228 NA
ATOM      8  C   UNL     1     -10.453   1.169   4.982  0.00  0.00    +0.077 A 
ATOM      9  C   UNL     1     -10.421   0.466   3.755  0.00  0.00    +0.045 A 
ATOM     10  C   UNL     1     -11.347  -0.542   3.505  0.00  0.00    +0.014 A 
ATOM     11  C   UNL     1     -12.293  -0.851   4.460  0.00  0.00    +0.001 A 
ATOM     12  C   UNL     1     -12.329  -0.164   5.665  0.00  0.00    +0.002 A 
ATOM     13  C   UNL     1     -11.421   0.838   5.932  0.00  0.00    +0.028 A 
ENDROOT
BRANCH   6  14
ATOM     14  C   UNL     1      -7.684   3.558   4.676  0.00  0.00    +0.018 A 
ATOM     15  C   UNL     1      -6.308   3.332   4.604  0.00  0.00    +0.012 A 
ATOM     16  C   UNL     1      -5.428   4.348   4.915  0.00  0.00    +0.004 A 
ATOM     17  C   UNL     1      -5.906   5.585   5.307  0.00  0.00    -0.050 A 
ATOM     18  C   UNL     1      -7.268   5.815   5.385  0.00  0.00    +0.004 A 
ATOM     19  C   UNL     1      -8.159   4.810   5.073  0.00  0.00    +0.012 A 
ATOM     20  C   UNL     1      -4.938   6.689   5.650  0.00  0.00    +0.044 C 
ENDBRANCH   6  14
BRANCH   1  21
ATOM     21  S   UNL     1      -6.352   3.140   1.907  0.00  0.00    -0.076 S 
BRANCH  21  22
ATOM     22  C   UNL     1      -5.748   2.714   0.254  0.00  0.00    +0.173 C 
BRANCH  22  24
ATOM     23  N   UNL     1      -3.960   3.456  -1.285  0.00  0.00    -0.312 N 
ATOM     24  C   UNL     1      -4.576   3.594  -0.094  0.00  0.00    +0.224 C 
ATOM     25  O   UNL     1      -4.187   4.427   0.697  0.00  0.00    -0.275 OA
ATOM     26  H   UNL     1      -4.313   2.701  -2.002  0.00  0.00    +0.149 HD
BRANCH  23  27
ATOM     27  C   UNL     1      -2.820   4.312  -1.624  0.00  0.00    +0.070 C 
ATOM     28  C   UNL     1      -1.538   3.702  -1.055  0.00  0.00    +0.028 C 
BRANCH  27  30
ATOM     29  C   UNL     1      -3.929   5.146  -3.702  0.00  0.00    +0.005 C 
ATOM     30  C   UNL     1      -2.701   4.423  -3.145  0.00  0.00    +0.018 C 
ENDBRANCH  27  30
ENDBRANCH  23  27
ENDBRANCH  22  24
ENDBRANCH  21  22
ENDBRANCH   1  21
TORSDOF 6
