REMARK  Name = ZINC12447246
REMARK  11 active torsions:
REMARK  status: ('A' for Active; 'I' for Inactive)
REMARK    1  A    between atoms: C_1  and  C_2
REMARK    2  A    between atoms: C_5  and  C_27
REMARK    3  A    between atoms: C_6  and  N_8
REMARK    4  A    between atoms: C_9  and  C_11
REMARK    5  A    between atoms: C_11  and  C_12
REMARK    6  A    between atoms: C_12  and  C_13
REMARK    7  A    between atoms: N_15  and  N_16
REMARK    8  A    between atoms: C_17  and  C_18
REMARK    9  A    between atoms: C_17  and  C_19
REMARK   10  A    between atoms: C_22  and  O_26
REMARK   11  A    between atoms: C_24  and  O_25
REMARK                            x       y       z     vdW  Elec       q    Type
REMARK                         _______ _______ _______ _____ _____    ______ ____
ROOT
ATOM      1  C   UNL     1       0.246  -2.686   7.340  0.00  0.00    +0.233 C 
ATOM      2  O   UNL     1       0.258  -3.899   7.327  0.00  0.00    -0.274 OA
ATOM      3  N   UNL     1       0.431  -2.022   8.498  0.00  0.00    -0.207 N 
ATOM      4  H   UNL     1       0.421  -1.052   8.508  0.00  0.00    +0.177 HD
ENDROOT
BRANCH   3   5
ATOM      5  N   UNL     1       0.639  -2.733   9.687  0.00  0.00    -0.184 NA
ATOM      6  C   UNL     1       0.720  -2.098  10.817  0.00  0.00    +0.067 C 
ATOM      7  C   UNL     1       0.833  -2.868  12.107  0.00  0.00    +0.068 C 
BRANCH   6   8
ATOM      8  C   UNL     1       0.700  -0.625  10.837  0.00  0.00    +0.039 A 
ATOM      9  C   UNL     1      -0.447   0.067  10.439  0.00  0.00    +0.017 A 
ATOM     10  C   UNL     1      -0.461   1.444  10.460  0.00  0.00    +0.046 A 
ATOM     11  C   UNL     1       0.662   2.149  10.876  0.00  0.00    +0.120 A 
ATOM     12  C   UNL     1       1.806   1.472  11.273  0.00  0.00    +0.091 A 
ATOM     13  C   UNL     1       1.830   0.088  11.262  0.00  0.00    +0.129 A 
BRANCH  13  14
ATOM     14  O   UNL     1       2.947  -0.577  11.656  0.00  0.00    -0.506 OA
ATOM     15  H   UNL     1       3.606  -0.687  10.957  0.00  0.00    +0.292 HD
ENDBRANCH  13  14
BRANCH  11  16
ATOM     16  O   UNL     1       0.640   3.507  10.894  0.00  0.00    -0.507 OA
ATOM     17  H   UNL     1       0.336   3.885  11.730  0.00  0.00    +0.292 HD
ENDBRANCH  11  16
ENDBRANCH   6   8
ENDBRANCH   3   5
BRANCH   1  18
ATOM     18  C   UNL     1       0.022  -1.921   6.060  0.00  0.00    +0.107 C 
BRANCH  18  19
ATOM     19  C   UNL     1      -0.159  -2.906   4.903  0.00  0.00    +0.105 C 
BRANCH  19  21
ATOM     20  N   UNL     1      -0.568  -2.805   2.466  0.00  0.00    -0.285 N 
ATOM     21  C   UNL     1      -0.383  -2.141   3.624  0.00  0.00    +0.218 C 
ATOM     22  O   UNL     1      -0.395  -0.929   3.636  0.00  0.00    -0.275 OA
ATOM     23  H   UNL     1      -0.637  -3.773   2.467  0.00  0.00    +0.155 HD
BRANCH  20  29
ATOM     24  C   UNL     1       0.443   1.220  -0.170  0.00  0.00    +0.044 C 
ATOM     25  C   UNL     1      -0.182  -0.145  -0.043  0.00  0.00    -0.049 A 
ATOM     26  C   UNL     1      -0.850  -0.701  -1.119  0.00  0.00    +0.004 A 
ATOM     27  C   UNL     1      -1.425  -1.954  -1.008  0.00  0.00    +0.005 A 
ATOM     28  C   UNL     1      -1.333  -2.654   0.180  0.00  0.00    -0.029 A 
ATOM     29  C   UNL     1      -0.663  -2.099   1.262  0.00  0.00    +0.037 A 
ATOM     30  C   UNL     1      -0.082  -0.842   1.145  0.00  0.00    +0.027 A 
ATOM     31  C   UNL     1      -1.960  -4.019   0.301  0.00  0.00    +0.045 C 
ENDBRANCH  20  29
ENDBRANCH  19  21
ENDBRANCH  18  19
ENDBRANCH   1  18
TORSDOF 8
