REMARK  Name = ZINC09962950
REMARK  11 active torsions:
REMARK  status: ('A' for Active; 'I' for Inactive)
REMARK    1  A    between atoms: C_1  and  C_2
REMARK    2  A    between atoms: C_2  and  C_3
REMARK    3  A    between atoms: N_9  and  C_10
REMARK    4  A    between atoms: C_10  and  C_11
REMARK    5  A    between atoms: C_11  and  C_12
REMARK    6  A    between atoms: C_12  and  N_13
REMARK    7  A    between atoms: C_14  and  C_16
REMARK    8  A    between atoms: C_16  and  N_17
REMARK    9  A    between atoms: C_20  and  S_28
REMARK   10  A    between atoms: S_28  and  N_31
REMARK   11  A    between atoms: C_34  and  C_37
REMARK                            x       y       z     vdW  Elec       q    Type
REMARK                         _______ _______ _______ _____ _____    ______ ____
ROOT
ATOM      1  N   UNL     1       6.381   7.351  -0.366  0.00  0.00    -0.256 N 
ATOM      2  C   UNL     1       6.185   7.893  -1.644  0.00  0.00    +0.081 A 
ATOM      3  C   UNL     1       5.706   7.108  -2.680  0.00  0.00    +0.055 A 
ATOM      4  C   UNL     1       5.521   7.662  -3.933  0.00  0.00    +0.107 A 
ATOM      5  C   UNL     1       5.812   8.996  -4.154  0.00  0.00    +0.032 A 
ATOM      6  C   UNL     1       6.290   9.785  -3.124  0.00  0.00    +0.049 A 
ATOM      7  C   UNL     1       6.478   9.238  -1.866  0.00  0.00    +0.143 A 
ATOM      8  O   UNL     1       6.944   9.999  -0.841  0.00  0.00    -0.481 OA
ATOM      9  C   UNL     1       6.466   9.678   0.468  0.00  0.00    +0.325 C 
ATOM     10  C   UNL     1       6.535   8.188   0.684  0.00  0.00    +0.258 C 
ATOM     11  O   UNL     1       6.732   7.742   1.794  0.00  0.00    -0.271 OA
ENDROOT
BRANCH   4  12
ATOM     12  S   UNL     1       4.912   6.666  -5.252  0.00  0.00    +0.061 S 
ATOM     13  O   UNL     1       5.343   7.282  -6.458  0.00  0.00    -0.153 OA
ATOM     14  O   UNL     1       5.233   5.321  -4.927  0.00  0.00    -0.153 OA
BRANCH  12  15
ATOM     15  N   UNL     1       3.260   6.778  -5.228  0.00  0.00    -0.177 NA
ATOM     16  C   UNL     1       2.457   5.837  -4.435  0.00  0.00    +0.110 C 
ATOM     17  C   UNL     1       1.406   5.195  -5.346  0.00  0.00    +0.020 C 
ATOM     18  C   UNL     1       0.591   6.294  -6.030  0.00  0.00    -0.012 C 
ATOM     19  C   UNL     1       1.516   7.156  -6.892  0.00  0.00    +0.020 C 
ATOM     20  C   UNL     1       2.569   7.824  -5.995  0.00  0.00    +0.110 C 
ATOM     21  C   UNL     1      -0.483   5.657  -6.914  0.00  0.00    +0.007 C 
ENDBRANCH  12  15
ENDBRANCH   4  12
BRANCH   1  22
ATOM     22  C   UNL     1       6.413   5.899  -0.170  0.00  0.00    +0.209 C 
BRANCH  22  24
ATOM     23  N   UNL     1       4.803   4.086   0.318  0.00  0.00    -0.314 N 
ATOM     24  C   UNL     1       5.018   5.399   0.105  0.00  0.00    +0.231 C 
ATOM     25  O   UNL     1       4.089   6.179   0.135  0.00  0.00    -0.274 OA
ATOM     26  H   UNL     1       5.546   3.463   0.294  0.00  0.00    +0.149 HD
BRANCH  23  27
ATOM     27  C   UNL     1       3.447   3.600   0.585  0.00  0.00    +0.102 C 
BRANCH  27  28
ATOM     28  C   UNL     1       3.480   2.084   0.789  0.00  0.00    +0.000 C 
BRANCH  28  29
ATOM     29  C   UNL     1       2.064   1.576   1.068  0.00  0.00    -0.077 C 
BRANCH  29  35
ATOM     30  C   UNL     1       0.724  -0.382   1.409  0.00  0.00    -0.069 C 
ATOM     31  C   UNL     1       0.747  -1.907   1.532  0.00  0.00    -0.015 C 
ATOM     32  C   UNL     1       1.569  -2.303   2.761  0.00  0.00    -0.003 C 
ATOM     33  C   UNL     1       2.975  -1.710   2.635  0.00  0.00    -0.019 C 
ATOM     34  C   UNL     1       2.870  -0.192   2.471  0.00  0.00    -0.078 C 
ATOM     35  N   UNL     1       2.095   0.120   1.264  0.00  0.00    +0.382 N 
ATOM     36  H   UNL     1       2.530  -0.315   0.464  0.00  0.00    -0.081 HD
BRANCH  30  38
ATOM     37  C   UNL     1      -1.541  -0.456   0.358  0.00  0.00    +0.002 C 
ATOM     38  C   UNL     1      -0.097   0.018   0.181  0.00  0.00    -0.019 C 
ENDBRANCH  30  38
ENDBRANCH  29  35
ENDBRANCH  28  29
ENDBRANCH  27  28
ENDBRANCH  23  27
ENDBRANCH  22  24
ENDBRANCH   1  22
TORSDOF 9
