REMARK  Name = ZINC26895232
REMARK  3 active torsions:
REMARK  status: ('A' for Active; 'I' for Inactive)
REMARK    1  A    between atoms: C_10  and  C_11
REMARK    2  A    between atoms: N_15  and  C_19
REMARK    3  A    between atoms: C_23  and  O_25
REMARK                            x       y       z     vdW  Elec       q    Type
REMARK                         _______ _______ _______ _____ _____    ______ ____
ROOT
ATOM      1  C   UNL     1      -0.193  -3.328   1.134  0.00  0.00    +0.029 C 
ATOM      2  C   UNL     1       0.011  -4.497   0.472  0.00  0.00    +0.080 C 
ATOM      3  C   UNL     1       1.191  -5.385   0.472  0.00  0.00    +0.265 C 
ATOM      4  O   UNL     1       2.185  -5.128   1.126  0.00  0.00    -0.269 OA
ATOM      5  N   UNL     1       1.114  -6.473  -0.276  0.00  0.00    -0.196 N 
ATOM      6  C   UNL     1       0.011  -6.754  -0.999  0.00  0.00    +0.290 C 
ATOM      7  O   UNL     1      -0.195  -7.710  -1.722  0.00  0.00    -0.262 OA
ATOM      8  S   UNL     1      -1.078  -5.387  -0.632  0.00  0.00    -0.025 S 
ENDROOT
BRANCH   1  18
ATOM      9  C   UNL     1       0.265  -0.811   5.610  0.00  0.00    +0.001 A 
ATOM     10  C   UNL     1      -0.805  -1.390   4.932  0.00  0.00    +0.001 A 
ATOM     11  C   UNL     1      -0.621  -2.005   3.729  0.00  0.00    +0.009 A 
ATOM     12  C   UNL     1       0.660  -2.057   3.167  0.00  0.00    -0.011 A 
ATOM     13  C   UNL     1       1.750  -1.469   3.854  0.00  0.00    -0.017 A 
ATOM     14  C   UNL     1       1.524  -0.843   5.092  0.00  0.00    +0.008 A 
ATOM     15  C   UNL     1       3.034  -1.524   3.288  0.00  0.00    +0.008 A 
ATOM     16  C   UNL     1       3.240  -2.134   2.087  0.00  0.00    +0.001 A 
ATOM     17  C   UNL     1       2.204  -2.723   1.378  0.00  0.00    +0.008 A 
ATOM     18  C   UNL     1       0.904  -2.707   1.879  0.00  0.00    -0.016 A 
ENDBRANCH   1  18
BRANCH   5  19
ATOM     19  C   UNL     1       2.203  -7.354  -0.317  0.00  0.00    +0.048 A 
ATOM     20  C   UNL     1       2.280  -8.406   0.587  0.00  0.00    +0.024 A 
ATOM     21  C   UNL     1       3.354  -9.275   0.547  0.00  0.00    +0.005 A 
ATOM     22  C   UNL     1       4.352  -9.100  -0.392  0.00  0.00    +0.045 A 
ATOM     23  C   UNL     1       4.280  -8.051  -1.298  0.00  0.00    +0.119 A 
ATOM     24  C   UNL     1       3.202  -7.181  -1.264  0.00  0.00    +0.069 A 
BRANCH  23  25
ATOM     25  O   UNL     1       5.263  -7.881  -2.221  0.00  0.00    -0.507 OA
ATOM     26  H   UNL     1       5.205  -7.049  -2.938  0.00  0.00    +0.292 HD
ENDBRANCH  23  25
ENDBRANCH   5  19
TORSDOF 3
