REMARK  Name = ZINC38750538
REMARK  4 active torsions:
REMARK  status: ('A' for Active; 'I' for Inactive)
REMARK    1  A    between atoms: C_8  and  C_10
REMARK    2  A    between atoms: C_12  and  C_15
REMARK    3  A    between atoms: C_15  and  N_16
REMARK    4  A    between atoms: C_17  and  C_19
REMARK                            x       y       z     vdW  Elec       q    Type
REMARK                         _______ _______ _______ _____ _____    ______ ____
ROOT
ATOM      1  C   UNL     1       3.796  -3.326  -0.051  0.00  0.00    +0.202 A 
ATOM      2  C   UNL     1       5.159  -3.371  -0.059  0.00  0.00    +0.081 A 
ATOM      3  C   UNL     1       5.547  -4.717  -0.071  0.00  0.00    +0.101 A 
ATOM      4  N   UNL     1       4.471  -5.454  -0.070  0.00  0.00    -0.081 NA
ATOM      5  O   UNL     1       3.345  -4.596  -0.053  0.00  0.00    -0.351 OA
ENDROOT
BRANCH   1  13
ATOM      6  C   UNL     1      -0.017   1.363   0.009  0.00  0.00    +0.001 A 
ATOM      7  C   UNL     1       1.171   2.082   0.002  0.00  0.00    +0.004 A 
ATOM      8  C   UNL     1       2.387   1.433  -0.013  0.00  0.00    +0.047 A 
ATOM      9  C   UNL     1       2.430   0.044  -0.021  0.00  0.00    +0.136 A 
ATOM     10  C   UNL     1       1.224  -0.679  -0.013  0.00  0.00    +0.021 A 
ATOM     11  C   UNL     1       0.002  -0.004   0.002  0.00  0.00    +0.011 A 
ATOM     12  C   UNL     1       1.609  -2.091  -0.025  0.00  0.00    +0.061 A 
ATOM     13  C   UNL     1       2.967  -2.111  -0.038  0.00  0.00    +0.174 A 
ATOM     14  O   UNL     1       3.441  -0.848  -0.035  0.00  0.00    -0.452 OA
ENDBRANCH   1  13
BRANCH   3  15
ATOM     15  C   UNL     1       6.966  -5.226  -0.082  0.00  0.00    +0.163 C 
BRANCH  15  16
ATOM     16  N   UNL     1       7.393  -5.514   1.289  0.00  0.00    -0.306 N 
ATOM     17  C   UNL     1       8.634  -5.983   1.524  0.00  0.00    +0.244 C 
ATOM     18  O   UNL     1       9.399  -6.168   0.598  0.00  0.00    -0.270 OA
ATOM     19  H   UNL     1       6.782  -5.366   2.028  0.00  0.00    +0.149 HD
BRANCH  17  20
ATOM     20  C   UNL     1       9.064  -6.273   2.907  0.00  0.00    +0.037 A 
ATOM     21  C   UNL     1       8.185  -6.067   3.973  0.00  0.00    +0.016 A 
ATOM     22  C   UNL     1       8.592  -6.340   5.261  0.00  0.00    +0.039 A 
ATOM     23  C   UNL     1       9.872  -6.817   5.500  0.00  0.00    +0.123 A 
ATOM     24  C   UNL     1      10.749  -7.023   4.446  0.00  0.00    +0.039 A 
ATOM     25  C   UNL     1      10.350  -6.760   3.153  0.00  0.00    +0.016 A 
ATOM     26  F   UNL     1      10.266  -7.081   6.765  0.00  0.00    -0.205 F 
ENDBRANCH  17  20
ENDBRANCH  15  16
ENDBRANCH   3  15
TORSDOF 4
