REMARK  Name = ZINC03231972
REMARK  6 active torsions:
REMARK  status: ('A' for Active; 'I' for Inactive)
REMARK    1  A    between atoms: C_3  and  N_17
REMARK    2  A    between atoms: C_6  and  C_7
REMARK    3  A    between atoms: N_9  and  N_10
REMARK    4  A    between atoms: N_10  and  C_11
REMARK    5  A    between atoms: N_17  and  N_18
REMARK    6  A    between atoms: N_18  and  C_19
REMARK                            x       y       z     vdW  Elec       q    Type
REMARK                         _______ _______ _______ _____ _____    ______ ____
ROOT
ATOM      1  C   UNL     1       2.455  -4.122  -0.479  0.00  0.00    +0.015 A 
ATOM      2  C   UNL     1       2.441  -2.750  -0.374  0.00  0.00    +0.025 A 
ATOM      3  C   UNL     1       1.231  -2.072  -0.259  0.00  0.00    +0.044 A 
ATOM      4  C   UNL     1       0.032  -2.779  -0.244  0.00  0.00    +0.025 A 
ATOM      5  C   UNL     1       0.039  -4.150  -0.354  0.00  0.00    +0.015 A 
ATOM      6  C   UNL     1       1.252  -4.835  -0.470  0.00  0.00    +0.038 A 
ENDROOT
BRANCH   6   7
ATOM      7  C   UNL     1       1.264  -6.306  -0.584  0.00  0.00    +0.260 C 
ATOM      8  O   UNL     1       2.320  -6.899  -0.685  0.00  0.00    -0.269 OA
ATOM      9  N   UNL     1       0.103  -6.991  -0.575  0.00  0.00    -0.233 N 
ATOM     10  H   UNL     1      -0.739  -6.517  -0.494  0.00  0.00    +0.173 HD
BRANCH   9  11
ATOM     11  N   UNL     1       0.114  -8.388  -0.682  0.00  0.00    -0.269 N 
ATOM     12  H   UNL     1       0.957  -8.867  -0.689  0.00  0.00    +0.170 HD
BRANCH  11  13
ATOM     13  C   UNL     1      -1.083  -9.086  -0.779  0.00  0.00    +0.018 C 
ATOM     14  C   UNL     1      -2.196  -8.415  -0.660  0.00  0.00    -0.007 C 
ATOM     15  C   UNL     1      -3.560  -9.036  -0.733  0.00  0.00    +0.029 C 
ATOM     16  C   UNL     1      -3.474 -10.423  -1.373  0.00  0.00    +0.004 C 
ATOM     17  C   UNL     1      -2.362 -11.214  -0.672  0.00  0.00    +0.006 C 
ATOM     18  C   UNL     1      -1.018 -10.566  -1.020  0.00  0.00    +0.052 C 
ENDBRANCH  11  13
ENDBRANCH   9  11
ENDBRANCH   6   7
BRANCH   3  19
ATOM     19  N   UNL     1       1.220  -0.685  -0.154  0.00  0.00    -0.267 N 
ATOM     20  H   UNL     1       2.056  -0.192  -0.160  0.00  0.00    +0.170 HD
BRANCH  19  21
ATOM     21  N   UNL     1       0.004  -0.001  -0.038  0.00  0.00    -0.271 N 
ATOM     22  H   UNL     1      -0.826  -0.497   0.043  0.00  0.00    +0.170 HD
BRANCH  21  23
ATOM     23  C   UNL     1      -0.015   1.388  -0.040  0.00  0.00    +0.018 C 
ATOM     24  C   UNL     1       1.128   2.017  -0.044  0.00  0.00    -0.007 C 
ATOM     25  C   UNL     1       1.262   3.512  -0.037  0.00  0.00    +0.029 C 
ATOM     26  C   UNL     1      -0.060   4.161  -0.447  0.00  0.00    +0.004 C 
ATOM     27  C   UNL     1      -1.187   3.538   0.386  0.00  0.00    +0.006 C 
ATOM     28  C   UNL     1      -1.349   2.076  -0.042  0.00  0.00    +0.052 C 
ENDBRANCH  21  23
ENDBRANCH  19  21
ENDBRANCH   3  19
TORSDOF 6
