REMARK  Name = ZINC15958690
REMARK  4 active torsions:
REMARK  status: ('A' for Active; 'I' for Inactive)
REMARK    1  A    between atoms: C_12  and  C_15
REMARK    2  A    between atoms: C_15  and  C_16
REMARK    3  A    between atoms: C_19  and  O_22
REMARK    4  A    between atoms: N_25  and  C_28
REMARK                            x       y       z     vdW  Elec       q    Type
REMARK                         _______ _______ _______ _____ _____    ______ ____
ROOT
ATOM      1  C   UNL     1      -0.017   1.379   0.010  0.00  0.00    +0.000 A 
ATOM      2  C   UNL     1       1.173   2.084   0.002  0.00  0.00    +0.002 A 
ATOM      3  C   UNL     1       2.379   1.414  -0.013  0.00  0.00    +0.023 A 
ATOM      4  C   UNL     1       2.407   0.021  -0.020  0.00  0.00    +0.039 A 
ATOM      5  C   UNL     1       1.203  -0.677  -0.012  0.00  0.00    +0.003 A 
ATOM      6  C   UNL     1       0.002  -0.004   0.002  0.00  0.00    +0.008 A 
ATOM      7  C   UNL     1       1.574  -2.133  -0.023  0.00  0.00    +0.136 C 
ATOM      8  C   UNL     1       0.996  -2.853  -1.248  0.00  0.00    +0.122 C 
ATOM      9  C   UNL     1      -0.289  -3.551  -0.721  0.00  0.00    +0.107 C 
ATOM     10  C   UNL     1      -0.374  -3.154   0.768  0.00  0.00    +0.072 C 
ATOM     11  N   UNL     1       1.034  -2.838   1.154  0.00  0.00    -0.295 NA
ATOM     12  C   UNL     1       0.038  -5.022  -0.843  0.00  0.00    +0.227 C 
ATOM     13  O   UNL     1      -0.698  -5.931  -0.527  0.00  0.00    -0.275 OA
ATOM     14  N   UNL     1       1.266  -5.163  -1.355  0.00  0.00    -0.238 N 
ATOM     15  C   UNL     1       1.901  -4.002  -1.633  0.00  0.00    +0.228 C 
ATOM     16  O   UNL     1       3.010  -3.890  -2.110  0.00  0.00    -0.275 OA
ATOM     17  C   UNL     1       3.078  -2.154  -0.034  0.00  0.00    +0.243 C 
ATOM     18  O   UNL     1       3.788  -3.137  -0.042  0.00  0.00    -0.273 OA
ATOM     19  N   UNL     1       3.482  -0.869  -0.033  0.00  0.00    -0.283 N 
ATOM     20  H   UNL     1       1.562  -3.676   1.347  0.00  0.00    +0.124 HD
ATOM     21  H   UNL     1       4.413  -0.595  -0.041  0.00  0.00    +0.155 HD
ENDROOT
BRANCH  14  22
ATOM     22  C   UNL     1       1.875  -6.473  -1.601  0.00  0.00    +0.084 C 
ATOM     23  C   UNL     1       0.979  -7.304  -2.542  0.00  0.00    +0.023 C 
ATOM     24  C   UNL     1       1.104  -8.752  -2.005  0.00  0.00    +0.002 C 
ATOM     25  C   UNL     1       1.145  -8.544  -0.470  0.00  0.00    +0.002 C 
ATOM     26  C   UNL     1       1.981  -7.261  -0.284  0.00  0.00    +0.023 C 
ENDBRANCH  14  22
BRANCH  10  27
ATOM     27  C   UNL     1      -0.891  -4.327   1.603  0.00  0.00    +0.054 C 
BRANCH  27  28
ATOM     28  C   UNL     1      -1.083  -3.882   3.030  0.00  0.00    -0.046 A 
ATOM     29  C   UNL     1      -0.041  -3.991   3.933  0.00  0.00    +0.007 A 
ATOM     30  C   UNL     1      -0.215  -3.585   5.242  0.00  0.00    +0.045 A 
ATOM     31  C   UNL     1      -1.435  -3.066   5.649  0.00  0.00    +0.117 A 
ATOM     32  C   UNL     1      -2.478  -2.957   4.741  0.00  0.00    +0.045 A 
ATOM     33  C   UNL     1      -2.298  -3.361   3.433  0.00  0.00    +0.007 A 
BRANCH  31  34
ATOM     34  O   UNL     1      -1.609  -2.666   6.936  0.00  0.00    -0.507 OA
ATOM     35  H   UNL     1      -1.386  -1.738   7.093  0.00  0.00    +0.292 HD
ENDBRANCH  31  34
ENDBRANCH  27  28
ENDBRANCH  10  27
TORSDOF 4
