REMARK  Name = ZINC67429734
REMARK  4 active torsions:
REMARK  status: ('A' for Active; 'I' for Inactive)
REMARK    1  A    between atoms: C_3  and  C_6
REMARK    2  A    between atoms: C_9  and  C_11
REMARK    3  A    between atoms: C_11  and  O_12
REMARK    4  A    between atoms: O_12  and  C_13
REMARK                            x       y       z     vdW  Elec       q    Type
REMARK                         _______ _______ _______ _____ _____    ______ ____
ROOT
ATOM      1  O   UNL     1       6.588   4.770  -1.377  0.00  0.00    -0.483 OA
ENDROOT
BRANCH   1   2
ATOM      2  C   UNL     1       7.354   5.876  -1.553  0.00  0.00    +0.122 A 
ATOM      3  C   UNL     1       7.853   6.555  -0.447  0.00  0.00    +0.046 A 
ATOM      4  C   UNL     1       8.623   7.670  -0.619  0.00  0.00    +0.015 A 
ATOM      5  C   UNL     1       8.910   8.129  -1.910  0.00  0.00    +0.021 A 
ATOM      6  C   UNL     1       8.415   7.448  -3.026  0.00  0.00    -0.033 A 
ATOM      7  C   UNL     1       7.640   6.321  -2.838  0.00  0.00    +0.050 A 
ATOM      8  C   UNL     1       8.714   7.906  -4.426  0.00  0.00    +0.036 C 
ATOM      9  C   UNL     1       9.084   9.386  -4.457  0.00  0.00    +0.012 C 
ATOM     10  C   UNL     1      10.241   9.643  -3.483  0.00  0.00    +0.080 C 
ATOM     11  C   UNL     1       9.736   9.336  -2.088  0.00  0.00    +0.163 C 
ATOM     12  O   UNL     1      10.001  10.059  -1.151  0.00  0.00    -0.292 OA
ENDBRANCH   1   2
BRANCH   1  13
ATOM     13  C   UNL     1       6.332   4.366  -0.031  0.00  0.00    +0.324 C 
BRANCH  13  17
ATOM     14  C   UNL     1       3.735   1.821  -0.024  0.00  0.00    +0.162 A 
ATOM     15  C   UNL     1       4.865   1.063  -0.045  0.00  0.00    +0.161 A 
ATOM     16  N   UNL     1       5.912   1.901  -0.049  0.00  0.00    -0.218 NA
ATOM     17  C   UNL     1       5.472   3.128  -0.033  0.00  0.00    +0.234 A 
ATOM     18  O   UNL     1       4.131   3.113  -0.022  0.00  0.00    -0.436 OA
BRANCH  14  21
ATOM     19  C   UNL     1      -0.016   1.353   0.009  0.00  0.00    +0.008 A 
ATOM     20  C   UNL     1       1.177   2.042   0.002  0.00  0.00    +0.019 A 
ATOM     21  C   UNL     1       2.348   1.327  -0.013  0.00  0.00    +0.056 A 
ATOM     22  S   UNL     1       1.752  -0.355  -0.017  0.00  0.00    -0.094 S 
ATOM     23  C   UNL     1       0.002  -0.004   0.002  0.00  0.00    +0.046 A 
ENDBRANCH  14  21
ENDBRANCH  13  17
ENDBRANCH   1  13
TORSDOF 4
