REMARK  Name = ZINC35059858
REMARK  14 active torsions:
REMARK  status: ('A' for Active; 'I' for Inactive)
REMARK    1  A    between atoms: C_1  and  C_2
REMARK    2  A    between atoms: C_2  and  C_3
REMARK    3  A    between atoms: C_3  and  C_5
REMARK    4  A    between atoms: C_3  and  N_23
REMARK    5  A    between atoms: N_15  and  C_16
REMARK    6  A    between atoms: C_19  and  C_22
REMARK    7  A    between atoms: N_23  and  C_24
REMARK    8  A    between atoms: C_24  and  C_25
REMARK    9  A    between atoms: C_25  and  C_26
REMARK   10  A    between atoms: C_25  and  C_27
REMARK   11  A    between atoms: N_30  and  C_31
REMARK   12  A    between atoms: C_31  and  C_32
REMARK   13  A    between atoms: C_31  and  C_33
REMARK   14  A    between atoms: C_31  and  C_34
REMARK                            x       y       z     vdW  Elec       q    Type
REMARK                         _______ _______ _______ _____ _____    ______ ____
ROOT
ATOM      1  C   UNL     1      -1.829  -2.136  -0.041  0.00  0.00    +0.138 A 
ATOM      2  N   UNL     1      -1.214  -2.909   0.802  0.00  0.00    -0.231 NA
ATOM      3  C   UNL     1      -0.780  -4.144   0.448  0.00  0.00    +0.078 A 
ATOM      4  C   UNL     1      -0.120  -4.976   1.355  0.00  0.00    +0.028 A 
ATOM      5  C   UNL     1       0.303  -6.223   0.953  0.00  0.00    +0.002 A 
ATOM      6  C   UNL     1       0.081  -6.666  -0.344  0.00  0.00    +0.001 A 
ATOM      7  C   UNL     1      -0.568  -5.864  -1.257  0.00  0.00    +0.015 A 
ATOM      8  C   UNL     1      -1.005  -4.598  -0.871  0.00  0.00    +0.065 A 
ATOM      9  C   UNL     1      -1.704  -3.700  -1.801  0.00  0.00    +0.266 A 
ATOM     10  O   UNL     1      -1.928  -4.030  -2.951  0.00  0.00    -0.267 OA
ATOM     11  N   UNL     1      -2.092  -2.493  -1.328  0.00  0.00    -0.263 N 
ENDROOT
BRANCH  11  12
ATOM     12  C   UNL     1      -2.766  -1.601  -2.171  0.00  0.00    +0.051 A 
ATOM     13  C   UNL     1      -2.052  -0.663  -2.906  0.00  0.00    +0.026 A 
ATOM     14  C   UNL     1      -2.720   0.215  -3.737  0.00  0.00    +0.005 A 
ATOM     15  C   UNL     1      -4.098   0.161  -3.838  0.00  0.00    -0.050 A 
ATOM     16  C   UNL     1      -4.812  -0.771  -3.108  0.00  0.00    +0.005 A 
ATOM     17  C   UNL     1      -4.149  -1.655  -2.279  0.00  0.00    +0.026 A 
ATOM     18  C   UNL     1      -4.823   1.121  -4.746  0.00  0.00    +0.044 C 
ENDBRANCH  11  12
BRANCH   1  19
ATOM     19  C   UNL     1      -2.279  -0.777   0.431  0.00  0.00    +0.144 C 
BRANCH  19  20
ATOM     20  N   UNL     1      -3.305  -0.934   1.464  0.00  0.00    -0.275 N 
ATOM     21  C   UNL     1      -4.535  -0.417   1.276  0.00  0.00    +0.303 C 
ATOM     22  O   UNL     1      -4.793   0.180   0.249  0.00  0.00    -0.253 OA
ATOM     23  N   UNL     1      -5.479  -0.562   2.227  0.00  0.00    -0.294 N 
ATOM     24  H   UNL     1      -5.273  -1.038   3.047  0.00  0.00    +0.151 HD
BRANCH  23  25
ATOM     25  C   UNL     1      -6.816   0.001   2.023  0.00  0.00    +0.028 C 
ATOM     26  C   UNL     1      -7.448  -0.624   0.778  0.00  0.00    +0.031 C 
ATOM     27  C   UNL     1      -7.689  -0.302   3.243  0.00  0.00    +0.031 C 
ATOM     28  C   UNL     1      -6.710   1.515   1.836  0.00  0.00    +0.031 C 
ENDBRANCH  23  25
BRANCH  20  29
ATOM     29  C   UNL     1      -2.994  -1.654   2.702  0.00  0.00    +0.113 C 
BRANCH  29  30
ATOM     30  C   UNL     1      -2.459  -0.669   3.744  0.00  0.00    +0.000 C 
ATOM     31  C   UNL     1      -3.561   0.324   4.119  0.00  0.00    +0.009 C 
ATOM     32  C   UNL     1      -2.018  -1.436   4.992  0.00  0.00    +0.009 C 
ENDBRANCH  29  30
ENDBRANCH  20  29
ENDBRANCH  19  20
BRANCH  19  34
ATOM     33  C   UNL     1      -1.506   1.413   1.352  0.00  0.00    +0.006 C 
ATOM     34  C   UNL     1      -1.084  -0.017   1.010  0.00  0.00    +0.027 C 
ENDBRANCH  19  34
ENDBRANCH   1  19
TORSDOF 7
