REMARK  Name = ZINC41992365
REMARK  8 active torsions:
REMARK  status: ('A' for Active; 'I' for Inactive)
REMARK    1  A    between atoms: C_1  and  C_2
REMARK    2  A    between atoms: C_2  and  C_3
REMARK    3  A    between atoms: C_3  and  C_4
REMARK    4  A    between atoms: C_3  and  C_12
REMARK    5  A    between atoms: C_3  and  S_15
REMARK    6  A    between atoms: C_7  and  O_10
REMARK    7  A    between atoms: O_10  and  C_11
REMARK    8  A    between atoms: S_15  and  C_16
REMARK                            x       y       z     vdW  Elec       q    Type
REMARK                         _______ _______ _______ _____ _____    ______ ____
ROOT
ATOM      1  C   UNL     1       0.848  -0.509   1.173  0.00  0.00    +0.149 C 
ENDROOT
BRANCH   1   2
ATOM      2  C   UNL     1       2.176   0.203   1.177  0.00  0.00    -0.020 A 
ATOM      3  C   UNL     1       2.598   0.869   2.312  0.00  0.00    +0.009 A 
ATOM      4  C   UNL     1       3.815   1.523   2.319  0.00  0.00    +0.046 A 
ATOM      5  C   UNL     1       4.614   1.509   1.185  0.00  0.00    +0.120 A 
ATOM      6  C   UNL     1       4.188   0.840   0.047  0.00  0.00    +0.046 A 
ATOM      7  C   UNL     1       2.973   0.183   0.047  0.00  0.00    +0.009 A 
BRANCH   5   8
ATOM      8  O   UNL     1       5.812   2.152   1.188  0.00  0.00    -0.495 OA
ATOM      9  C   UNL     1       6.581   2.096  -0.015  0.00  0.00    +0.277 C 
ENDBRANCH   5   8
ENDBRANCH   1   2
BRANCH   1  10
ATOM     10  C   UNL     1       1.058  -1.967   1.490  0.00  0.00    +0.376 C 
ATOM     11  O   UNL     1       1.762  -2.653   0.767  0.00  0.00    -0.244 OA
ATOM     12  O   UNL     1       0.524  -2.462   2.468  0.00  0.00    -0.244 OA
ENDBRANCH   1  10
BRANCH   1  14
ATOM     13  C   UNL     1       0.070   1.106  -0.567  0.00  0.00    +0.006 C 
ATOM     14  C   UNL     1       0.202  -0.375  -0.207  0.00  0.00    +0.031 C 
ENDBRANCH   1  14
BRANCH   1  15
ATOM     15  S   UNL     1      -0.239   0.231   2.423  0.00  0.00    -0.061 S 
BRANCH  15  16
ATOM     16  C   UNL     1      -1.730  -0.698   2.296  0.00  0.00    +0.211 A 
ATOM     17  N   UNL     1      -2.833  -0.504   3.029  0.00  0.00    -0.188 NA
ATOM     18  C   UNL     1      -3.757  -1.371   2.675  0.00  0.00    +0.209 A 
ATOM     19  N   UNL     1      -3.250  -2.145   1.694  0.00  0.00    -0.246 N 
ATOM     20  H   UNL     1      -3.701  -2.872   1.235  0.00  0.00    +0.192 HD
ATOM     21  N   UNL     1      -1.942  -1.689   1.462  0.00  0.00    -0.144 NA
ATOM     22  N   UNL     1      -5.027  -1.472   3.216  0.00  0.00    -0.328 N 
ATOM     23  H   UNL     1      -5.302  -0.867   3.922  0.00  0.00    +0.145 HD
ATOM     24  H   UNL     1      -5.641  -2.147   2.888  0.00  0.00    +0.145 HD
ENDBRANCH  15  16
ENDBRANCH   1  15
TORSDOF 6
