REMARK  Name = CHEMBL550939
REMARK  7 active torsions:
REMARK  status: ('A' for Active; 'I' for Inactive)
REMARK    1  A    between atoms: C_1  and  O_2
REMARK    2  A    between atoms: O_2  and  C_3
REMARK    3  A    between atoms: C_5  and  C_11
REMARK    4  A    between atoms: C_7  and  O_9
REMARK    5  A    between atoms: O_9  and  C_10
REMARK    6  A    between atoms: C_11  and  N_12
REMARK    7  A    between atoms: N_20  and  O_21
REMARK                            x       y       z     vdW  Elec       q    Type
REMARK                         _______ _______ _______ _____ _____    ______ ____
ROOT
ATOM      1  N   UNL     1      -2.542  -4.665   1.395  0.00  0.00    -0.261 N 
ATOM      2  C   UNL     1      -1.395  -4.965   2.128  0.00  0.00    +0.047 A 
ATOM      3  C   UNL     1      -0.047  -4.895   1.797  0.00  0.00    +0.027 A 
ATOM      4  C   UNL     1       0.914  -5.257   2.720  0.00  0.00    +0.040 A 
ATOM      5  C   UNL     1       0.549  -5.694   3.983  0.00  0.00    +0.124 A 
ATOM      6  C   UNL     1      -0.788  -5.769   4.330  0.00  0.00    +0.050 A 
ATOM      7  C   UNL     1      -1.760  -5.406   3.405  0.00  0.00    +0.033 A 
ATOM      8  C   UNL     1      -3.242  -5.372   3.454  0.00  0.00    +0.173 C 
ATOM      9  N   UNL     1      -4.011  -5.699   4.452  0.00  0.00    -0.082 NA
ATOM     10  C   UNL     1      -3.656  -4.876   2.116  0.00  0.00    +0.273 C 
ATOM     11  O   UNL     1      -4.798  -4.696   1.740  0.00  0.00    -0.268 OA
ATOM     12  F   UNL     1       1.499  -6.046   4.877  0.00  0.00    -0.205 F 
ENDROOT
BRANCH   9  13
ATOM     13  O   UNL     1      -5.418  -5.604   4.323  0.00  0.00    -0.409 OA
ATOM     14  H   UNL     1      -5.905  -5.869   5.115  0.00  0.00    +0.328 HD
ENDBRANCH   9  13
BRANCH   1  15
ATOM     15  C   UNL     1      -2.533  -4.175   0.015  0.00  0.00    +0.149 C 
BRANCH  15  18
ATOM     16  C   UNL     1      -1.200  -0.637   0.010  0.00  0.00    +0.124 A 
ATOM     17  C   UNL     1      -1.255  -2.024   0.009  0.00  0.00    +0.051 A 
ATOM     18  C   UNL     1      -2.477  -2.669   0.017  0.00  0.00    -0.023 A 
ATOM     19  C   UNL     1      -3.647  -1.935   0.025  0.00  0.00    +0.051 A 
ATOM     20  C   UNL     1      -3.598  -0.548   0.027  0.00  0.00    +0.124 A 
ATOM     21  C   UNL     1      -2.373   0.101   0.025  0.00  0.00    +0.091 A 
BRANCH  16  23
ATOM     22  C   UNL     1      -0.017   1.425   0.010  0.00  0.00    +0.277 C 
ATOM     23  O   UNL     1       0.002  -0.004   0.002  0.00  0.00    -0.495 OA
ENDBRANCH  16  23
BRANCH  20  24
ATOM     24  O   UNL     1      -4.750   0.173   0.036  0.00  0.00    -0.495 OA
ATOM     25  C   UNL     1      -4.624   1.597   0.037  0.00  0.00    +0.277 C 
ENDBRANCH  20  24
ENDBRANCH  15  18
ENDBRANCH   1  15
TORSDOF 5
