REMARK  Name = CHEMBL571434
REMARK  6 active torsions:
REMARK  status: ('A' for Active; 'I' for Inactive)
REMARK    1  A    between atoms: C_1  and  N_2
REMARK    2  A    between atoms: C_4  and  C_7
REMARK    3  A    between atoms: C_10  and  N_13
REMARK    4  A    between atoms: C_18  and  C_20
REMARK    5  A    between atoms: C_22  and  C_32
REMARK    6  A    between atoms: C_24  and  N_26
REMARK                            x       y       z     vdW  Elec       q    Type
REMARK                         _______ _______ _______ _____ _____    ______ ____
ROOT
ATOM      1  N   UNL     1       0.058  -6.570  -3.995  0.00  0.00    -0.284 N 
ATOM      2  C   UNL     1       0.180  -7.832  -3.438  0.00  0.00    +0.220 A 
ATOM      3  N   UNL     1       0.176  -7.959  -2.118  0.00  0.00    -0.223 NA
ATOM      4  C   UNL     1       0.290  -9.148  -1.548  0.00  0.00    +0.116 A 
ATOM      5  C   UNL     1       0.414 -10.272  -2.345  0.00  0.00    +0.048 A 
ATOM      6  C   UNL     1       0.414 -10.107  -3.732  0.00  0.00    +0.076 A 
ATOM      7  N   UNL     1       0.291  -8.882  -4.237  0.00  0.00    -0.214 NA
ATOM      8  H   UNL     1       0.136  -6.454  -4.955  0.00  0.00    +0.155 HD
ENDROOT
BRANCH   1  12
ATOM      9  C   UNL     1      -0.644  -3.270  -1.547  0.00  0.00    +0.023 A 
ATOM     10  C   UNL     1       0.213  -3.158  -2.641  0.00  0.00    +0.013 A 
ATOM     11  C   UNL     1       0.444  -4.251  -3.449  0.00  0.00    +0.024 A 
ATOM     12  C   UNL     1      -0.177  -5.464  -3.174  0.00  0.00    +0.034 A 
ATOM     13  C   UNL     1      -1.032  -5.577  -2.084  0.00  0.00    +0.024 A 
ATOM     14  C   UNL     1      -1.262  -4.489  -1.270  0.00  0.00    +0.013 A 
BRANCH   9  18
ATOM     15  C   UNL     1      -0.522   1.262   0.347  0.00  0.00    +0.199 C 
ATOM     16  N   UNL     1      -0.844  -0.152   0.137  0.00  0.00    -0.166 N 
ATOM     17  N   UNL     1      -0.384  -0.888  -0.816  0.00  0.00    -0.131 NA
ATOM     18  C   UNL     1      -0.895  -2.095  -0.676  0.00  0.00    +0.205 A 
ATOM     19  N   UNL     1      -1.685  -2.054   0.406  0.00  0.00    -0.108 NA
ATOM     20  N   UNL     1      -1.626  -0.856   0.878  0.00  0.00    -0.046 NA
ENDBRANCH   9  18
ENDBRANCH   1  12
BRANCH   6  21
ATOM     21  C   UNL     1       0.544 -11.281  -4.630  0.00  0.00    +0.003 A 
ATOM     22  C   UNL     1       0.662 -12.559  -4.092  0.00  0.00    +0.029 A 
ATOM     23  C   UNL     1       0.784 -13.660  -4.938  0.00  0.00    +0.054 A 
ATOM     24  C   UNL     1       0.788 -13.477  -6.322  0.00  0.00    +0.042 A 
ATOM     25  C   UNL     1       0.671 -12.201  -6.854  0.00  0.00    +0.032 A 
ATOM     26  C   UNL     1       0.543 -11.105  -6.012  0.00  0.00    +0.033 A 
BRANCH  25  27
ATOM     27  N   UNL     1       0.677 -12.020  -8.239  0.00  0.00    -0.325 N 
ATOM     28  C   UNL     1       0.673 -10.671  -8.827  0.00  0.00    +0.133 C 
ATOM     29  C   UNL     1       1.801 -10.591  -9.862  0.00  0.00    +0.178 C 
ATOM     30  O   UNL     1       1.677 -11.683 -10.777  0.00  0.00    -0.377 OA
ATOM     31  C   UNL     1       1.813 -12.971 -10.174  0.00  0.00    +0.178 C 
ATOM     32  C   UNL     1       0.692 -13.173  -9.154  0.00  0.00    +0.133 C 
ENDBRANCH  25  27
BRANCH  23  33
ATOM     33  C   UNL     1       0.905 -14.977  -4.389  0.00  0.00    +0.099 C 
ATOM     34  N   UNL     1       1.001 -16.022  -3.953  0.00  0.00    -0.191 NA
ENDBRANCH  23  33
ENDBRANCH   6  21
TORSDOF 5
