REMARK  Name = CHEMBL253174
REMARK  1 active torsions:
REMARK  status: ('A' for Active; 'I' for Inactive)
REMARK    1  A    between atoms: C_13  and  N_18
REMARK                            x       y       z     vdW  Elec       q    Type
REMARK                         _______ _______ _______ _____ _____    ______ ____
ROOT
ATOM      1  C   UNL     1      -0.017   1.379   0.010  0.00  0.00    +0.001 A 
ATOM      2  C   UNL     1       1.165   2.107   0.002  0.00  0.00    +0.001 A 
ATOM      3  C   UNL     1       2.392   1.470  -0.014  0.00  0.00    +0.012 A 
ATOM      4  C   UNL     1       2.433   0.083  -0.022  0.00  0.00    +0.027 A 
ATOM      5  C   UNL     1       1.221  -0.661  -0.013  0.00  0.00    +0.008 A 
ATOM      6  C   UNL     1       0.002  -0.004   0.002  0.00  0.00    +0.010 A 
ATOM      7  C   UNL     1       1.367  -2.130  -0.018  0.00  0.00    +0.067 C 
ATOM      8  N   UNL     1       0.517  -2.955  -0.572  0.00  0.00    -0.214 NA
ATOM      9  S   UNL     1       1.209  -4.483  -0.608  0.00  0.00    +0.008 S 
ATOM     10  C   UNL     1       2.847  -4.059  -0.084  0.00  0.00    +0.018 C 
ATOM     11  C   UNL     1       4.028  -4.607  -0.272  0.00  0.00    +0.014 C 
ATOM     12  C   UNL     1       5.192  -3.873   0.267  0.00  0.00    +0.020 C 
ATOM     13  C   UNL     1       5.032  -2.645   0.769  0.00  0.00    +0.013 C 
ATOM     14  C   UNL     1       3.740  -1.914   0.840  0.00  0.00    +0.118 C 
ATOM     15  C   UNL     1       2.528  -2.794   0.689  0.00  0.00    +0.093 C 
ATOM     16  C   UNL     1       3.684  -0.695  -0.038  0.00  0.00    +0.173 C 
ATOM     17  O   UNL     1       4.627  -0.367  -0.729  0.00  0.00    -0.291 OA
ENDROOT
BRANCH  13  18
ATOM     18  N   UNL     1       6.159  -2.003   1.261  0.00  0.00    -0.361 N 
ATOM     19  H   UNL     1       7.021  -2.447   1.233  0.00  0.00    +0.142 HD
ATOM     20  H   UNL     1       6.085  -1.110   1.633  0.00  0.00    +0.142 HD
ENDBRANCH  13  18
TORSDOF 1
