REMARK  Name = CHEMBL571626
REMARK  6 active torsions:
REMARK  status: ('A' for Active; 'I' for Inactive)
REMARK    1  A    between atoms: C_1  and  S_2
REMARK    2  A    between atoms: S_2  and  N_5
REMARK    3  A    between atoms: N_5  and  C_6
REMARK    4  A    between atoms: C_9  and  C_12
REMARK    5  A    between atoms: N_18  and  C_19
REMARK    6  A    between atoms: C_22  and  N_25
REMARK                            x       y       z     vdW  Elec       q    Type
REMARK                         _______ _______ _______ _____ _____    ______ ____
ROOT
ATOM      1  C   UNL     1       1.653  -5.848  -2.678  0.00  0.00    +0.076 A 
ATOM      2  C   UNL     1       2.056  -6.190  -3.973  0.00  0.00    +0.048 A 
ATOM      3  C   UNL     1       2.033  -7.523  -4.340  0.00  0.00    +0.116 A 
ATOM      4  N   UNL     1       1.632  -8.430  -3.463  0.00  0.00    -0.223 NA
ATOM      5  C   UNL     1       1.255  -8.078  -2.242  0.00  0.00    +0.220 A 
ATOM      6  N   UNL     1       1.267  -6.814  -1.847  0.00  0.00    -0.214 NA
ATOM      7  N   UNL     1       0.843  -9.058  -1.354  0.00  0.00    -0.284 N 
ATOM      8  H   UNL     1       0.489  -8.809  -0.486  0.00  0.00    +0.155 HD
ENDROOT
BRANCH   1  12
ATOM      9  C   UNL     1       1.676  -1.790  -1.409  0.00  0.00    +0.074 A 
ATOM     10  C   UNL     1       1.270  -2.789  -0.532  0.00  0.00    +0.027 A 
ATOM     11  C   UNL     1       1.262  -4.105  -0.941  0.00  0.00    +0.012 A 
ATOM     12  C   UNL     1       1.661  -4.434  -2.236  0.00  0.00    +0.001 A 
ATOM     13  C   UNL     1       2.067  -3.430  -3.115  0.00  0.00    +0.012 A 
ATOM     14  C   UNL     1       2.069  -2.115  -2.704  0.00  0.00    +0.027 A 
BRANCH   9  15
ATOM     15  N   UNL     1       1.685  -0.460  -0.993  0.00  0.00    -0.103 NA
BRANCH  15  17
ATOM     16  C   UNL     1       1.383   1.733   0.643  0.00  0.00    +0.220 C 
ATOM     17  S   UNL     1       1.218  -0.071   0.547  0.00  0.00    +0.059 S 
ATOM     18  O   UNL     1       2.179  -0.697   1.386  0.00  0.00    -0.154 OA
ATOM     19  O   UNL     1      -0.153  -0.441   0.615  0.00  0.00    -0.154 OA
ENDBRANCH  15  17
ENDBRANCH   9  15
ENDBRANCH   1  12
BRANCH   7  20
ATOM     20  C   UNL     1       0.938 -10.408  -1.710  0.00  0.00    +0.034 A 
ATOM     21  C   UNL     1       2.041 -10.864  -2.421  0.00  0.00    +0.025 A 
ATOM     22  C   UNL     1       2.134 -12.195  -2.771  0.00  0.00    +0.029 A 
ATOM     23  C   UNL     1       1.125 -13.080  -2.413  0.00  0.00    +0.067 A 
ATOM     24  C   UNL     1       0.023 -12.625  -1.702  0.00  0.00    +0.029 A 
ATOM     25  C   UNL     1      -0.068 -11.294  -1.346  0.00  0.00    +0.025 A 
BRANCH  23  26
ATOM     26  N   UNL     1       1.220 -14.434  -2.770  0.00  0.00    -0.220 N 
ATOM     27  C   UNL     1       0.304 -15.400  -2.488  0.00  0.00    +0.136 A 
ATOM     28  C   UNL     1       0.795 -16.546  -3.015  0.00  0.00    +0.156 A 
ATOM     29  N   UNL     1       1.965 -16.233  -3.584  0.00  0.00    -0.138 NA
ATOM     30  N   UNL     1       2.185 -14.976  -3.426  0.00  0.00    -0.061 NA
ENDBRANCH  23  26
ENDBRANCH   7  20
TORSDOF 5
