REMARK  Name = CHEMBL371113
REMARK  6 active torsions:
REMARK  status: ('A' for Active; 'I' for Inactive)
REMARK    1  A    between atoms: C_1  and  N_2
REMARK    2  A    between atoms: C_6  and  C_7
REMARK    3  A    between atoms: C_7  and  C_8
REMARK    4  A    between atoms: C_8  and  N_9
REMARK    5  A    between atoms: C_14  and  C_16
REMARK    6  A    between atoms: C_16  and  C_26
REMARK                            x       y       z     vdW  Elec       q    Type
REMARK                         _______ _______ _______ _____ _____    ______ ____
ROOT
ATOM      1  N   UNL     1       1.481   0.077   4.457  0.00  0.00    -0.313 N 
ATOM      2  C   UNL     1       2.681   0.192   5.138  0.00  0.00    +0.216 A 
ATOM      3  N   UNL     1       3.812  -0.078   4.503  0.00  0.00    -0.223 NA
ATOM      4  C   UNL     1       4.982   0.020   5.118  0.00  0.00    +0.116 A 
ATOM      5  C   UNL     1       5.020   0.409   6.441  0.00  0.00    +0.049 A 
ATOM      6  C   UNL     1       3.808   0.689   7.090  0.00  0.00    +0.089 A 
ATOM      7  N   UNL     1       2.668   0.574   6.405  0.00  0.00    -0.214 NA
ATOM      8  H   UNL     1       0.646   0.276   4.908  0.00  0.00    +0.149 HD
ENDROOT
BRANCH   6   9
ATOM      9  C   UNL     1       3.794   1.108   8.502  0.00  0.00    +0.105 C 
ATOM     10  C   UNL     1       2.582   1.384   9.137  0.00  0.00    +0.090 C 
ATOM     11  N   UNL     1       1.315   1.319   8.628  0.00  0.00    -0.307 N 
ATOM     12  C   UNL     1       0.229   1.635   9.424  0.00  0.00    +0.046 A 
ATOM     13  C   UNL     1      -1.129   1.621   9.062  0.00  0.00    +0.024 A 
ATOM     14  C   UNL     1      -2.104   1.963   9.968  0.00  0.00    +0.002 A 
ATOM     15  C   UNL     1      -1.784   2.330  11.264  0.00  0.00    +0.001 A 
ATOM     16  C   UNL     1      -0.455   2.353  11.649  0.00  0.00    +0.017 A 
ATOM     17  C   UNL     1       0.521   2.011  10.743  0.00  0.00    +0.035 A 
ATOM     18  S   UNL     1       2.292   1.903  10.820  0.00  0.00    -0.071 S 
ATOM     19  H   UNL     1       1.178   1.052   7.706  0.00  0.00    +0.153 HD
BRANCH   9  20
ATOM     20  C   UNL     1       5.025   1.233   9.225  0.00  0.00    +0.104 C 
ATOM     21  N   UNL     1       6.001   1.332   9.797  0.00  0.00    -0.191 NA
ENDBRANCH   9  20
ENDBRANCH   6   9
BRANCH   1  22
ATOM     22  C   UNL     1       1.473  -0.344   3.053  0.00  0.00    +0.110 C 
BRANCH  22  23
ATOM     23  C   UNL     1       0.032  -0.389   2.543  0.00  0.00    +0.073 C 
BRANCH  23  29
ATOM     24  C   UNL     1      -0.018   1.461   0.010  0.00  0.00    +0.150 C 
ATOM     25  N   UNL     1       0.002  -0.004   0.002  0.00  0.00    -0.337 N 
ATOM     26  C   UNL     1       0.009  -0.799  -1.089  0.00  0.00    +0.199 A 
ATOM     27  N   UNL     1       0.027  -2.045  -0.700  0.00  0.00    -0.244 NA
ATOM     28  C   UNL     1       0.033  -2.088   0.641  0.00  0.00    +0.133 A 
ATOM     29  C   UNL     1       0.024  -0.822   1.099  0.00  0.00    +0.039 A 
ENDBRANCH  23  29
ENDBRANCH  22  23
ENDBRANCH   1  22
TORSDOF 5
