REMARK  Name = CHEMBL385177
REMARK  9 active torsions:
REMARK  status: ('A' for Active; 'I' for Inactive)
REMARK    1  A    between atoms: C_1  and  S_2
REMARK    2  A    between atoms: S_2  and  C_5
REMARK    3  A    between atoms: C_8  and  C_11
REMARK    4  A    between atoms: C_11  and  N_12
REMARK    5  A    between atoms: C_13  and  C_15
REMARK    6  A    between atoms: C_17  and  N_31
REMARK    7  A    between atoms: C_18  and  C_29
REMARK    8  A    between atoms: C_19  and  C_21
REMARK    9  A    between atoms: C_22  and  C_23
REMARK                            x       y       z     vdW  Elec       q    Type
REMARK                         _______ _______ _______ _____ _____    ______ ____
ROOT
ATOM      1  C   UNL     1       4.348   0.875  -7.685  0.00  0.00    +0.128 A 
ATOM      2  C   UNL     1       5.027   0.770  -8.894  0.00  0.00    +0.057 A 
ATOM      3  C   UNL     1       5.403   1.930  -9.571  0.00  0.00    +0.046 A 
ATOM      4  C   UNL     1       5.077   3.172  -8.997  0.00  0.00    +0.098 A 
ATOM      5  C   UNL     1       4.387   3.192  -7.766  0.00  0.00    +0.084 A 
ATOM      6  N   UNL     1       4.048   2.059  -7.167  0.00  0.00    -0.241 NA
ENDROOT
BRANCH   1   8
ATOM      7  N   UNL     1       3.285  -0.270  -5.795  0.00  0.00    -0.306 N 
ATOM      8  C   UNL     1       3.948  -0.358  -6.965  0.00  0.00    +0.263 C 
ATOM      9  O   UNL     1       4.218  -1.448  -7.430  0.00  0.00    -0.269 OA
ATOM     10  H   UNL     1       3.070   0.600  -5.424  0.00  0.00    +0.149 HD
BRANCH   7  11
ATOM     11  C   UNL     1       2.890  -1.488  -5.084  0.00  0.00    +0.140 C 
BRANCH  11  15
ATOM     12  C   UNL     1       0.845  -0.437  -1.483  0.00  0.00    +0.088 A 
ATOM     13  C   UNL     1       0.135  -0.613  -2.656  0.00  0.00    +0.027 A 
ATOM     14  C   UNL     1       0.796  -0.953  -3.821  0.00  0.00    +0.007 A 
ATOM     15  C   UNL     1       2.169  -1.117  -3.814  0.00  0.00    -0.030 A 
ATOM     16  C   UNL     1       2.880  -0.941  -2.641  0.00  0.00    +0.007 A 
ATOM     17  C   UNL     1       2.219  -0.596  -1.477  0.00  0.00    +0.027 A 
BRANCH  12  19
ATOM     18  C   UNL     1      -0.022   1.810   0.012  0.00  0.00    +0.200 C 
ATOM     19  S   UNL     1       0.002  -0.004   0.002  0.00  0.00    -0.006 S 
ATOM     20  O   UNL     1       0.835  -0.488   1.046  0.00  0.00    -0.170 OA
ATOM     21  O   UNL     1      -1.315  -0.510  -0.168  0.00  0.00    -0.170 OA
ENDBRANCH  12  19
ENDBRANCH  11  15
ENDBRANCH   7  11
ENDBRANCH   1   8
BRANCH   3  22
ATOM     22  N   UNL     1       6.081   1.860 -10.778  0.00  0.00    -0.357 N 
ATOM     23  H   UNL     1       6.300   0.997 -11.163  0.00  0.00    +0.142 HD
ATOM     24  H   UNL     1       6.337   2.675 -11.239  0.00  0.00    +0.142 HD
ENDBRANCH   3  22
BRANCH   5  25
ATOM     25  C   UNL     1       4.036   4.479  -7.147  0.00  0.00    +0.030 C 
ATOM     26  C   UNL     1       3.378   4.503  -5.974  0.00  0.00    +0.010 C 
BRANCH  26  27
ATOM     27  C   UNL     1       3.026   5.792  -5.354  0.00  0.00    -0.025 A 
ATOM     28  C   UNL     1       3.369   6.992  -5.984  0.00  0.00    +0.008 A 
ATOM     29  C   UNL     1       3.037   8.195  -5.397  0.00  0.00    +0.001 A 
ATOM     30  C   UNL     1       2.365   8.216  -4.187  0.00  0.00    +0.000 A 
ATOM     31  C   UNL     1       2.022   7.032  -3.557  0.00  0.00    +0.001 A 
ATOM     32  C   UNL     1       2.342   5.822  -4.135  0.00  0.00    +0.008 A 
ENDBRANCH  26  27
ENDBRANCH   5  25
BRANCH   4  33
ATOM     33  C   UNL     1       5.440   4.394  -9.649  0.00  0.00    +0.103 C 
ATOM     34  N   UNL     1       5.728   5.364 -10.167  0.00  0.00    -0.191 NA
ENDBRANCH   4  33
TORSDOF 8
