REMARK  Name = CHEMBL507625
REMARK  10 active torsions:
REMARK  status: ('A' for Active; 'I' for Inactive)
REMARK    1  A    between atoms: C_1  and  C_2
REMARK    2  A    between atoms: C_2  and  C_3
REMARK    3  A    between atoms: C_2  and  N_4
REMARK    4  A    between atoms: N_7  and  C_10
REMARK    5  A    between atoms: C_13  and  N_18
REMARK    6  A    between atoms: C_14  and  O_16
REMARK    7  A    between atoms: O_16  and  C_17
REMARK    8  A    between atoms: C_27  and  N_29
REMARK    9  A    between atoms: N_29  and  C_30
REMARK   10  A    between atoms: C_35  and  C_36
REMARK                            x       y       z     vdW  Elec       q    Type
REMARK                         _______ _______ _______ _____ _____    ______ ____
ROOT
ATOM      1  N   UNL     1      -0.155  -5.105   7.983  0.00  0.00    -0.281 N 
ATOM      2  C   UNL     1       0.567  -6.267   8.203  0.00  0.00    +0.223 A 
ATOM      3  N   UNL     1       1.589  -6.541   7.409  0.00  0.00    -0.196 NA
ATOM      4  C   UNL     1       2.309  -7.647   7.587  0.00  0.00    +0.145 A 
ATOM      5  C   UNL     1       1.961  -8.517   8.636  0.00  0.00    +0.059 A 
ATOM      6  C   UNL     1       2.915  -9.624   8.582  0.00  0.00    +0.032 A 
ATOM      7  C   UNL     1       3.743  -9.374   7.556  0.00  0.00    +0.085 A 
ATOM      8  N   UNL     1       3.391  -8.193   6.952  0.00  0.00    -0.346 N 
ATOM      9  H   UNL     1       3.842  -7.803   6.186  0.00  0.00    +0.167 HD
ATOM     10  C   UNL     1       0.870  -8.186   9.455  0.00  0.00    +0.137 A 
ATOM     11  N   UNL     1       0.211  -7.059   9.207  0.00  0.00    -0.198 NA
ATOM     12  H   UNL     1      -0.847  -4.838   8.608  0.00  0.00    +0.155 HD
ENDROOT
BRANCH   1  16
ATOM     13  C   UNL     1       0.644  -2.755   4.625  0.00  0.00    +0.033 A 
ATOM     14  C   UNL     1       0.777  -4.136   4.556  0.00  0.00    +0.025 A 
ATOM     15  C   UNL     1       0.513  -4.913   5.668  0.00  0.00    +0.029 A 
ATOM     16  C   UNL     1       0.114  -4.315   6.854  0.00  0.00    +0.076 A 
ATOM     17  C   UNL     1      -0.021  -2.931   6.925  0.00  0.00    +0.143 A 
ATOM     18  C   UNL     1       0.250  -2.153   5.812  0.00  0.00    +0.070 A 
BRANCH  13  22
ATOM     19  N   UNL     1       2.301  -0.346   1.697  0.00  0.00    +0.383 N 
ATOM     20  C   UNL     1       1.921   0.194   3.009  0.00  0.00    -0.059 C 
ATOM     21  C   UNL     1       0.661  -0.521   3.508  0.00  0.00    +0.086 C 
ATOM     22  N   UNL     1       0.911  -1.970   3.498  0.00  0.00    -0.333 N 
ATOM     23  C   UNL     1       1.451  -2.571   2.268  0.00  0.00    +0.086 C 
ATOM     24  C   UNL     1       2.674  -1.760   1.827  0.00  0.00    -0.059 C 
ATOM     25  H   UNL     1       1.521  -0.262   1.063  0.00  0.00    -0.081 HD
BRANCH  19  27
ATOM     26  C   UNL     1       3.833  -0.140  -0.203  0.00  0.00    -0.014 C 
ATOM     27  C   UNL     1       3.442   0.413   1.169  0.00  0.00    -0.075 C 
ATOM     28  C   UNL     1       3.056   1.887   1.033  0.00  0.00    -0.014 C 
ENDBRANCH  19  27
ENDBRANCH  13  22
BRANCH  17  29
ATOM     29  O   UNL     1      -0.412  -2.343   8.087  0.00  0.00    -0.493 OA
ATOM     30  C   UNL     1      -0.529  -0.919   8.087  0.00  0.00    +0.277 C 
ENDBRANCH  17  29
ENDBRANCH   1  16
BRANCH  10  31
ATOM     31  N   UNL     1       0.492  -9.013  10.499  0.00  0.00    -0.298 N 
ATOM     32  H   UNL     1       0.946  -9.859  10.637  0.00  0.00    +0.154 HD
BRANCH  31  33
ATOM     33  C   UNL     1      -0.539  -8.630  11.350  0.00  0.00    +0.047 A 
ATOM     34  C   UNL     1      -1.614  -7.901  10.860  0.00  0.00    +0.024 A 
ATOM     35  C   UNL     1      -2.638  -7.522  11.706  0.00  0.00    +0.005 A 
ATOM     36  C   UNL     1      -2.603  -7.863  13.047  0.00  0.00    +0.039 A 
ATOM     37  C   UNL     1      -1.542  -8.587  13.555  0.00  0.00    +0.137 A 
ATOM     38  C   UNL     1      -0.500  -8.984  12.709  0.00  0.00    +0.093 A 
ATOM     39  F   UNL     1      -1.513  -8.917  14.865  0.00  0.00    -0.205 F 
BRANCH  38  40
ATOM     40  C   UNL     1       0.632  -9.761  13.240  0.00  0.00    +0.246 C 
ATOM     41  O   UNL     1       1.611  -9.188  13.678  0.00  0.00    -0.270 OA
ATOM     42  N   UNL     1       0.583 -11.108  13.242  0.00  0.00    -0.325 N 
ATOM     43  H   UNL     1      -0.198 -11.566  12.893  0.00  0.00    +0.145 HD
ATOM     44  H   UNL     1       1.329 -11.620  13.592  0.00  0.00    +0.145 HD
ENDBRANCH  38  40
ENDBRANCH  31  33
ENDBRANCH  10  31
TORSDOF 7
