REMARK  Name = CHEMBL7064
REMARK  0 active torsions:
REMARK  status: ('A' for Active; 'I' for Inactive)
REMARK                            x       y       z     vdW  Elec       q    Type
REMARK                         _______ _______ _______ _____ _____    ______ ____
ROOT
ATOM      1  C   UNL     1      -0.017   1.372   0.010  0.00  0.00    +0.001 A 
ATOM      2  C   UNL     1       1.171   2.092   0.002  0.00  0.00    +0.001 A 
ATOM      3  C   UNL     1       2.383   1.443  -0.013  0.00  0.00    +0.012 A 
ATOM      4  C   UNL     1       2.432   0.043  -0.021  0.00  0.00    +0.031 A 
ATOM      5  C   UNL     1       1.221  -0.689  -0.012  0.00  0.00    +0.011 A 
ATOM      6  C   UNL     1       0.002  -0.004   0.002  0.00  0.00    +0.011 A 
ATOM      7  C   UNL     1       1.246  -2.154  -0.021  0.00  0.00    +0.075 A 
ATOM      8  C   UNL     1       2.485  -2.749  -0.035  0.00  0.00    +0.038 A 
ATOM      9  C   UNL     1       3.767  -2.092  -0.044  0.00  0.00    +0.034 A 
ATOM     10  C   UNL     1       4.885  -2.913  -0.059  0.00  0.00    +0.012 A 
ATOM     11  C   UNL     1       4.712  -4.297  -0.063  0.00  0.00    +0.003 A 
ATOM     12  C   UNL     1       3.505  -4.936  -0.056  0.00  0.00    +0.030 A 
ATOM     13  C   UNL     1       2.309  -4.191  -0.041  0.00  0.00    +0.094 A 
ATOM     14  N   UNL     1       0.999  -4.343  -0.030  0.00  0.00    -0.173 NA
ATOM     15  H   UNL     1      -0.585  -3.103  -0.010  0.00  0.00    +0.189 HD
ATOM     16  N   UNL     1       0.381  -3.198  -0.019  0.00  0.00    -0.276 N 
ATOM     17  C   UNL     1       3.752  -0.625  -0.036  0.00  0.00    +0.194 C 
ATOM     18  O   UNL     1       4.787   0.018  -0.043  0.00  0.00    -0.287 OA
ENDROOT
TORSDOF 0
