REMARK  Name = CHEMBL507625
REMARK  10 active torsions:
REMARK  status: ('A' for Active; 'I' for Inactive)
REMARK    1  A    between atoms: C_1  and  C_2
REMARK    2  A    between atoms: C_2  and  C_3
REMARK    3  A    between atoms: C_2  and  N_4
REMARK    4  A    between atoms: N_7  and  C_10
REMARK    5  A    between atoms: C_13  and  N_18
REMARK    6  A    between atoms: C_14  and  O_16
REMARK    7  A    between atoms: O_16  and  C_17
REMARK    8  A    between atoms: C_27  and  N_29
REMARK    9  A    between atoms: N_29  and  C_30
REMARK   10  A    between atoms: C_35  and  C_36
REMARK                            x       y       z     vdW  Elec       q    Type
REMARK                         _______ _______ _______ _____ _____    ______ ____
ROOT
ATOM      1  N   UNL     1       6.972  -5.045   4.007  0.00  0.00    -0.281 N 
ATOM      2  C   UNL     1       8.037  -4.513   4.716  0.00  0.00    +0.223 A 
ATOM      3  N   UNL     1       7.949  -3.269   5.157  0.00  0.00    -0.196 NA
ATOM      4  C   UNL     1       8.950  -2.720   5.843  0.00  0.00    +0.145 A 
ATOM      5  C   UNL     1      10.102  -3.490   6.089  0.00  0.00    +0.059 A 
ATOM      6  C   UNL     1      11.011  -2.634   6.850  0.00  0.00    +0.032 A 
ATOM      7  C   UNL     1      10.389  -1.455   7.013  0.00  0.00    +0.085 A 
ATOM      8  N   UNL     1       9.155  -1.494   6.414  0.00  0.00    -0.346 N 
ATOM      9  H   UNL     1       8.521  -0.760   6.399  0.00  0.00    +0.167 HD
ATOM     10  C   UNL     1      10.151  -4.806   5.603  0.00  0.00    +0.137 A 
ATOM     11  N   UNL     1       9.103  -5.273   4.932  0.00  0.00    -0.198 NA
ATOM     12  H   UNL     1       6.976  -5.982   3.756  0.00  0.00    +0.155 HD
ENDROOT
BRANCH   1  16
ATOM     13  C   UNL     1       3.746  -2.614   2.947  0.00  0.00    +0.033 A 
ATOM     14  C   UNL     1       5.029  -2.085   3.000  0.00  0.00    +0.025 A 
ATOM     15  C   UNL     1       6.096  -2.890   3.351  0.00  0.00    +0.029 A 
ATOM     16  C   UNL     1       5.888  -4.228   3.651  0.00  0.00    +0.076 A 
ATOM     17  C   UNL     1       4.602  -4.761   3.599  0.00  0.00    +0.143 A 
ATOM     18  C   UNL     1       3.533  -3.952   3.253  0.00  0.00    +0.070 A 
BRANCH  13  22
ATOM     19  N   UNL     1       0.856  -0.437   0.968  0.00  0.00    -0.297 NA
ATOM     20  C   UNL     1       2.248   0.029   1.032  0.00  0.00    +0.103 C 
ATOM     21  C   UNL     1       2.849  -0.352   2.389  0.00  0.00    +0.120 C 
ATOM     22  N   UNL     1       2.667  -1.797   2.591  0.00  0.00    -0.327 N 
ATOM     23  C   UNL     1       1.321  -2.361   2.409  0.00  0.00    +0.120 C 
ATOM     24  C   UNL     1       0.780  -1.901   1.051  0.00  0.00    +0.103 C 
BRANCH  19  26
ATOM     25  C   UNL     1       0.181   1.587  -0.234  0.00  0.00    +0.024 C 
ATOM     26  C   UNL     1       0.191   0.057  -0.245  0.00  0.00    +0.051 C 
ATOM     27  C   UNL     1       0.946  -0.440  -1.479  0.00  0.00    +0.024 C 
ENDBRANCH  19  26
ENDBRANCH  13  22
BRANCH  17  28
ATOM     28  O   UNL     1       4.396  -6.072   3.893  0.00  0.00    -0.493 OA
ATOM     29  C   UNL     1       3.051  -6.551   3.819  0.00  0.00    +0.277 C 
ENDBRANCH  17  28
ENDBRANCH   1  16
BRANCH  10  30
ATOM     30  N   UNL     1      11.264  -5.600   5.821  0.00  0.00    -0.298 N 
ATOM     31  H   UNL     1      12.044  -5.231   6.264  0.00  0.00    +0.154 HD
BRANCH  30  32
ATOM     32  C   UNL     1      11.264  -6.926   5.404  0.00  0.00    +0.047 A 
ATOM     33  C   UNL     1      10.593  -7.294   4.245  0.00  0.00    +0.024 A 
ATOM     34  C   UNL     1      10.594  -8.611   3.832  0.00  0.00    +0.005 A 
ATOM     35  C   UNL     1      11.260  -9.577   4.566  0.00  0.00    +0.039 A 
ATOM     36  C   UNL     1      11.934  -9.233   5.722  0.00  0.00    +0.137 A 
ATOM     37  C   UNL     1      11.947  -7.900   6.150  0.00  0.00    +0.093 A 
ATOM     38  F   UNL     1      12.583 -10.179   6.435  0.00  0.00    -0.205 F 
BRANCH  37  39
ATOM     39  C   UNL     1      12.667  -7.523   7.378  0.00  0.00    +0.246 C 
ATOM     40  O   UNL     1      12.094  -7.545   8.451  0.00  0.00    -0.270 OA
ATOM     41  N   UNL     1      13.962  -7.154   7.314  0.00  0.00    -0.325 N 
ATOM     42  H   UNL     1      14.419  -7.136   6.459  0.00  0.00    +0.145 HD
ATOM     43  H   UNL     1      14.436  -6.905   8.123  0.00  0.00    +0.145 HD
ENDBRANCH  37  39
ENDBRANCH  30  32
ENDBRANCH  10  30
TORSDOF 7
