REMARK  Name = CHEMBL205078
REMARK  3 active torsions:
REMARK  status: ('A' for Active; 'I' for Inactive)
REMARK    1  A    between atoms: C_6  and  N_7
REMARK    2  A    between atoms: C_10  and  C_14
REMARK    3  A    between atoms: C_21  and  C_23
REMARK                            x       y       z     vdW  Elec       q    Type
REMARK                         _______ _______ _______ _____ _____    ______ ____
ROOT
ATOM      1  C   UNL     1       1.321  -4.911   0.435  0.00  0.00    -0.013 A 
ATOM      2  C   UNL     1       2.550  -4.241   0.428  0.00  0.00    +0.028 A 
ATOM      3  C   UNL     1       3.715  -4.974   0.505  0.00  0.00    +0.113 A 
ATOM      4  N   UNL     1       3.685  -6.291   0.584  0.00  0.00    -0.240 NA
ATOM      5  C   UNL     1       2.546  -6.966   0.593  0.00  0.00    +0.125 A 
ATOM      6  C   UNL     1       1.328  -6.303   0.525  0.00  0.00    +0.052 A 
ATOM      7  N   UNL     1       2.570  -8.357   0.677  0.00  0.00    -0.270 N 
ATOM      8  C   UNL     1       3.739  -9.001   0.864  0.00  0.00    +0.221 C 
ATOM      9  O   UNL     1       4.781  -8.380   0.862  0.00  0.00    -0.275 OA
ATOM     10  H   UNL     1       1.745  -8.862   0.601  0.00  0.00    +0.156 HD
ENDROOT
BRANCH   1  14
ATOM     11  N   UNL     1      -1.206  -0.717   0.099  0.00  0.00    -0.299 N 
ATOM     12  C   UNL     1      -1.182  -2.105   0.189  0.00  0.00    +0.123 A 
ATOM     13  C   UNL     1       0.037  -2.768   0.264  0.00  0.00    +0.052 A 
ATOM     14  C   UNL     1       0.044  -4.159   0.354  0.00  0.00    -0.013 A 
ATOM     15  C   UNL     1      -1.185  -4.829   0.366  0.00  0.00    +0.028 A 
ATOM     16  C   UNL     1      -2.350  -4.097   0.288  0.00  0.00    +0.113 A 
ATOM     17  N   UNL     1      -2.321  -2.780   0.209  0.00  0.00    -0.240 NA
ATOM     18  H   UNL     1      -0.381  -0.212   0.174  0.00  0.00    +0.154 HD
BRANCH  11  24
ATOM     19  C   UNL     1      -2.656   1.166   0.529  0.00  0.00    +0.026 A 
ATOM     20  C   UNL     1      -3.854   1.823   0.330  0.00  0.00    +0.040 A 
ATOM     21  C   UNL     1      -4.820   1.271  -0.494  0.00  0.00    +0.124 A 
ATOM     22  C   UNL     1      -4.586   0.059  -1.123  0.00  0.00    +0.040 A 
ATOM     23  C   UNL     1      -3.389  -0.602  -0.928  0.00  0.00    +0.026 A 
ATOM     24  C   UNL     1      -2.419  -0.050  -0.100  0.00  0.00    +0.033 A 
ATOM     25  F   UNL     1      -5.992   1.915  -0.686  0.00  0.00    -0.205 F 
ENDBRANCH  11  24
ENDBRANCH   1  14
BRANCH   8  26
ATOM     26  C   UNL     1       3.752 -10.493   1.075  0.00  0.00    +0.080 C 
ATOM     27  C   UNL     1       2.946 -10.840   2.330  0.00  0.00    +0.041 C 
ATOM     28  C   UNL     1       3.030 -12.348   2.581  0.00  0.00    +0.160 C 
ATOM     29  O   UNL     1       4.400 -12.732   2.714  0.00  0.00    -0.380 OA
ATOM     30  C   UNL     1       5.193 -12.475   1.553  0.00  0.00    +0.160 C 
ATOM     31  C   UNL     1       5.196 -10.972   1.261  0.00  0.00    +0.041 C 
ENDBRANCH   8  26
TORSDOF 3
