REMARK  Name = CHEMBL551140
REMARK  4 active torsions:
REMARK  status: ('A' for Active; 'I' for Inactive)
REMARK    1  A    between atoms: C_1  and  C_2
REMARK    2  A    between atoms: N_8  and  C_14
REMARK    3  A    between atoms: N_12  and  O_13
REMARK    4  A    between atoms: C_14  and  C_15
REMARK                            x       y       z     vdW  Elec       q    Type
REMARK                         _______ _______ _______ _____ _____    ______ ____
ROOT
ATOM      1  C   UNL     1      -0.018   1.503   0.010  0.00  0.00    +0.044 C 
ATOM      2  C   UNL     1       0.002  -0.004   0.002  0.00  0.00    -0.049 A 
ATOM      3  C   UNL     1       0.006  -0.683  -1.204  0.00  0.00    +0.004 A 
ATOM      4  C   UNL     1       0.024  -2.064  -1.220  0.00  0.00    +0.012 A 
ATOM      5  C   UNL     1       0.040  -2.768  -0.022  0.00  0.00    +0.030 A 
ATOM      6  C   UNL     1       0.036  -2.085   1.201  0.00  0.00    +0.047 A 
ATOM      7  C   UNL     1       0.023  -0.694   1.197  0.00  0.00    +0.027 A 
ATOM      8  N   UNL     1       0.053  -3.004   2.245  0.00  0.00    -0.261 N 
ATOM      9  C   UNL     1       0.069  -4.268   1.790  0.00  0.00    +0.273 C 
ATOM     10  O   UNL     1       0.085  -5.276   2.470  0.00  0.00    -0.268 OA
ATOM     11  C   UNL     1       0.061  -4.213   0.305  0.00  0.00    +0.173 C 
ATOM     12  N   UNL     1       0.070  -5.215  -0.527  0.00  0.00    -0.082 NA
ENDROOT
BRANCH  12  13
ATOM     13  O   UNL     1       0.090  -6.543  -0.035  0.00  0.00    -0.409 OA
ATOM     14  H   UNL     1       0.096  -7.219  -0.727  0.00  0.00    +0.328 HD
ENDBRANCH  12  13
BRANCH   8  15
ATOM     15  C   UNL     1       0.055  -2.640   3.664  0.00  0.00    +0.153 C 
BRANCH  15  16
ATOM     16  C   UNL     1      -1.365  -2.534   4.158  0.00  0.00    +0.015 A 
ATOM     17  C   UNL     1      -1.965  -1.295   4.275  0.00  0.00    +0.047 A 
ATOM     18  C   UNL     1      -3.269  -1.198   4.728  0.00  0.00    +0.124 A 
ATOM     19  C   UNL     1      -3.972  -2.341   5.066  0.00  0.00    +0.047 A 
ATOM     20  C   UNL     1      -3.374  -3.582   4.951  0.00  0.00    +0.023 A 
ATOM     21  C   UNL     1      -2.071  -3.682   4.489  0.00  0.00    +0.134 A 
ATOM     22  O   UNL     1      -1.476  -4.898   4.357  0.00  0.00    -0.465 OA
ATOM     23  C   UNL     1      -2.092  -5.996   5.036  0.00  0.00    +0.394 C 
ATOM     24  O   UNL     1      -3.499  -5.970   4.766  0.00  0.00    -0.339 OA
ATOM     25  C   UNL     1      -4.149  -4.820   5.326  0.00  0.00    +0.202 C 
ATOM     26  F   UNL     1      -3.855   0.014   4.842  0.00  0.00    -0.205 F 
ENDBRANCH  15  16
ENDBRANCH   8  15
TORSDOF 3
