REMARK  Name = CHEMBL195188
REMARK  8 active torsions:
REMARK  status: ('A' for Active; 'I' for Inactive)
REMARK    1  A    between atoms: C_4  and  C_7
REMARK    2  A    between atoms: C_7  and  C_8
REMARK    3  A    between atoms: C_8  and  C_10
REMARK    4  A    between atoms: C_8  and  N_34
REMARK    5  A    between atoms: C_10  and  N_11
REMARK    6  A    between atoms: N_11  and  C_12
REMARK    7  A    between atoms: C_14  and  C_28
REMARK    8  A    between atoms: C_15  and  C_18
REMARK                            x       y       z     vdW  Elec       q    Type
REMARK                         _______ _______ _______ _____ _____    ______ ____
ROOT
ATOM      1  C   UNL     1       6.861  -2.224   3.764  0.00  0.00    +0.113 A 
ATOM      2  C   UNL     1       8.027  -2.607   3.104  0.00  0.00    +0.053 A 
ATOM      3  C   UNL     1       8.932  -3.415   3.793  0.00  0.00    +0.013 A 
ATOM      4  C   UNL     1       8.604  -3.789   5.113  0.00  0.00    +0.099 A 
ATOM      5  N   UNL     1       7.465  -3.369   5.649  0.00  0.00    -0.172 NA
ATOM      6  N   UNL     1       6.642  -2.622   5.009  0.00  0.00    -0.264 N 
ATOM      7  H   UNL     1       5.826  -2.341   5.452  0.00  0.00    +0.190 HD
ENDROOT
BRANCH   4   8
ATOM      8  C   UNL     1       9.524  -4.645   5.894  0.00  0.00    +0.010 A 
ATOM      9  C   UNL     1       9.993  -5.835   5.363  0.00  0.00    +0.011 A 
ATOM     10  C   UNL     1      10.857  -6.644   6.091  0.00  0.00    +0.001 A 
ATOM     11  C   UNL     1      11.266  -6.292   7.342  0.00  0.00    +0.008 A 
ATOM     12  C   UNL     1      10.814  -5.093   7.920  0.00  0.00    -0.017 A 
ATOM     13  C   UNL     1       9.938  -4.253   7.190  0.00  0.00    -0.009 A 
ATOM     14  C   UNL     1       9.492  -3.055   7.765  0.00  0.00    +0.009 A 
ATOM     15  C   UNL     1       9.911  -2.710   9.014  0.00  0.00    +0.001 A 
ATOM     16  C   UNL     1      10.778  -3.531   9.732  0.00  0.00    +0.001 A 
ATOM     17  C   UNL     1      11.220  -4.708   9.210  0.00  0.00    +0.008 A 
ENDBRANCH   4   8
BRANCH   3  18
ATOM     18  C   UNL     1      10.195  -3.865   3.160  0.00  0.00    -0.013 A 
ATOM     19  C   UNL     1      11.431  -3.609   3.761  0.00  0.00    +0.028 A 
ATOM     20  C   UNL     1      12.582  -4.045   3.138  0.00  0.00    +0.111 A 
ATOM     21  N   UNL     1      12.526  -4.695   1.991  0.00  0.00    -0.263 NA
ATOM     22  C   UNL     1      11.381  -4.957   1.391  0.00  0.00    +0.111 A 
ATOM     23  C   UNL     1      10.182  -4.562   1.948  0.00  0.00    +0.028 A 
ENDBRANCH   3  18
BRANCH   1  24
ATOM     24  N   UNL     1       5.929  -1.420   3.118  0.00  0.00    -0.331 N 
ATOM     25  H   UNL     1       5.118  -1.153   3.577  0.00  0.00    +0.147 HD
BRANCH  24  26
ATOM     26  C   UNL     1       6.174  -0.975   1.743  0.00  0.00    +0.088 C 
BRANCH  26  27
ATOM     27  C   UNL     1       5.068  -0.007   1.316  0.00  0.00    -0.047 C 
BRANCH  27  28
ATOM     28  N   UNL     1       5.009   1.117   2.260  0.00  0.00    +0.383 N 
ATOM     29  C   UNL     1       6.094   2.088   1.966  0.00  0.00    -0.078 C 
ATOM     30  C   UNL     1       5.578   3.401   2.609  0.00  0.00    -0.020 C 
ATOM     31  C   UNL     1       4.059   3.350   2.325  0.00  0.00    -0.020 C 
ATOM     32  C   UNL     1       3.743   1.862   2.088  0.00  0.00    -0.078 C 
ATOM     33  H   UNL     1       5.089   0.781   3.208  0.00  0.00    -0.081 HD
ENDBRANCH  27  28
BRANCH  27  34
ATOM     34  C   UNL     1       5.366   0.520  -0.088  0.00  0.00    +0.021 C 
BRANCH  34  38
ATOM     35  C   UNL     1       2.067   2.860  -1.463  0.00  0.00    +0.000 A 
ATOM     36  C   UNL     1       3.174   3.481  -0.914  0.00  0.00    +0.000 A 
ATOM     37  C   UNL     1       4.241   2.724  -0.469  0.00  0.00    +0.003 A 
ATOM     38  C   UNL     1       4.202   1.346  -0.573  0.00  0.00    -0.049 A 
ATOM     39  C   UNL     1       3.095   0.725  -1.121  0.00  0.00    +0.003 A 
ATOM     40  C   UNL     1       2.029   1.482  -1.567  0.00  0.00    +0.000 A 
ENDBRANCH  34  38
ENDBRANCH  27  34
ENDBRANCH  26  27
ENDBRANCH  24  26
ENDBRANCH   1  24
TORSDOF 8
