REMARK  Name = CHEMBL193494
REMARK  10 active torsions:
REMARK  status: ('A' for Active; 'I' for Inactive)
REMARK    1  A    between atoms: C_4  and  C_7
REMARK    2  A    between atoms: C_7  and  C_8
REMARK    3  A    between atoms: C_8  and  C_10
REMARK    4  A    between atoms: C_8  and  N_34
REMARK    5  A    between atoms: C_10  and  N_11
REMARK    6  A    between atoms: N_11  and  C_12
REMARK    7  A    between atoms: C_14  and  C_28
REMARK    8  A    between atoms: C_15  and  C_18
REMARK    9  A    between atoms: C_35  and  C_37
REMARK   10  A    between atoms: C_37  and  O_38
REMARK                            x       y       z     vdW  Elec       q    Type
REMARK                         _______ _______ _______ _____ _____    ______ ____
ROOT
ATOM      1  C   UNL     1       7.080  -2.702   3.148  0.00  0.00    +0.113 A 
ATOM      2  C   UNL     1       7.791  -2.991   1.985  0.00  0.00    +0.053 A 
ATOM      3  C   UNL     1       8.965  -3.736   2.107  0.00  0.00    +0.013 A 
ATOM      4  C   UNL     1       9.351  -4.145   3.400  0.00  0.00    +0.099 A 
ATOM      5  N   UNL     1       8.601  -3.816   4.443  0.00  0.00    -0.172 NA
ATOM      6  N   UNL     1       7.526  -3.126   4.322  0.00  0.00    -0.264 N 
ATOM      7  H   UNL     1       7.018  -2.910   5.120  0.00  0.00    +0.190 HD
ENDROOT
BRANCH   4   8
ATOM      8  C   UNL     1      10.585  -4.937   3.592  0.00  0.00    +0.010 A 
ATOM      9  C   UNL     1      10.803  -6.085   2.849  0.00  0.00    +0.011 A 
ATOM     10  C   UNL     1      11.960  -6.835   3.024  0.00  0.00    +0.001 A 
ATOM     11  C   UNL     1      12.910  -6.463   3.927  0.00  0.00    +0.008 A 
ATOM     12  C   UNL     1      12.731  -5.305   4.703  0.00  0.00    -0.017 A 
ATOM     13  C   UNL     1      11.560  -4.526   4.533  0.00  0.00    -0.009 A 
ATOM     14  C   UNL     1      11.386  -3.367   5.303  0.00  0.00    +0.009 A 
ATOM     15  C   UNL     1      12.344  -3.001   6.199  0.00  0.00    +0.001 A 
ATOM     16  C   UNL     1      13.499  -3.763   6.362  0.00  0.00    +0.001 A 
ATOM     17  C   UNL     1      13.696  -4.901   5.641  0.00  0.00    +0.008 A 
ENDBRANCH   4   8
BRANCH   3  18
ATOM     18  C   UNL     1       9.778  -4.085   0.917  0.00  0.00    -0.013 A 
ATOM     19  C   UNL     1      11.132  -3.742   0.847  0.00  0.00    +0.028 A 
ATOM     20  C   UNL     1      11.851  -4.086  -0.279  0.00  0.00    +0.111 A 
ATOM     21  N   UNL     1      11.278  -4.730  -1.279  0.00  0.00    -0.263 NA
ATOM     22  C   UNL     1      10.005  -5.072  -1.252  0.00  0.00    +0.111 A 
ATOM     23  C   UNL     1       9.214  -4.772  -0.162  0.00  0.00    +0.028 A 
ENDBRANCH   3  18
BRANCH   1  24
ATOM     24  N   UNL     1       5.904  -1.962   3.077  0.00  0.00    -0.328 N 
ATOM     25  H   UNL     1       5.409  -1.761   3.886  0.00  0.00    +0.148 HD
BRANCH  24  26
ATOM     26  C   UNL     1       5.414  -1.488   1.780  0.00  0.00    +0.125 C 
BRANCH  26  27
ATOM     27  C   UNL     1       4.114  -0.707   1.981  0.00  0.00    +0.094 C 
BRANCH  27  28
ATOM     28  N   UNL     1       4.335   0.368   2.951  0.00  0.00    -0.309 N 
ATOM     29  C   UNL     1       5.253   1.323   2.701  0.00  0.00    +0.239 C 
ATOM     30  O   UNL     1       5.896   1.292   1.673  0.00  0.00    -0.273 OA
ATOM     31  H   UNL     1       3.821   0.393   3.773  0.00  0.00    +0.149 HD
BRANCH  29  32
ATOM     32  C   UNL     1       5.481   2.429   3.698  0.00  0.00    +0.251 C 
BRANCH  32  33
ATOM     33  O   UNL     1       6.495   3.310   3.210  0.00  0.00    -0.386 OA
ATOM     34  H   UNL     1       6.693   4.048   3.802  0.00  0.00    +0.210 HD
ENDBRANCH  32  33
ENDBRANCH  29  32
ENDBRANCH  27  28
BRANCH  27  35
ATOM     35  C   UNL     1       3.668  -0.107   0.646  0.00  0.00    +0.059 C 
BRANCH  35  39
ATOM     36  C   UNL     1      -0.135   1.778   1.129  0.00  0.00    +0.000 A 
ATOM     37  C   UNL     1       1.026   2.501   1.332  0.00  0.00    +0.000 A 
ATOM     38  C   UNL     1       2.256   1.891   1.176  0.00  0.00    +0.004 A 
ATOM     39  C   UNL     1       2.327   0.558   0.817  0.00  0.00    -0.046 A 
ATOM     40  C   UNL     1       1.166  -0.166   0.615  0.00  0.00    +0.004 A 
ATOM     41  C   UNL     1      -0.064   0.445   0.769  0.00  0.00    +0.000 A 
ENDBRANCH  35  39
ENDBRANCH  27  35
ENDBRANCH  26  27
ENDBRANCH  24  26
ENDBRANCH   1  24
TORSDOF 10
