REMARK  Name = CHEMBL205402
REMARK  4 active torsions:
REMARK  status: ('A' for Active; 'I' for Inactive)
REMARK    1  A    between atoms: C_1  and  C_2
REMARK    2  A    between atoms: C_5  and  C_8
REMARK    3  A    between atoms: C_13  and  C_17
REMARK    4  A    between atoms: N_23  and  C_24
REMARK                            x       y       z     vdW  Elec       q    Type
REMARK                         _______ _______ _______ _____ _____    ______ ____
ROOT
ATOM      1  C   UNL     1       0.647  -4.159  -2.318  0.00  0.00    +0.269 C 
ATOM      2  O   UNL     1       0.504  -4.731  -3.381  0.00  0.00    -0.268 OA
ATOM      3  N   UNL     1       0.669  -4.865  -1.171  0.00  0.00    -0.265 N 
ATOM      4  C   UNL     1       0.424  -6.237  -1.192  0.00  0.00    +0.126 A 
ATOM      5  C   UNL     1       0.339  -6.938   0.004  0.00  0.00    +0.052 A 
ATOM      6  C   UNL     1       0.093  -8.310  -0.034  0.00  0.00    -0.013 A 
ATOM      7  C   UNL     1      -0.058  -8.922  -1.283  0.00  0.00    +0.028 A 
ATOM      8  C   UNL     1       0.041  -8.154  -2.424  0.00  0.00    +0.113 A 
ATOM      9  N   UNL     1       0.270  -6.856  -2.351  0.00  0.00    -0.240 NA
ATOM     10  H   UNL     1       0.856  -4.419  -0.330  0.00  0.00    +0.157 HD
ENDROOT
BRANCH   6  11
ATOM     11  C   UNL     1      -0.006  -9.101   1.219  0.00  0.00    -0.013 A 
ATOM     12  C   UNL     1       0.140  -8.488   2.468  0.00  0.00    +0.028 A 
ATOM     13  C   UNL     1       0.041  -9.255   3.609  0.00  0.00    +0.113 A 
ATOM     14  N   UNL     1      -0.187 -10.553   3.537  0.00  0.00    -0.240 NA
ATOM     15  C   UNL     1      -0.332 -11.175   2.377  0.00  0.00    +0.123 A 
ATOM     16  C   UNL     1      -0.252 -10.472   1.181  0.00  0.00    +0.052 A 
ATOM     17  N   UNL     1      -0.571 -12.545   2.356  0.00  0.00    -0.299 N 
ATOM     18  H   UNL     1      -0.602 -13.019   1.510  0.00  0.00    +0.154 HD
BRANCH  17  19
ATOM     19  C   UNL     1      -0.766 -13.239   3.553  0.00  0.00    +0.032 A 
ATOM     20  C   UNL     1      -1.385 -12.613   4.628  0.00  0.00    +0.023 A 
ATOM     21  C   UNL     1      -1.577 -13.301   5.809  0.00  0.00    +0.002 A 
ATOM     22  C   UNL     1      -1.154 -14.613   5.924  0.00  0.00    +0.000 A 
ATOM     23  C   UNL     1      -0.537 -15.239   4.856  0.00  0.00    +0.002 A 
ATOM     24  C   UNL     1      -0.346 -14.558   3.670  0.00  0.00    +0.023 A 
ENDBRANCH  17  19
ENDBRANCH   6  11
BRANCH   1  29
ATOM     25  C   UNL     1       1.215   1.478  -2.242  0.00  0.00    +0.067 C 
ATOM     26  C   UNL     1       1.062  -0.021  -2.278  0.00  0.00    +0.056 A 
ATOM     27  C   UNL     1       1.085  -0.747  -1.095  0.00  0.00    +0.134 A 
ATOM     28  N   UNL     1       0.952  -2.058  -1.122  0.00  0.00    -0.247 NA
ATOM     29  C   UNL     1       0.796  -2.686  -2.284  0.00  0.00    +0.144 A 
ATOM     30  C   UNL     1       0.774  -1.953  -3.470  0.00  0.00    +0.144 A 
ATOM     31  N   UNL     1       0.902  -0.639  -3.434  0.00  0.00    -0.256 NA
ENDBRANCH   1  29
TORSDOF 3
