REMARK  Name = CHEMBL1094014
REMARK  8 active torsions:
REMARK  status: ('A' for Active; 'I' for Inactive)
REMARK    1  A    between atoms: C_1  and  N_2
REMARK    2  A    between atoms: N_2  and  C_3
REMARK    3  A    between atoms: N_2  and  C_4
REMARK    4  A    between atoms: C_5  and  C_16
REMARK    5  A    between atoms: N_8  and  C_9
REMARK    6  A    between atoms: C_9  and  C_10
REMARK    7  A    between atoms: N_22  and  C_23
REMARK    8  A    between atoms: C_26  and  O_29
REMARK                            x       y       z     vdW  Elec       q    Type
REMARK                         _______ _______ _______ _____ _____    ______ ____
ROOT
ATOM      1  C   UNL     1      -0.395  -3.449  -0.836  0.00  0.00    +0.081 A 
ATOM      2  C   UNL     1      -0.760  -4.770  -1.124  0.00  0.00    +0.048 A 
ATOM      3  C   UNL     1      -0.246  -5.781  -0.336  0.00  0.00    +0.116 A 
ATOM      4  N   UNL     1       0.570  -5.474   0.662  0.00  0.00    -0.223 NA
ATOM      5  C   UNL     1       0.899  -4.215   0.913  0.00  0.00    +0.216 A 
ATOM      6  N   UNL     1       0.434  -3.216   0.181  0.00  0.00    -0.214 NA
ATOM      7  N   UNL     1       1.755  -3.939   1.966  0.00  0.00    -0.311 N 
ATOM      8  H   UNL     1       2.004  -3.022   2.160  0.00  0.00    +0.149 HD
ENDROOT
BRANCH   7   9
ATOM      9  C   UNL     1       2.285  -5.032   2.785  0.00  0.00    +0.073 C 
ATOM     10  C   UNL     1       1.280  -5.378   3.886  0.00  0.00    +0.025 C 
ATOM     11  C   UNL     1       1.833  -6.519   4.741  0.00  0.00    +0.033 C 
ATOM     12  C   UNL     1       3.155  -6.085   5.377  0.00  0.00    +0.115 C 
ATOM     13  C   UNL     1       4.160  -5.739   4.276  0.00  0.00    +0.033 C 
ATOM     14  C   UNL     1       3.607  -4.598   3.420  0.00  0.00    +0.025 C 
BRANCH  12  15
ATOM     15  O   UNL     1       3.672  -7.151   6.176  0.00  0.00    -0.392 OA
ATOM     16  H   UNL     1       4.511  -6.946   6.610  0.00  0.00    +0.210 HD
ENDBRANCH  12  15
ENDBRANCH   7   9
BRANCH   1  18
ATOM     17  C   UNL     1      -0.714  -0.978  -1.420  0.00  0.00    +0.129 A 
ATOM     18  C   UNL     1      -0.918  -2.331  -1.650  0.00  0.00    +0.060 A 
ATOM     19  C   UNL     1      -1.717  -2.440  -2.808  0.00  0.00    +0.146 A 
ATOM     20  N   UNL     1      -1.974  -1.236  -3.241  0.00  0.00    -0.177 NA
ATOM     21  N   UNL     1      -1.366  -0.305  -2.392  0.00  0.00    -0.246 N 
BRANCH  17  23
ATOM     22  C   UNL     1      -0.660   0.005   0.844  0.00  0.00    +0.130 C 
ATOM     23  N   UNL     1       0.017  -0.422  -0.383  0.00  0.00    -0.321 N 
ATOM     24  C   UNL     1       1.467  -0.261  -0.513  0.00  0.00    +0.130 C 
ENDBRANCH  17  23
BRANCH  21  25
ATOM     25  C   UNL     1      -1.425   1.152  -2.535  0.00  0.00    +0.180 C 
BRANCH  25  26
ATOM     26  C   UNL     1      -0.330   1.610  -3.462  0.00  0.00    -0.026 A 
ATOM     27  C   UNL     1       0.877   2.044  -2.945  0.00  0.00    +0.005 A 
ATOM     28  C   UNL     1       1.882   2.464  -3.796  0.00  0.00    +0.000 A 
ATOM     29  C   UNL     1       1.681   2.451  -5.164  0.00  0.00    +0.000 A 
ATOM     30  C   UNL     1       0.475   2.016  -5.681  0.00  0.00    +0.000 A 
ATOM     31  C   UNL     1      -0.529   1.592  -4.830  0.00  0.00    +0.005 A 
ENDBRANCH  25  26
ENDBRANCH  21  25
ENDBRANCH   1  18
TORSDOF 6
