REMARK  Name = CHEMBL199247
REMARK  7 active torsions:
REMARK  status: ('A' for Active; 'I' for Inactive)
REMARK    1  A    between atoms: C_4  and  C_7
REMARK    2  A    between atoms: N_9  and  C_10
REMARK    3  A    between atoms: C_10  and  C_11
REMARK    4  A    between atoms: C_11  and  C_12
REMARK    5  A    between atoms: C_12  and  N_13
REMARK    6  A    between atoms: C_16  and  C_24
REMARK    7  A    between atoms: C_17  and  C_18
REMARK                            x       y       z     vdW  Elec       q    Type
REMARK                         _______ _______ _______ _____ _____    ______ ____
ROOT
ATOM      1  N   UNL     1       5.704  -6.420   0.064  0.00  0.00    -0.331 N 
ATOM      2  C   UNL     1       5.606  -7.160   1.188  0.00  0.00    +0.174 A 
ATOM      3  N   UNL     1       5.567  -8.426   0.876  0.00  0.00    -0.345 N 
ATOM      4  C   UNL     1       5.639  -8.562  -0.460  0.00  0.00    +0.072 A 
ATOM      5  C   UNL     1       5.722  -7.292  -1.001  0.00  0.00    +0.074 A 
ATOM      6  H   UNL     1       5.498  -9.156   1.511  0.00  0.00    +0.167 HD
ENDROOT
BRANCH   4   7
ATOM      7  C   UNL     1       5.627  -9.838  -1.214  0.00  0.00    +0.001 A 
ATOM      8  C   UNL     1       6.560 -10.062  -2.226  0.00  0.00    +0.013 A 
ATOM      9  C   UNL     1       6.545 -11.251  -2.925  0.00  0.00    +0.039 A 
ATOM     10  C   UNL     1       5.604 -12.223  -2.622  0.00  0.00    +0.123 A 
ATOM     11  C   UNL     1       4.675 -12.005  -1.617  0.00  0.00    +0.039 A 
ATOM     12  C   UNL     1       4.686 -10.822  -0.909  0.00  0.00    +0.013 A 
ATOM     13  F   UNL     1       5.593 -13.386  -3.309  0.00  0.00    -0.205 F 
ENDBRANCH   4   7
BRANCH   5  14
ATOM     14  C   UNL     1       5.814  -6.942  -2.432  0.00  0.00    +0.003 A 
ATOM     15  C   UNL     1       4.864  -7.408  -3.350  0.00  0.00    +0.030 A 
ATOM     16  C   UNL     1       4.989  -7.056  -4.677  0.00  0.00    +0.111 A 
ATOM     17  N   UNL     1       5.985  -6.293  -5.085  0.00  0.00    -0.263 NA
ATOM     18  C   UNL     1       6.902  -5.833  -4.255  0.00  0.00    +0.111 A 
ATOM     19  C   UNL     1       6.852  -6.130  -2.910  0.00  0.00    +0.030 A 
ENDBRANCH   5  14
BRANCH   1  20
ATOM     20  C   UNL     1       5.774  -4.958  -0.010  0.00  0.00    +0.125 C 
BRANCH  20  21
ATOM     21  C   UNL     1       4.386  -4.398  -0.331  0.00  0.00    +0.040 C 
BRANCH  21  22
ATOM     22  C   UNL     1       4.432  -2.869  -0.290  0.00  0.00    +0.106 C 
BRANCH  22  25
ATOM     23  C   UNL     1       2.905  -1.000  -0.618  0.00  0.00    +0.244 C 
ATOM     24  O   UNL     1       3.826  -0.243  -0.383  0.00  0.00    -0.270 OA
ATOM     25  N   UNL     1       3.104  -2.332  -0.597  0.00  0.00    -0.311 N 
ATOM     26  H   UNL     1       2.369  -2.936  -0.784  0.00  0.00    +0.149 HD
BRANCH  23  30
ATOM     27  C   UNL     1      -0.946   0.557  -1.509  0.00  0.00    +0.000 A 
ATOM     28  C   UNL     1       0.101   1.421  -1.242  0.00  0.00    +0.001 A 
ATOM     29  C   UNL     1       1.354   0.922  -0.952  0.00  0.00    +0.013 A 
ATOM     30  C   UNL     1       1.564  -0.458  -0.928  0.00  0.00    +0.037 A 
ATOM     31  C   UNL     1       0.504  -1.324  -1.199  0.00  0.00    +0.013 A 
ATOM     32  C   UNL     1      -0.744  -0.812  -1.488  0.00  0.00    +0.001 A 
ENDBRANCH  23  30
ENDBRANCH  22  25
ENDBRANCH  21  22
ENDBRANCH  20  21
ENDBRANCH   1  20
TORSDOF 7
