REMARK  Name = CHEMBL254651
REMARK  6 active torsions:
REMARK  status: ('A' for Active; 'I' for Inactive)
REMARK    1  A    between atoms: C_8  and  C_10
REMARK    2  A    between atoms: C_10  and  C_11
REMARK    3  A    between atoms: C_10  and  C_13
REMARK    4  A    between atoms: N_19  and  C_20
REMARK    5  A    between atoms: C_20  and  C_21
REMARK    6  A    between atoms: C_21  and  C_22
REMARK                            x       y       z     vdW  Elec       q    Type
REMARK                         _______ _______ _______ _____ _____    ______ ____
ROOT
ATOM      1  C   UNL     1       3.886  -4.256  -1.290  0.00  0.00    +0.070 A 
ATOM      2  C   UNL     1       5.252  -4.017  -1.307  0.00  0.00    +0.045 A 
ATOM      3  C   UNL     1       5.957  -4.293  -2.468  0.00  0.00    +0.116 A 
ATOM      4  N   UNL     1       5.311  -4.772  -3.518  0.00  0.00    -0.223 NA
ATOM      5  C   UNL     1       4.005  -4.989  -3.468  0.00  0.00    +0.215 A 
ATOM      6  N   UNL     1       3.302  -4.741  -2.373  0.00  0.00    -0.218 NA
ATOM      7  N   UNL     1       3.360  -5.491  -4.585  0.00  0.00    -0.313 N 
ATOM      8  H   UNL     1       2.404  -5.654  -4.561  0.00  0.00    +0.149 HD
ENDROOT
BRANCH   1   9
ATOM      9  C   UNL     1       3.078  -3.972  -0.050  0.00  0.00    +0.195 C 
BRANCH   9  17
ATOM     10  C   UNL     1      -0.016   1.357   0.009  0.00  0.00    +0.002 A 
ATOM     11  C   UNL     1       1.156   2.100   0.002  0.00  0.00    +0.001 A 
ATOM     12  C   UNL     1       2.375   1.449  -0.013  0.00  0.00    +0.017 A 
ATOM     13  C   UNL     1       2.404   0.076  -0.021  0.00  0.00    +0.039 A 
ATOM     14  C   UNL     1       1.226  -0.705  -0.013  0.00  0.00    +0.079 A 
ATOM     15  C   UNL     1       0.002  -0.004   0.002  0.00  0.00    +0.029 A 
ATOM     16  N   UNL     1       1.464  -2.033  -0.023  0.00  0.00    -0.242 NA
ATOM     17  C   UNL     1       2.669  -2.521  -0.038  0.00  0.00    +0.102 A 
ATOM     18  S   UNL     1       3.669  -1.167  -0.040  0.00  0.00    -0.070 S 
ENDBRANCH   9  17
BRANCH   9  19
ATOM     19  C   UNL     1       3.891  -4.262   1.143  0.00  0.00    +0.079 C 
ATOM     20  N   UNL     1       4.518  -4.486   2.063  0.00  0.00    -0.195 NA
ENDBRANCH   9  19
ENDBRANCH   1   9
BRANCH   7  21
ATOM     21  C   UNL     1       4.122  -5.776  -5.804  0.00  0.00    +0.110 C 
BRANCH  21  22
ATOM     22  C   UNL     1       3.178  -6.317  -6.880  0.00  0.00    +0.073 C 
BRANCH  22  23
ATOM     23  C   UNL     1       3.962  -6.610  -8.133  0.00  0.00    +0.035 A 
ATOM     24  C   UNL     1       4.276  -5.722  -9.096  0.00  0.00    +0.105 A 
ATOM     25  N   UNL     1       4.989  -6.404 -10.046  0.00  0.00    -0.352 N 
ATOM     26  H   UNL     1       5.356  -6.035 -10.864  0.00  0.00    +0.166 HD
ATOM     27  C   UNL     1       5.085  -7.685  -9.630  0.00  0.00    +0.171 A 
ATOM     28  N   UNL     1       4.473  -7.800  -8.483  0.00  0.00    -0.350 N 
ATOM     29  H   UNL     1       4.397  -8.617  -7.967  0.00  0.00    +0.166 HD
ENDBRANCH  22  23
ENDBRANCH  21  22
ENDBRANCH   7  21
TORSDOF 6
