REMARK  Name = CHEMBL507249
REMARK  4 active torsions:
REMARK  status: ('A' for Active; 'I' for Inactive)
REMARK    1  A    between atoms: C_6  and  C_7
REMARK    2  A    between atoms: C_12  and  C_13
REMARK    3  A    between atoms: C_16  and  O_19
REMARK    4  A    between atoms: N_20  and  C_21
REMARK                            x       y       z     vdW  Elec       q    Type
REMARK                         _______ _______ _______ _____ _____    ______ ____
ROOT
ATOM      1  C   UNL     1      -1.264  -0.774   0.011  0.00  0.00    +0.041 A 
ATOM      2  C   UNL     1      -2.567  -0.235   0.026  0.00  0.00    +0.144 A 
ATOM      3  N   UNL     1      -3.416  -1.228   0.029  0.00  0.00    -0.181 NA
ATOM      4  H   UNL     1      -3.079  -3.321   0.015  0.00  0.00    +0.189 HD
ATOM      5  N   UNL     1      -2.696  -2.429   0.016  0.00  0.00    -0.281 N 
ATOM      6  C   UNL     1      -1.383  -2.135  -0.001  0.00  0.00    +0.048 A 
ENDROOT
BRANCH   1  12
ATOM      7  C   UNL     1      -0.017   1.394   0.010  0.00  0.00    +0.048 A 
ATOM      8  C   UNL     1       1.190   2.069   0.002  0.00  0.00    +0.116 A 
ATOM      9  N   UNL     1       2.319   1.378  -0.013  0.00  0.00    -0.223 NA
ATOM     10  C   UNL     1       2.308   0.053  -0.020  0.00  0.00    +0.216 A 
ATOM     11  N   UNL     1       1.175  -0.633  -0.013  0.00  0.00    -0.214 NA
ATOM     12  C   UNL     1       0.002  -0.004   0.002  0.00  0.00    +0.079 A 
ATOM     13  N   UNL     1       3.511  -0.632  -0.035  0.00  0.00    -0.311 N 
ATOM     14  H   UNL     1       3.517  -1.602  -0.040  0.00  0.00    +0.149 HD
BRANCH  13  15
ATOM     15  C   UNL     1       4.775   0.109  -0.043  0.00  0.00    +0.073 C 
ATOM     16  C   UNL     1       5.189   0.431  -1.494  0.00  0.00    +0.022 C 
ATOM     17  C   UNL     1       6.731   0.282  -1.490  0.00  0.00    +0.002 C 
ATOM     18  C   UNL     1       6.955  -0.933  -0.557  0.00  0.00    +0.002 C 
ATOM     19  C   UNL     1       5.897  -0.759   0.553  0.00  0.00    +0.022 C 
ENDBRANCH  13  15
ENDBRANCH   1  12
BRANCH   6  20
ATOM     20  C   UNL     1      -0.248  -3.127  -0.026  0.00  0.00    +0.038 C 
ATOM     21  C   UNL     1      -0.355  -3.993  -1.282  0.00  0.00    +0.012 C 
ATOM     22  C   UNL     1       0.796  -5.000  -1.307  0.00  0.00    +0.032 C 
ATOM     23  C   UNL     1       0.722  -5.891  -0.065  0.00  0.00    +0.115 C 
ATOM     24  C   UNL     1       0.829  -5.024   1.191  0.00  0.00    +0.032 C 
ATOM     25  C   UNL     1      -0.323  -4.017   1.216  0.00  0.00    +0.012 C 
BRANCH  23  26
ATOM     26  O   UNL     1       1.797  -6.831  -0.088  0.00  0.00    -0.392 OA
ATOM     27  H   UNL     1       1.813  -7.430   0.671  0.00  0.00    +0.210 HD
ENDBRANCH  23  26
ENDBRANCH   6  20
TORSDOF 4
