REMARK  Name = CHEMBL193494
REMARK  9 active torsions:
REMARK  status: ('A' for Active; 'I' for Inactive)
REMARK    1  A    between atoms: C_4  and  C_7
REMARK    2  A    between atoms: C_7  and  C_8
REMARK    3  A    between atoms: C_8  and  C_10
REMARK    4  A    between atoms: C_8  and  N_34
REMARK    5  A    between atoms: C_10  and  N_11
REMARK    6  A    between atoms: C_14  and  C_28
REMARK    7  A    between atoms: C_15  and  C_18
REMARK    8  A    between atoms: C_35  and  C_37
REMARK    9  A    between atoms: C_37  and  O_38
REMARK                            x       y       z     vdW  Elec       q    Type
REMARK                         _______ _______ _______ _____ _____    ______ ____
ROOT
ATOM      1  N   UNL     1       5.904  -1.963   3.077  0.00  0.00    -0.326 N 
ATOM      2  C   UNL     1       7.079  -2.702   3.148  0.00  0.00    +0.142 A 
ATOM      3  C   UNL     1       7.797  -2.982   1.986  0.00  0.00    +0.056 A 
ATOM      4  C   UNL     1       8.971  -3.726   2.108  0.00  0.00    +0.013 A 
ATOM      5  C   UNL     1       9.351  -4.144   3.400  0.00  0.00    +0.102 A 
ATOM      6  N   UNL     1       8.595  -3.824   4.442  0.00  0.00    -0.147 NA
ATOM      7  N   UNL     1       7.520  -3.135   4.321  0.00  0.00    -0.134 NA
ATOM      8  H   UNL     1       5.406  -1.765   3.885  0.00  0.00    +0.148 HD
ENDROOT
BRANCH   5   9
ATOM      9  C   UNL     1      10.585  -4.936   3.592  0.00  0.00    +0.010 A 
ATOM     10  C   UNL     1      10.806  -6.082   2.845  0.00  0.00    +0.011 A 
ATOM     11  C   UNL     1      11.963  -6.831   3.021  0.00  0.00    +0.001 A 
ATOM     12  C   UNL     1      12.910  -6.463   3.928  0.00  0.00    +0.008 A 
ATOM     13  C   UNL     1      12.728  -5.308   4.707  0.00  0.00    -0.017 A 
ATOM     14  C   UNL     1      11.558  -4.529   4.537  0.00  0.00    -0.009 A 
ATOM     15  C   UNL     1      11.380  -3.373   5.311  0.00  0.00    +0.009 A 
ATOM     16  C   UNL     1      12.336  -3.011   6.211  0.00  0.00    +0.001 A 
ATOM     17  C   UNL     1      13.491  -3.772   6.375  0.00  0.00    +0.001 A 
ATOM     18  C   UNL     1      13.691  -4.907   5.650  0.00  0.00    +0.008 A 
ENDBRANCH   5   9
BRANCH   4  19
ATOM     19  C   UNL     1       9.790  -4.066   0.920  0.00  0.00    -0.013 A 
ATOM     20  C   UNL     1      11.143  -3.720   0.857  0.00  0.00    +0.028 A 
ATOM     21  C   UNL     1      11.869  -4.056  -0.267  0.00  0.00    +0.111 A 
ATOM     22  N   UNL     1      11.302  -4.693  -1.274  0.00  0.00    -0.263 NA
ATOM     23  C   UNL     1      10.029  -5.037  -1.255  0.00  0.00    +0.111 A 
ATOM     24  C   UNL     1       9.232  -4.746  -0.167  0.00  0.00    +0.028 A 
ENDBRANCH   4  19
BRANCH   1  25
ATOM     25  C   UNL     1       5.416  -1.485   1.781  0.00  0.00    +0.125 C 
BRANCH  25  26
ATOM     26  C   UNL     1       4.115  -0.705   1.982  0.00  0.00    +0.094 C 
BRANCH  26  27
ATOM     27  N   UNL     1       4.333   0.367   2.956  0.00  0.00    -0.309 N 
ATOM     28  C   UNL     1       5.251   1.323   2.711  0.00  0.00    +0.239 C 
ATOM     29  O   UNL     1       5.897   1.296   1.685  0.00  0.00    -0.273 OA
ATOM     30  H   UNL     1       3.817   0.389   3.777  0.00  0.00    +0.149 HD
BRANCH  28  31
ATOM     31  C   UNL     1       5.476   2.426   3.713  0.00  0.00    +0.251 C 
BRANCH  31  32
ATOM     32  O   UNL     1       6.491   3.309   3.230  0.00  0.00    -0.386 OA
ATOM     33  H   UNL     1       6.688   4.045   3.826  0.00  0.00    +0.210 HD
ENDBRANCH  31  32
ENDBRANCH  28  31
ENDBRANCH  26  27
BRANCH  26  34
ATOM     34  C   UNL     1       3.672  -0.100   0.648  0.00  0.00    +0.059 C 
BRANCH  34  38
ATOM     35  C   UNL     1      -0.133   1.780   1.129  0.00  0.00    +0.000 A 
ATOM     36  C   UNL     1       1.027   2.503   1.338  0.00  0.00    +0.000 A 
ATOM     37  C   UNL     1       2.258   1.895   1.182  0.00  0.00    +0.004 A 
ATOM     38  C   UNL     1       2.330   0.563   0.818  0.00  0.00    -0.046 A 
ATOM     39  C   UNL     1       1.170  -0.160   0.611  0.00  0.00    +0.004 A 
ATOM     40  C   UNL     1      -0.061   0.449   0.765  0.00  0.00    +0.000 A 
ENDBRANCH  34  38
ENDBRANCH  26  34
ENDBRANCH  25  26
ENDBRANCH   1  25
TORSDOF 9
