REMARK  Name = CHEMBL1080582
REMARK  5 active torsions:
REMARK  status: ('A' for Active; 'I' for Inactive)
REMARK    1  A    between atoms: C_4  and  C_7
REMARK    2  A    between atoms: C_8  and  C_19
REMARK    3  A    between atoms: C_9  and  C_12
REMARK    4  A    between atoms: C_12  and  N_13
REMARK    5  A    between atoms: N_25  and  C_26
REMARK                            x       y       z     vdW  Elec       q    Type
REMARK                         _______ _______ _______ _____ _____    ______ ____
ROOT
ATOM      1  C   UNL     1       3.683  -0.718  -0.077  0.00  0.00    +0.123 A 
ATOM      2  C   UNL     1       4.028  -1.911   0.707  0.00  0.00    +0.068 A 
ATOM      3  C   UNL     1       5.329  -2.198   0.436  0.00  0.00    +0.131 A 
ATOM      4  O   UNL     1       5.789  -1.290  -0.432  0.00  0.00    -0.360 OA
ATOM      5  N   UNL     1       4.755  -0.378  -0.748  0.00  0.00    -0.077 NA
ENDROOT
BRANCH   2   6
ATOM      6  C   UNL     1       3.131  -2.658   1.617  0.00  0.00    +0.081 A 
ATOM      7  C   UNL     1       1.844  -3.020   1.207  0.00  0.00    +0.048 A 
ATOM      8  C   UNL     1       1.042  -3.717   2.092  0.00  0.00    +0.116 A 
ATOM      9  N   UNL     1       1.512  -4.019   3.293  0.00  0.00    -0.223 NA
ATOM     10  C   UNL     1       2.736  -3.664   3.655  0.00  0.00    +0.216 A 
ATOM     11  N   UNL     1       3.539  -3.001   2.838  0.00  0.00    -0.214 NA
ATOM     12  N   UNL     1       3.189  -3.999   4.920  0.00  0.00    -0.311 N 
ATOM     13  H   UNL     1       4.082  -3.745   5.198  0.00  0.00    +0.149 HD
BRANCH  12  14
ATOM     14  C   UNL     1       2.318  -4.737   5.838  0.00  0.00    +0.073 C 
ATOM     15  C   UNL     1       1.411  -3.755   6.582  0.00  0.00    +0.022 C 
ATOM     16  C   UNL     1       0.502  -4.526   7.541  0.00  0.00    +0.002 C 
ATOM     17  C   UNL     1       1.358  -5.295   8.549  0.00  0.00    +0.000 C 
ATOM     18  C   UNL     1       2.264  -6.277   7.804  0.00  0.00    +0.002 C 
ATOM     19  C   UNL     1       3.174  -5.506   6.846  0.00  0.00    +0.022 C 
ENDBRANCH  12  14
ENDBRANCH   2   6
BRANCH   1  23
ATOM     20  C   UNL     1      -0.086   1.250  -0.164  0.00  0.00    +0.000 A 
ATOM     21  C   UNL     1       0.426   0.793   1.037  0.00  0.00    +0.001 A 
ATOM     22  C   UNL     1       1.648   0.154   1.071  0.00  0.00    +0.010 A 
ATOM     23  C   UNL     1       2.368  -0.032  -0.107  0.00  0.00    +0.004 A 
ATOM     24  C   UNL     1       1.848   0.430  -1.315  0.00  0.00    +0.010 A 
ATOM     25  C   UNL     1       0.625   1.068  -1.337  0.00  0.00    +0.001 A 
ENDBRANCH   1  23
BRANCH   3  26
ATOM     26  C   UNL     1       6.119  -3.343   1.016  0.00  0.00    +0.000 C 
BRANCH  26  27
ATOM     27  N   UNL     1       5.979  -4.522   0.152  0.00  0.00    +0.384 N 
ATOM     28  C   UNL     1       4.579  -4.965   0.154  0.00  0.00    -0.078 C 
ATOM     29  C   UNL     1       4.411  -6.143  -0.808  0.00  0.00    -0.019 C 
ATOM     30  C   UNL     1       5.313  -7.296  -0.356  0.00  0.00    -0.004 C 
ATOM     31  C   UNL     1       6.761  -6.802  -0.291  0.00  0.00    -0.019 C 
ATOM     32  C   UNL     1       6.842  -5.599   0.652  0.00  0.00    -0.078 C 
ATOM     33  H   UNL     1       6.252  -4.283  -0.789  0.00  0.00    -0.081 HD
ENDBRANCH  26  27
ENDBRANCH   3  26
TORSDOF 5
