REMARK  Name = CHEMBL252762
REMARK  5 active torsions:
REMARK  status: ('A' for Active; 'I' for Inactive)
REMARK    1  A    between atoms: C_6  and  C_7
REMARK    2  A    between atoms: C_8  and  C_22
REMARK    3  A    between atoms: C_14  and  C_16
REMARK    4  A    between atoms: C_16  and  N_17
REMARK    5  A    between atoms: N_28  and  C_29
REMARK                            x       y       z     vdW  Elec       q    Type
REMARK                         _______ _______ _______ _____ _____    ______ ____
ROOT
ATOM      1  C   UNL     1      -1.269  -0.765   0.011  0.00  0.00    +0.099 A 
ATOM      2  C   UNL     1      -1.508  -1.968  -0.628  0.00  0.00    +0.096 A 
ATOM      3  N   UNL     1      -2.818  -2.300  -0.344  0.00  0.00    -0.321 N 
ATOM      4  C   UNL     1      -3.324  -1.321   0.431  0.00  0.00    +0.111 A 
ATOM      5  N   UNL     1      -2.401  -0.416   0.645  0.00  0.00    -0.232 NA
ATOM      6  C   UNL     1      -4.769  -1.628   0.773  0.00  0.00    +0.076 C 
ATOM      7  C   UNL     1      -5.181  -2.709  -0.252  0.00  0.00    +0.034 C 
ATOM      8  C   UNL     1      -3.819  -3.346  -0.602  0.00  0.00    +0.109 C 
ENDROOT
BRANCH   2   9
ATOM      9  C   UNL     1      -0.557  -2.740  -1.447  0.00  0.00    +0.094 A 
ATOM     10  C   UNL     1      -0.714  -4.124  -1.607  0.00  0.00    +0.050 A 
ATOM     11  C   UNL     1       0.203  -4.804  -2.384  0.00  0.00    +0.116 A 
ATOM     12  N   UNL     1       1.196  -4.135  -2.952  0.00  0.00    -0.223 NA
ATOM     13  C   UNL     1       1.322  -2.827  -2.784  0.00  0.00    +0.216 A 
ATOM     14  N   UNL     1       0.465  -2.133  -2.053  0.00  0.00    -0.213 NA
ATOM     15  N   UNL     1       2.375  -2.168  -3.396  0.00  0.00    -0.311 N 
ATOM     16  H   UNL     1       2.479  -1.210  -3.282  0.00  0.00    +0.149 HD
BRANCH  15  17
ATOM     17  C   UNL     1       3.331  -2.917  -4.214  0.00  0.00    +0.073 C 
ATOM     18  C   UNL     1       4.709  -3.085  -3.552  0.00  0.00    +0.022 C 
ATOM     19  C   UNL     1       5.320  -2.834  -4.941  0.00  0.00    +0.004 C 
ATOM     20  C   UNL     1       4.036  -2.058  -5.279  0.00  0.00    +0.022 C 
ENDBRANCH  15  17
ENDBRANCH   2   9
BRANCH   1  26
ATOM     21  C   UNL     1      -0.017   1.391   0.010  0.00  0.00    +0.013 A 
ATOM     22  C   UNL     1       1.170   2.094   0.002  0.00  0.00    +0.039 A 
ATOM     23  C   UNL     1       2.379   1.418  -0.013  0.00  0.00    +0.123 A 
ATOM     24  C   UNL     1       2.403   0.032  -0.022  0.00  0.00    +0.039 A 
ATOM     25  C   UNL     1       1.222  -0.680  -0.014  0.00  0.00    +0.013 A 
ATOM     26  C   UNL     1       0.002  -0.004   0.002  0.00  0.00    +0.003 A 
ATOM     27  F   UNL     1       3.538   2.111  -0.021  0.00  0.00    -0.205 F 
ENDBRANCH   1  26
BRANCH   8  28
ATOM     28  C   UNL     1      -3.789  -3.755  -2.075  0.00  0.00    +0.147 C 
BRANCH  28  29
ATOM     29  N   UNL     1      -4.706  -4.878  -2.289  0.00  0.00    -0.336 N 
ATOM     30  C   UNL     1      -4.399  -6.208  -2.188  0.00  0.00    +0.104 A 
ATOM     31  C   UNL     1      -5.527  -6.891  -2.462  0.00  0.00    +0.101 A 
ATOM     32  N   UNL     1      -6.497  -6.002  -2.723  0.00  0.00    -0.352 N 
ATOM     33  C   UNL     1      -6.013  -4.794  -2.616  0.00  0.00    +0.173 A 
ATOM     34  H   UNL     1      -7.413  -6.222  -2.951  0.00  0.00    +0.166 HD
ENDBRANCH  28  29
ENDBRANCH   8  28
TORSDOF 5
