REMARK  Name = CHEMBL364940
REMARK  4 active torsions:
REMARK  status: ('A' for Active; 'I' for Inactive)
REMARK    1  A    between atoms: C_9  and  C_10
REMARK    2  A    between atoms: C_9  and  C_12
REMARK    3  A    between atoms: N_18  and  C_19
REMARK    4  A    between atoms: C_19  and  C_20
REMARK                            x       y       z     vdW  Elec       q    Type
REMARK                         _______ _______ _______ _____ _____    ______ ____
ROOT
ATOM      1  C   UNL     1       2.014  -5.013  -0.045  0.00  0.00    +0.089 A 
ATOM      2  C   UNL     1       2.388  -6.365  -0.051  0.00  0.00    +0.049 A 
ATOM      3  C   UNL     1       1.402  -7.316  -0.047  0.00  0.00    +0.116 A 
ATOM      4  N   UNL     1       0.131  -6.939  -0.038  0.00  0.00    -0.223 NA
ATOM      5  C   UNL     1      -0.202  -5.656  -0.034  0.00  0.00    +0.216 A 
ATOM      6  N   UNL     1       0.716  -4.701  -0.031  0.00  0.00    -0.214 NA
ATOM      7  N   UNL     1      -1.540  -5.305  -0.025  0.00  0.00    -0.308 N 
ATOM      8  H   UNL     1      -1.797  -4.370  -0.021  0.00  0.00    +0.149 HD
ENDROOT
BRANCH   1  17
ATOM      9  C   UNL     1      -0.017   1.370   0.010  0.00  0.00    +0.002 A 
ATOM     10  C   UNL     1       1.157   2.104   0.002  0.00  0.00    +0.001 A 
ATOM     11  C   UNL     1       2.369   1.437  -0.013  0.00  0.00    +0.017 A 
ATOM     12  C   UNL     1       2.389   0.063  -0.021  0.00  0.00    +0.035 A 
ATOM     13  C   UNL     1       1.218  -0.710  -0.013  0.00  0.00    +0.046 A 
ATOM     14  C   UNL     1       0.002  -0.004   0.002  0.00  0.00    +0.024 A 
ATOM     15  N   UNL     1       1.395  -2.081  -0.022  0.00  0.00    -0.307 N 
ATOM     16  C   UNL     1       2.655  -2.611  -0.037  0.00  0.00    +0.090 C 
ATOM     17  C   UNL     1       3.038  -3.953  -0.049  0.00  0.00    +0.105 C 
ATOM     18  S   UNL     1       3.684  -1.153  -0.039  0.00  0.00    -0.071 S 
ATOM     19  H   UNL     1       0.624  -2.669  -0.018  0.00  0.00    +0.153 HD
BRANCH  17  20
ATOM     20  C   UNL     1       4.428  -4.300  -0.064  0.00  0.00    +0.104 C 
ATOM     21  N   UNL     1       5.530  -4.576  -0.076  0.00  0.00    -0.191 NA
ENDBRANCH  17  20
ENDBRANCH   1  17
BRANCH   7  22
ATOM     22  C   UNL     1      -2.571  -6.347  -0.022  0.00  0.00    +0.160 C 
BRANCH  22  23
ATOM     23  C   UNL     1      -3.934  -5.705  -0.013  0.00  0.00    +0.058 A 
ATOM     24  C   UNL     1      -4.606  -5.511  -1.205  0.00  0.00    +0.025 A 
ATOM     25  C   UNL     1      -5.860  -4.920  -1.186  0.00  0.00    +0.003 A 
ATOM     26  C   UNL     1      -6.393  -4.545   0.038  0.00  0.00    +0.020 A 
ATOM     27  C   UNL     1      -5.663  -4.770   1.189  0.00  0.00    +0.111 A 
ATOM     28  N   UNL     1      -4.475  -5.340   1.133  0.00  0.00    -0.258 NA
ENDBRANCH  22  23
ENDBRANCH   7  22
TORSDOF 4
