REMARK  Name = CHEMBL551024
REMARK  7 active torsions:
REMARK  status: ('A' for Active; 'I' for Inactive)
REMARK    1  A    between atoms: C_3  and  C_22
REMARK    2  A    between atoms: C_5  and  N_7
REMARK    3  A    between atoms: N_10  and  C_11
REMARK    4  A    between atoms: C_14  and  C_18
REMARK    5  A    between atoms: C_29  and  C_32
REMARK    6  A    between atoms: C_35  and  C_38
REMARK    7  A    between atoms: C_38  and  N_39
REMARK                            x       y       z     vdW  Elec       q    Type
REMARK                         _______ _______ _______ _____ _____    ______ ____
ROOT
ATOM      1  C   UNL     1      -0.017   1.382  -0.012  0.00  0.00    +0.002 A 
ATOM      2  C   UNL     1       1.169   2.090  -0.005  0.00  0.00    +0.009 A 
ATOM      3  C   UNL     1       2.386   1.411  -0.007  0.00  0.00    -0.014 A 
ATOM      4  C   UNL     1       2.403   0.018  -0.017  0.00  0.00    +0.032 A 
ATOM      5  C   UNL     1       1.208  -0.685  -0.024  0.00  0.00    +0.035 A 
ATOM      6  C   UNL     1      -0.001   0.000  -0.022  0.00  0.00    +0.023 A 
ENDROOT
BRANCH   3   7
ATOM      7  C   UNL     1       3.660   2.169   0.000  0.00  0.00    +0.009 A 
ATOM      8  C   UNL     1       4.714   1.974   0.829  0.00  0.00    +0.093 A 
ATOM      9  N   UNL     1       5.706   2.866   0.533  0.00  0.00    -0.345 N 
ATOM     10  H   UNL     1       6.558   2.920   0.992  0.00  0.00    +0.167 HD
ATOM     11  C   UNL     1       5.323   3.678  -0.509  0.00  0.00    +0.139 A 
ATOM     12  C   UNL     1       4.030   3.276  -0.895  0.00  0.00    +0.027 A 
ATOM     13  C   UNL     1       3.390   3.930  -1.945  0.00  0.00    +0.022 A 
ATOM     14  C   UNL     1       4.071   4.968  -2.582  0.00  0.00    +0.001 A 
ATOM     15  C   UNL     1       5.353   5.307  -2.145  0.00  0.00    +0.121 A 
ATOM     16  N   UNL     1       5.926   4.676  -1.145  0.00  0.00    -0.237 NA
BRANCH  14  17
ATOM     17  C   UNL     1       3.440   5.701  -3.707  0.00  0.00    -0.016 A 
ATOM     18  C   UNL     1       2.159   5.360  -4.134  0.00  0.00    +0.009 A 
ATOM     19  C   UNL     1       1.577   6.046  -5.181  0.00  0.00    +0.002 A 
ATOM     20  C   UNL     1       2.265   7.069  -5.807  0.00  0.00    -0.065 A 
ATOM     21  C   UNL     1       3.538   7.412  -5.388  0.00  0.00    +0.002 A 
ATOM     22  C   UNL     1       4.126   6.737  -4.338  0.00  0.00    +0.009 A 
BRANCH  20  23
ATOM     23  C   UNL     1       1.625   7.814  -6.951  0.00  0.00    -0.051 C 
BRANCH  23  24
ATOM     24  N   UNL     1       0.878   8.965  -6.428  0.00  0.00    +0.381 N 
ATOM     25  H   UNL     1       0.162   8.642  -5.795  0.00  0.00    -0.090 HD
ATOM     26  H   UNL     1       1.508   9.581  -5.937  0.00  0.00    -0.090 HD
ATOM     27  H   UNL     1       0.450   9.464  -7.194  0.00  0.00    -0.090 HD
ENDBRANCH  23  24
ENDBRANCH  20  23
ENDBRANCH  14  17
ENDBRANCH   3   7
BRANCH   5  28
ATOM     28  N   UNL     1       1.219  -2.084  -0.035  0.00  0.00    -0.269 N 
ATOM     29  C   UNL     1       2.181  -2.746  -0.709  0.00  0.00    +0.308 C 
ATOM     30  O   UNL     1       3.085  -2.129  -1.240  0.00  0.00    -0.252 OA
ATOM     31  N   UNL     1       2.140  -4.090  -0.795  0.00  0.00    -0.267 N 
ATOM     32  H   UNL     1       0.535  -2.579   0.444  0.00  0.00    +0.156 HD
ATOM     33  H   UNL     1       1.385  -4.577  -0.429  0.00  0.00    +0.156 HD
BRANCH  31  34
ATOM     34  C   UNL     1       3.188  -4.784  -1.414  0.00  0.00    +0.070 A 
ATOM     35  C   UNL     1       3.846  -4.225  -2.501  0.00  0.00    +0.027 A 
ATOM     36  C   UNL     1       4.880  -4.912  -3.109  0.00  0.00    +0.014 A 
ATOM     37  C   UNL     1       5.259  -6.155  -2.636  0.00  0.00    +0.058 A 
ATOM     38  C   UNL     1       4.606  -6.716  -1.555  0.00  0.00    +0.052 A 
ATOM     39  C   UNL     1       3.575  -6.032  -0.937  0.00  0.00    +0.145 A 
ATOM     40  F   UNL     1       2.940  -6.577   0.123  0.00  0.00    -0.204 F 
BRANCH  37  41
ATOM     41  C   UNL     1       6.386  -6.900  -3.303  0.00  0.00    +0.418 C 
ATOM     42  F   UNL     1       7.598  -6.558  -2.692  0.00  0.00    -0.166 F 
ATOM     43  F   UNL     1       6.174  -8.277  -3.177  0.00  0.00    -0.166 F 
ATOM     44  F   UNL     1       6.435  -6.558  -4.659  0.00  0.00    -0.166 F 
ENDBRANCH  37  41
ENDBRANCH  31  34
ENDBRANCH   5  28
TORSDOF 7
