REMARK  Name = CHEMBL204757
REMARK  4 active torsions:
REMARK  status: ('A' for Active; 'I' for Inactive)
REMARK    1  A    between atoms: C_1  and  C_2
REMARK    2  A    between atoms: C_7  and  C_10
REMARK    3  A    between atoms: C_15  and  C_19
REMARK    4  A    between atoms: N_25  and  C_26
REMARK                            x       y       z     vdW  Elec       q    Type
REMARK                         _______ _______ _______ _____ _____    ______ ____
ROOT
ATOM      1  C   UNL     1      -3.500  -4.703   1.837  0.00  0.00    +0.221 C 
ATOM      2  O   UNL     1      -3.816  -5.874   1.835  0.00  0.00    -0.275 OA
ATOM      3  N   UNL     1      -4.027  -3.865   2.751  0.00  0.00    -0.270 N 
ATOM      4  C   UNL     1      -5.013  -4.318   3.627  0.00  0.00    +0.125 A 
ATOM      5  C   UNL     1      -5.630  -3.422   4.490  0.00  0.00    +0.052 A 
ATOM      6  C   UNL     1      -6.614  -3.891   5.360  0.00  0.00    -0.013 A 
ATOM      7  C   UNL     1      -6.937  -5.252   5.322  0.00  0.00    +0.028 A 
ATOM      8  C   UNL     1      -6.278  -6.075   4.435  0.00  0.00    +0.113 A 
ATOM      9  N   UNL     1      -5.355  -5.597   3.622  0.00  0.00    -0.240 NA
ATOM     10  H   UNL     1      -3.720  -2.946   2.800  0.00  0.00    +0.156 HD
ENDROOT
BRANCH   1  17
ATOM     11  C   UNL     1      -1.125  -4.800  -3.956  0.00  0.00    +0.109 C 
ATOM     12  C   UNL     1      -1.675  -3.641  -3.166  0.00  0.00    +0.212 C 
ATOM     13  O   UNL     1      -2.152  -2.686  -3.741  0.00  0.00    -0.276 OA
ATOM     14  N   UNL     1      -1.635  -3.665  -1.819  0.00  0.00    -0.302 N 
ATOM     15  C   UNL     1      -1.054  -4.812  -1.107  0.00  0.00    +0.108 C 
ATOM     16  C   UNL     1      -2.078  -5.334  -0.094  0.00  0.00    +0.032 C 
ATOM     17  C   UNL     1      -2.519  -4.186   0.817  0.00  0.00    +0.078 C 
ATOM     18  C   UNL     1      -3.184  -3.093  -0.022  0.00  0.00    +0.032 C 
ATOM     19  C   UNL     1      -2.168  -2.543  -1.034  0.00  0.00    +0.108 C 
ENDBRANCH   1  17
BRANCH   6  20
ATOM     20  C   UNL     1      -7.300  -2.971   6.301  0.00  0.00    -0.013 A 
ATOM     21  C   UNL     1      -6.980  -1.609   6.334  0.00  0.00    +0.028 A 
ATOM     22  C   UNL     1      -7.639  -0.785   7.221  0.00  0.00    +0.113 A 
ATOM     23  N   UNL     1      -8.562  -1.263   8.035  0.00  0.00    -0.240 NA
ATOM     24  C   UNL     1      -8.897  -2.544   8.038  0.00  0.00    +0.123 A 
ATOM     25  C   UNL     1      -8.284  -3.440   7.170  0.00  0.00    +0.052 A 
ATOM     26  N   UNL     1      -9.877  -2.997   8.915  0.00  0.00    -0.299 N 
ATOM     27  H   UNL     1     -10.073  -3.945   8.976  0.00  0.00    +0.154 HD
BRANCH  26  28
ATOM     28  C   UNL     1     -10.579  -2.086   9.710  0.00  0.00    +0.032 A 
ATOM     29  C   UNL     1     -10.849  -0.810   9.232  0.00  0.00    +0.023 A 
ATOM     30  C   UNL     1     -11.543   0.087  10.020  0.00  0.00    +0.002 A 
ATOM     31  C   UNL     1     -11.970  -0.284  11.282  0.00  0.00    +0.000 A 
ATOM     32  C   UNL     1     -11.702  -1.554  11.760  0.00  0.00    +0.002 A 
ATOM     33  C   UNL     1     -11.013  -2.457  10.976  0.00  0.00    +0.023 A 
ENDBRANCH  26  28
ENDBRANCH   6  20
TORSDOF 3
