REMARK  Name = CHEMBL482708
REMARK  3 active torsions:
REMARK  status: ('A' for Active; 'I' for Inactive)
REMARK    1  A    between atoms: C_1  and  N_2
REMARK    2  A    between atoms: N_2  and  C_18
REMARK    3  A    between atoms: C_7  and  C_9
REMARK                            x       y       z     vdW  Elec       q    Type
REMARK                         _______ _______ _______ _____ _____    ______ ____
ROOT
ATOM      1  C   UNL     1      -0.155   1.456   0.012  0.00  0.00    +0.132 C 
ATOM      2  N   UNL     1      -0.087  -0.007   0.004  0.00  0.00    -0.300 N 
ATOM      3  C   UNL     1      -0.021  -0.704   1.198  0.00  0.00    +0.218 A 
ATOM      4  N   UNL     1       0.045  -2.028   1.170  0.00  0.00    -0.223 NA
ATOM      5  C   UNL     1       0.111  -2.733   2.290  0.00  0.00    +0.116 A 
ATOM      6  C   UNL     1       0.110  -2.076   3.504  0.00  0.00    +0.050 A 
ATOM      7  C   UNL     1       0.040  -0.675   3.505  0.00  0.00    +0.094 A 
ATOM      8  N   UNL     1      -0.019  -0.031   2.337  0.00  0.00    -0.213 NA
ENDROOT
BRANCH   7   9
ATOM      9  C   UNL     1       0.036   0.073   4.773  0.00  0.00    +0.092 A 
ATOM     10  C   UNL     1       0.109   1.442   4.923  0.00  0.00    +0.141 A 
ATOM     11  N   UNL     1       0.077   1.721   6.221  0.00  0.00    -0.235 NA
ATOM     12  C   UNL     1      -0.013   0.594   6.919  0.00  0.00    +0.138 A 
ATOM     13  N   UNL     1      -0.048  -0.458   6.043  0.00  0.00    -0.298 N 
ATOM     14  C   UNL     1      -0.145  -1.737   6.500  0.00  0.00    +0.093 A 
ATOM     15  C   UNL     1      -0.214  -1.992   7.825  0.00  0.00    +0.018 A 
ATOM     16  C   UNL     1      -0.186  -0.936   8.749  0.00  0.00    +0.005 A 
ATOM     17  C   UNL     1      -0.079   0.347   8.303  0.00  0.00    +0.047 A 
ENDBRANCH   7   9
BRANCH   2  18
ATOM     18  C   UNL     1      -0.090  -0.733  -1.269  0.00  0.00    +0.076 C 
ATOM     19  C   UNL     1       1.117  -0.302  -2.105  0.00  0.00    +0.022 C 
ATOM     20  C   UNL     1       1.113  -1.060  -3.434  0.00  0.00    +0.002 C 
ATOM     21  C   UNL     1      -0.174  -0.745  -4.197  0.00  0.00    +0.000 C 
ATOM     22  C   UNL     1      -1.381  -1.176  -3.362  0.00  0.00    +0.002 C 
ATOM     23  C   UNL     1      -1.378  -0.418  -2.033  0.00  0.00    +0.022 C 
ENDBRANCH   2  18
TORSDOF 2
