REMARK  Name = CHEMBL10
REMARK  5 active torsions:
REMARK  status: ('A' for Active; 'I' for Inactive)
REMARK    1  A    between atoms: C_1  and  S_2
REMARK    2  A    between atoms: S_2  and  C_4
REMARK    3  A    between atoms: C_7  and  C_10
REMARK    4  A    between atoms: C_13  and  C_23
REMARK    5  A    between atoms: C_14  and  C_16
REMARK                            x       y       z     vdW  Elec       q    Type
REMARK                         _______ _______ _______ _____ _____    ______ ____
ROOT
ATOM      1  C   UNL     1       2.889  -1.391  -5.083  0.00  0.00    +0.139 A 
ATOM      2  N   UNL     1       2.323  -1.572  -6.254  0.00  0.00    -0.227 NA
ATOM      3  H   UNL     1       4.895  -1.484  -4.497  0.00  0.00    +0.167 HD
ATOM      4  C   UNL     1       3.264  -1.869  -7.166  0.00  0.00    +0.097 A 
ATOM      5  C   UNL     1       4.490  -1.873  -6.521  0.00  0.00    +0.074 A 
ATOM      6  N   UNL     1       4.238  -1.563  -5.206  0.00  0.00    -0.337 N 
ENDROOT
BRANCH   5   7
ATOM      7  C   UNL     1       5.807  -2.148  -7.128  0.00  0.00    +0.001 A 
ATOM      8  C   UNL     1       5.964  -3.223  -8.006  0.00  0.00    +0.013 A 
ATOM      9  C   UNL     1       7.196  -3.476  -8.570  0.00  0.00    +0.039 A 
ATOM     10  C   UNL     1       8.279  -2.665  -8.267  0.00  0.00    +0.123 A 
ATOM     11  C   UNL     1       8.130  -1.598  -7.396  0.00  0.00    +0.039 A 
ATOM     12  C   UNL     1       6.901  -1.332  -6.830  0.00  0.00    +0.013 A 
ATOM     13  F   UNL     1       9.485  -2.918  -8.822  0.00  0.00    -0.205 F 
ENDBRANCH   5   7
BRANCH   1  17
ATOM     14  C   UNL     1       0.848  -0.411  -1.489  0.00  0.00    +0.039 A 
ATOM     15  C   UNL     1       0.135  -0.575  -2.663  0.00  0.00    +0.018 A 
ATOM     16  C   UNL     1       0.792  -0.893  -3.834  0.00  0.00    +0.012 A 
ATOM     17  C   UNL     1       2.179  -1.049  -3.832  0.00  0.00    +0.017 A 
ATOM     18  C   UNL     1       2.892  -0.882  -2.644  0.00  0.00    +0.012 A 
ATOM     19  C   UNL     1       2.224  -0.559  -1.482  0.00  0.00    +0.018 A 
BRANCH  14  21
ATOM     20  C   UNL     1      -0.022   1.810   0.012  0.00  0.00    +0.127 C 
ATOM     21  S   UNL     1       0.002  -0.004   0.002  0.00  0.00    +0.051 S 
ATOM     22  O   UNL     1       0.868  -0.472   1.027  0.00  0.00    -0.252 OA
ENDBRANCH  14  21
ENDBRANCH   1  17
BRANCH   4  23
ATOM     23  C   UNL     1       3.032  -2.143  -8.602  0.00  0.00    +0.005 A 
ATOM     24  C   UNL     1       3.963  -1.748  -9.569  0.00  0.00    +0.030 A 
ATOM     25  C   UNL     1       3.707  -2.023 -10.896  0.00  0.00    +0.111 A 
ATOM     26  N   UNL     1       2.603  -2.650 -11.257  0.00  0.00    -0.263 NA
ATOM     27  C   UNL     1       1.699  -3.039 -10.378  0.00  0.00    +0.111 A 
ATOM     28  C   UNL     1       1.878  -2.810  -9.030  0.00  0.00    +0.030 A 
ENDBRANCH   4  23
TORSDOF 4
