REMARK  Name = CHEMBL245336
REMARK  5 active torsions:
REMARK  status: ('A' for Active; 'I' for Inactive)
REMARK    1  A    between atoms: C_1  and  N_2
REMARK    2  A    between atoms: C_3  and  C_5
REMARK    3  A    between atoms: C_5  and  N_6
REMARK    4  A    between atoms: C_9  and  N_12
REMARK    5  A    between atoms: C_17  and  C_19
REMARK                            x       y       z     vdW  Elec       q    Type
REMARK                         _______ _______ _______ _____ _____    ______ ____
ROOT
ATOM      1  N   UNL     1      -6.199  -4.627   1.096  0.00  0.00    -0.311 N 
ATOM      2  C   UNL     1      -6.559  -5.958   1.216  0.00  0.00    +0.216 A 
ATOM      3  N   UNL     1      -5.621  -6.861   1.464  0.00  0.00    -0.221 NA
ATOM      4  C   UNL     1      -5.923  -8.145   1.587  0.00  0.00    +0.136 A 
ATOM      5  C   UNL     1      -7.240  -8.545   1.454  0.00  0.00    +0.085 A 
ATOM      6  C   UNL     1      -8.210  -7.570   1.192  0.00  0.00    +0.096 A 
ATOM      7  N   UNL     1      -7.832  -6.296   1.087  0.00  0.00    -0.213 NA
ATOM      8 CL   UNL     1      -7.680 -10.218   1.606  0.00  0.00    -0.080 Cl
ATOM      9  H   UNL     1      -6.876  -3.955   0.919  0.00  0.00    +0.149 HD
ENDROOT
BRANCH   6  10
ATOM     10  C   UNL     1      -9.632  -7.946   1.042  0.00  0.00    +0.027 A 
ATOM     11  C   UNL     1     -10.351  -8.751   1.867  0.00  0.00    +0.093 A 
ATOM     12  N   UNL     1     -11.626  -8.865   1.404  0.00  0.00    -0.360 N 
ATOM     13  H   UNL     1     -12.325  -9.388   1.827  0.00  0.00    +0.165 HD
ATOM     14  C   UNL     1     -11.781  -8.130   0.248  0.00  0.00    +0.047 A 
ATOM     15  C   UNL     1     -10.547  -7.517  -0.029  0.00  0.00    +0.009 A 
ATOM     16  C   UNL     1     -10.410  -6.699  -1.149  0.00  0.00    +0.010 A 
ATOM     17  C   UNL     1     -11.490  -6.492  -1.978  0.00  0.00    +0.001 A 
ATOM     18  C   UNL     1     -12.710  -7.093  -1.704  0.00  0.00    +0.002 A 
ATOM     19  C   UNL     1     -12.858  -7.912  -0.605  0.00  0.00    +0.026 A 
ENDBRANCH   6  10
BRANCH   1  23
ATOM     20  N   UNL     1      -2.613  -2.510   0.454  0.00  0.00    -0.294 NA
ATOM     21  C   UNL     1      -3.249  -2.345   1.767  0.00  0.00    +0.086 C 
ATOM     22  C   UNL     1      -4.717  -2.769   1.681  0.00  0.00    +0.037 C 
ATOM     23  C   UNL     1      -4.795  -4.232   1.236  0.00  0.00    +0.076 C 
ATOM     24  C   UNL     1      -4.083  -4.386  -0.111  0.00  0.00    +0.037 C 
ATOM     25  C   UNL     1      -2.634  -3.915   0.027  0.00  0.00    +0.086 C 
BRANCH  20  26
ATOM     26  C   UNL     1      -1.242  -1.983   0.463  0.00  0.00    +0.180 C 
BRANCH  26  29
ATOM     27  C   UNL     1      -0.166   1.665   0.902  0.00  0.00    +0.128 C 
ATOM     28  N   UNL     1      -0.130   0.213   0.707  0.00  0.00    -0.317 N 
ATOM     29  C   UNL     1      -1.279  -0.490   0.664  0.00  0.00    +0.227 C 
ATOM     30  O   UNL     1      -2.343   0.079   0.788  0.00  0.00    -0.274 OA
ATOM     31  H   UNL     1       0.721  -0.242   0.608  0.00  0.00    +0.148 HD
ENDBRANCH  26  29
ENDBRANCH  20  26
ENDBRANCH   1  23
TORSDOF 4
