REMARK  Name = CHEMBL189223
REMARK  5 active torsions:
REMARK  status: ('A' for Active; 'I' for Inactive)
REMARK    1  A    between atoms: C_9  and  C_10
REMARK    2  A    between atoms: C_9  and  C_12
REMARK    3  A    between atoms: N_18  and  C_19
REMARK    4  A    between atoms: C_19  and  C_20
REMARK    5  A    between atoms: C_20  and  N_21
REMARK                            x       y       z     vdW  Elec       q    Type
REMARK                         _______ _______ _______ _____ _____    ______ ____
ROOT
ATOM      1  C   UNL     1       4.468  -4.310  -0.064  0.00  0.00    +0.089 A 
ATOM      2  C   UNL     1       4.867  -5.655  -0.082  0.00  0.00    +0.049 A 
ATOM      3  C   UNL     1       6.206  -5.941  -0.095  0.00  0.00    +0.116 A 
ATOM      4  N   UNL     1       7.085  -4.948  -0.092  0.00  0.00    -0.223 NA
ATOM      5  C   UNL     1       6.689  -3.684  -0.076  0.00  0.00    +0.216 A 
ATOM      6  N   UNL     1       5.405  -3.359  -0.068  0.00  0.00    -0.214 NA
ATOM      7  N   UNL     1       7.639  -2.678  -0.073  0.00  0.00    -0.312 N 
ATOM      8  H   UNL     1       7.362  -1.748  -0.061  0.00  0.00    +0.149 HD
ENDROOT
BRANCH   1  17
ATOM      9  C   UNL     1      -0.017   1.370   0.010  0.00  0.00    +0.002 A 
ATOM     10  C   UNL     1       1.157   2.104   0.002  0.00  0.00    +0.001 A 
ATOM     11  C   UNL     1       2.369   1.437  -0.013  0.00  0.00    +0.017 A 
ATOM     12  C   UNL     1       2.389   0.063  -0.021  0.00  0.00    +0.035 A 
ATOM     13  C   UNL     1       1.218  -0.710  -0.013  0.00  0.00    +0.046 A 
ATOM     14  C   UNL     1       0.002  -0.004   0.002  0.00  0.00    +0.024 A 
ATOM     15  N   UNL     1       1.395  -2.081  -0.022  0.00  0.00    -0.307 N 
ATOM     16  C   UNL     1       2.655  -2.611  -0.037  0.00  0.00    +0.090 C 
ATOM     17  C   UNL     1       3.038  -3.953  -0.049  0.00  0.00    +0.105 C 
ATOM     18  S   UNL     1       3.684  -1.153  -0.039  0.00  0.00    -0.071 S 
ATOM     19  H   UNL     1       0.624  -2.669  -0.018  0.00  0.00    +0.153 HD
BRANCH  17  20
ATOM     20  C   UNL     1       2.043  -4.983  -0.045  0.00  0.00    +0.104 C 
ATOM     21  N   UNL     1       1.254  -5.800  -0.042  0.00  0.00    -0.191 NA
ENDBRANCH  17  20
ENDBRANCH   1  17
BRANCH   7  22
ATOM     22  C   UNL     1       9.065  -3.017  -0.087  0.00  0.00    +0.127 C 
BRANCH  22  23
ATOM     23  C   UNL     1       9.895  -1.732  -0.081  0.00  0.00    +0.164 C 
BRANCH  23  24
ATOM     24  N   UNL     1      11.320  -2.071  -0.095  0.00  0.00    -0.251 N 
ATOM     25  C   UNL     1      12.241  -1.644  -0.976  0.00  0.00    +0.219 A 
ATOM     26  N   UNL     1      13.393  -2.170  -0.647  0.00  0.00    -0.223 NA
ATOM     27  C   UNL     1      13.247  -2.935   0.433  0.00  0.00    +0.244 A 
ATOM     28  N   UNL     1      11.997  -2.902   0.812  0.00  0.00    -0.158 NA
ENDBRANCH  23  24
ENDBRANCH  22  23
ENDBRANCH   7  22
TORSDOF 5
