REMARK  Name = CHEMBL248792
REMARK  6 active torsions:
REMARK  status: ('A' for Active; 'I' for Inactive)
REMARK    1  A    between atoms: C_1  and  S_2
REMARK    2  A    between atoms: S_2  and  N_5
REMARK    3  A    between atoms: N_5  and  C_6
REMARK    4  A    between atoms: C_9  and  C_12
REMARK    5  A    between atoms: C_19  and  N_20
REMARK    6  A    between atoms: C_24  and  N_26
REMARK                            x       y       z     vdW  Elec       q    Type
REMARK                         _______ _______ _______ _____ _____    ______ ____
ROOT
ATOM      1  C   UNL     1       1.851  -5.981  -2.527  0.00  0.00    +0.001 A 
ATOM      2  C   UNL     1       2.450  -6.286  -3.742  0.00  0.00    +0.022 A 
ATOM      3  C   UNL     1       2.337  -7.599  -4.221  0.00  0.00    +0.022 A 
ATOM      4  C   UNL     1       1.623  -8.555  -3.455  0.00  0.00    +0.073 A 
ATOM      5  C   UNL     1       1.510  -9.871  -3.936  0.00  0.00    +0.028 A 
ATOM      6  C   UNL     1       2.081 -10.216  -5.123  0.00  0.00    +0.004 A 
ATOM      7  C   UNL     1       2.784  -9.287  -5.882  0.00  0.00    +0.024 A 
ATOM      8  C   UNL     1       2.919  -7.984  -5.449  0.00  0.00    +0.042 A 
ATOM      9  N   UNL     1       1.067  -8.202  -2.291  0.00  0.00    -0.254 NA
ATOM     10  C   UNL     1       1.167  -6.983  -1.823  0.00  0.00    +0.120 A 
ENDROOT
BRANCH   8  11
ATOM     11  N   UNL     1       3.623  -7.057  -6.214  0.00  0.00    -0.293 N 
ATOM     12  C   UNL     1       4.374  -7.482  -7.299  0.00  0.00    +0.164 A 
ATOM     13  N   UNL     1       4.623  -8.714  -7.690  0.00  0.00    -0.231 NA
ATOM     14  C   UNL     1       5.364  -8.955  -8.756  0.00  0.00    +0.153 A 
ATOM     15  C   UNL     1       5.852  -7.881  -9.423  0.00  0.00    +0.185 A 
ATOM     16  S   UNL     1       5.183  -6.548  -8.441  0.00  0.00    -0.028 S 
ATOM     17  H   UNL     1       3.588  -6.115  -5.987  0.00  0.00    +0.154 HD
BRANCH  15  18
ATOM     18  N   UNL     1       6.702  -7.828 -10.635  0.00  0.00    +0.065 N 
ATOM     19  O   UNL     1       7.056  -8.852 -11.171  0.00  0.00    -0.126 OA
ATOM     20  O   UNL     1       7.041  -6.760 -11.089  0.00  0.00    -0.126 OA
ENDBRANCH  15  18
ENDBRANCH   8  11
BRANCH   1  24
ATOM     21  C   UNL     1       2.107  -2.042  -0.941  0.00  0.00    +0.074 A 
ATOM     22  C   UNL     1       1.427  -3.030  -0.239  0.00  0.00    +0.027 A 
ATOM     23  C   UNL     1       1.343  -4.307  -0.751  0.00  0.00    +0.010 A 
ATOM     24  C   UNL     1       1.940  -4.607  -1.974  0.00  0.00    -0.016 A 
ATOM     25  C   UNL     1       2.622  -3.615  -2.677  0.00  0.00    +0.010 A 
ATOM     26  C   UNL     1       2.700  -2.337  -2.164  0.00  0.00    +0.027 A 
BRANCH  21  27
ATOM     27  N   UNL     1       2.191  -0.749  -0.421  0.00  0.00    -0.103 NA
BRANCH  27  29
ATOM     28  C   UNL     1       1.839   1.362   1.310  0.00  0.00    +0.220 C 
ATOM     29  S   UNL     1       1.486  -0.396   1.035  0.00  0.00    +0.059 S 
ATOM     30  O   UNL     1       2.189  -1.190   1.981  0.00  0.00    -0.154 OA
ATOM     31  O   UNL     1       0.094  -0.587   0.820  0.00  0.00    -0.154 OA
ENDBRANCH  27  29
ENDBRANCH  21  27
ENDBRANCH   1  24
TORSDOF 5
