REMARK  Name = CHEMBL207536
REMARK  1 active torsions:
REMARK  status: ('A' for Active; 'I' for Inactive)
REMARK    1  A    between atoms: C_1  and  N_2
REMARK                            x       y       z     vdW  Elec       q    Type
REMARK                         _______ _______ _______ _____ _____    ______ ____
ROOT
ATOM      1  C   UNL     1      -0.018   1.461   0.010  0.00  0.00    +0.173 C 
ATOM      2  N   UNL     1       0.002  -0.004   0.002  0.00  0.00    -0.260 N 
ATOM      3  C   UNL     1       0.008  -0.751  -1.060  0.00  0.00    +0.182 A 
ATOM      4  N   UNL     1       0.007  -0.450  -2.413  0.00  0.00    -0.113 N 
ATOM      5  O   UNL     1       0.231   0.879  -2.850  0.00  0.00    -0.162 OA
ATOM      6  C   UNL     1      -0.216  -1.465  -3.337  0.00  0.00    +0.098 A 
ATOM      7  C   UNL     1      -0.453  -1.106  -4.665  0.00  0.00    +0.031 A 
ATOM      8  C   UNL     1      -0.675  -2.075  -5.617  0.00  0.00    +0.022 A 
ATOM      9  C   UNL     1      -0.667  -3.420  -5.271  0.00  0.00    +0.042 A 
ATOM     10  C   UNL     1      -0.437  -3.797  -3.967  0.00  0.00    +0.034 A 
ATOM     11  C   UNL     1      -0.212  -2.823  -2.989  0.00  0.00    +0.051 A 
ATOM     12  C   UNL     1       0.025  -3.250  -1.588  0.00  0.00    +0.201 A 
ATOM     13  O   UNL     1       0.210  -4.413  -1.280  0.00  0.00    -0.286 OA
ATOM     14  C   UNL     1       0.020  -2.159  -0.597  0.00  0.00    +0.089 A 
ATOM     15  C   UNL     1       0.022  -2.127   0.753  0.00  0.00    +0.062 A 
ATOM     16  N   UNL     1       0.024  -0.819   1.134  0.00  0.00    -0.206 N 
ATOM     17  C   UNL     1       0.027  -0.461   2.434  0.00  0.00    +0.334 C 
ATOM     18  O   UNL     1      -0.178   0.692   2.757  0.00  0.00    -0.248 OA
ATOM     19  N   UNL     1       0.262  -1.401   3.370  0.00  0.00    -0.295 N 
ATOM     20  C   UNL     1       0.721  -2.746   3.033  0.00  0.00    +0.112 C 
ATOM     21  C   UNL     1       0.026  -3.253   1.759  0.00  0.00    +0.075 C 
ATOM     22 CL   UNL     1      -0.947  -4.628  -6.486  0.00  0.00    -0.084 Cl
ATOM     23  H   UNL     1       0.121  -1.177   4.303  0.00  0.00    +0.150 HD
ENDROOT
TORSDOF 0
