REMARK  Name = CHEMBL248790
REMARK  5 active torsions:
REMARK  status: ('A' for Active; 'I' for Inactive)
REMARK    1  A    between atoms: C_1  and  S_2
REMARK    2  A    between atoms: S_2  and  N_5
REMARK    3  A    between atoms: N_5  and  C_6
REMARK    4  A    between atoms: C_9  and  C_12
REMARK    5  A    between atoms: C_19  and  N_20
REMARK                            x       y       z     vdW  Elec       q    Type
REMARK                         _______ _______ _______ _____ _____    ______ ____
ROOT
ATOM      1  C   UNL     1       1.588  -5.872  -2.701  0.00  0.00    +0.001 A 
ATOM      2  C   UNL     1       2.262  -6.211  -3.866  0.00  0.00    +0.022 A 
ATOM      3  C   UNL     1       2.453  -7.573  -4.144  0.00  0.00    +0.022 A 
ATOM      4  C   UNL     1       1.956  -8.540  -3.235  0.00  0.00    +0.073 A 
ATOM      5  C   UNL     1       2.148  -9.904  -3.514  0.00  0.00    +0.028 A 
ATOM      6  C   UNL     1       2.804 -10.284  -4.645  0.00  0.00    +0.004 A 
ATOM      7  C   UNL     1       3.296  -9.343  -5.544  0.00  0.00    +0.024 A 
ATOM      8  C   UNL     1       3.128  -7.994  -5.310  0.00  0.00    +0.043 A 
ATOM      9  N   UNL     1       1.314  -8.152  -2.127  0.00  0.00    -0.254 NA
ATOM     10  C   UNL     1       1.131  -6.886  -1.847  0.00  0.00    +0.120 A 
ENDROOT
BRANCH   8  11
ATOM     11  N   UNL     1       3.623  -7.057  -6.214  0.00  0.00    -0.283 N 
ATOM     12  C   UNL     1       3.807  -7.406  -7.542  0.00  0.00    +0.219 A 
ATOM     13  N   UNL     1       3.394  -8.593  -7.963  0.00  0.00    -0.223 NA
ATOM     14  C   UNL     1       3.554  -8.957  -9.224  0.00  0.00    +0.116 A 
ATOM     15  C   UNL     1       4.162  -8.079 -10.109  0.00  0.00    +0.039 A 
ATOM     16  C   UNL     1       4.581  -6.846  -9.636  0.00  0.00    +0.116 A 
ATOM     17  N   UNL     1       4.386  -6.542  -8.364  0.00  0.00    -0.223 NA
ATOM     18  H   UNL     1       3.838  -6.160  -5.914  0.00  0.00    +0.155 HD
ENDBRANCH   8  11
BRANCH   1  22
ATOM     19  C   UNL     1       0.930  -1.785  -1.718  0.00  0.00    +0.074 A 
ATOM     20  C   UNL     1       0.474  -2.786  -0.868  0.00  0.00    +0.027 A 
ATOM     21  C   UNL     1       0.686  -4.111  -1.184  0.00  0.00    +0.010 A 
ATOM     22  C   UNL     1       1.358  -4.447  -2.358  0.00  0.00    -0.016 A 
ATOM     23  C   UNL     1       1.815  -3.442  -3.210  0.00  0.00    +0.010 A 
ATOM     24  C   UNL     1       1.596  -2.118  -2.892  0.00  0.00    +0.027 A 
BRANCH  19  25
ATOM     25  N   UNL     1       0.714  -0.444  -1.396  0.00  0.00    -0.103 NA
BRANCH  25  27
ATOM     26  C   UNL     1      -0.131   1.767   0.008  0.00  0.00    +0.220 C 
ATOM     27  S   UNL     1      -0.079  -0.046   0.002  0.00  0.00    +0.059 S 
ATOM     28  O   UNL     1       0.765  -0.515   1.044  0.00  0.00    -0.154 OA
ATOM     29  O   UNL     1      -1.389  -0.573  -0.162  0.00  0.00    -0.154 OA
ENDBRANCH  25  27
ENDBRANCH  19  25
ENDBRANCH   1  22
TORSDOF 4
