REMARK  Name = CHEMBL253174
REMARK  1 active torsions:
REMARK  status: ('A' for Active; 'I' for Inactive)
REMARK    1  A    between atoms: C_13  and  N_18
REMARK                            x       y       z     vdW  Elec       q    Type
REMARK                         _______ _______ _______ _____ _____    ______ ____
ROOT
ATOM      1  C   UNL     1       0.053   1.424   0.709  0.00  0.00    +0.001 A 
ATOM      2  C   UNL     1       1.247   2.131   0.702  0.00  0.00    +0.001 A 
ATOM      3  C   UNL     1       2.454   1.480   0.561  0.00  0.00    +0.012 A 
ATOM      4  C   UNL     1       2.478   0.091   0.420  0.00  0.00    +0.027 A 
ATOM      5  C   UNL     1       1.254  -0.624   0.416  0.00  0.00    +0.008 A 
ATOM      6  C   UNL     1       0.048   0.051   0.567  0.00  0.00    +0.010 A 
ATOM      7  C   UNL     1       1.303  -2.095   0.234  0.00  0.00    +0.067 C 
ATOM      8  N   UNL     1       0.335  -2.922   0.498  0.00  0.00    -0.214 NA
ATOM      9  S   UNL     1       0.861  -4.487   0.190  0.00  0.00    +0.008 S 
ATOM     10  C   UNL     1       2.593  -4.196   0.041  0.00  0.00    +0.018 C 
ATOM     11  C   UNL     1       3.697  -4.909   0.162  0.00  0.00    +0.014 C 
ATOM     12  C   UNL     1       4.973  -4.174  -0.029  0.00  0.00    +0.020 C 
ATOM     13  C   UNL     1       5.000  -2.835   0.153  0.00  0.00    +0.013 C 
ATOM     14  C   UNL     1       3.747  -2.111   0.534  0.00  0.00    +0.118 C 
ATOM     15  C   UNL     1       2.585  -2.709  -0.286  0.00  0.00    +0.093 C 
ATOM     16  C   UNL     1       3.758  -0.629   0.282  0.00  0.00    +0.173 C 
ATOM     17  O   UNL     1       4.780  -0.049  -0.022  0.00  0.00    -0.291 OA
ENDROOT
BRANCH  13  18
ATOM     18  N   UNL     1       6.185  -2.134  -0.012  0.00  0.00    -0.361 N 
ATOM     19  H   UNL     1       6.919  -2.532  -0.506  0.00  0.00    +0.142 HD
ATOM     20  H   UNL     1       6.281  -1.246   0.367  0.00  0.00    +0.142 HD
ENDBRANCH  13  18
TORSDOF 1
