REMARK  Name = CHEMBL379254
REMARK  6 active torsions:
REMARK  status: ('A' for Active; 'I' for Inactive)
REMARK    1  A    between atoms: C_1  and  O_2
REMARK    2  A    between atoms: O_2  and  C_3
REMARK    3  A    between atoms: C_3  and  C_4
REMARK    4  A    between atoms: C_4  and  C_5
REMARK    5  A    between atoms: C_10  and  C_14
REMARK    6  A    between atoms: N_20  and  C_21
REMARK                            x       y       z     vdW  Elec       q    Type
REMARK                         _______ _______ _______ _____ _____    ______ ____
ROOT
ATOM      1  C   UNL     1       1.433  -4.760   1.108  0.00  0.00    +0.220 C 
ATOM      2  O   UNL     1       1.374  -5.962   1.257  0.00  0.00    -0.275 OA
ATOM      3  N   UNL     1       1.991  -3.989   2.062  0.00  0.00    -0.270 N 
ATOM      4  C   UNL     1       2.406  -4.560   3.265  0.00  0.00    +0.125 A 
ATOM      5  C   UNL     1       2.878  -3.745   4.285  0.00  0.00    +0.052 A 
ATOM      6  C   UNL     1       3.289  -4.330   5.482  0.00  0.00    -0.013 A 
ATOM      7  C   UNL     1       3.206  -5.722   5.601  0.00  0.00    +0.028 A 
ATOM      8  C   UNL     1       2.726  -6.460   4.541  0.00  0.00    +0.113 A 
ATOM      9  N   UNL     1       2.340  -5.872   3.424  0.00  0.00    -0.240 NA
ATOM     10  H   UNL     1       2.105  -3.038   1.912  0.00  0.00    +0.156 HD
ENDROOT
BRANCH   6  11
ATOM     11  C   UNL     1       3.800  -3.499   6.600  0.00  0.00    -0.013 A 
ATOM     12  C   UNL     1       3.878  -2.107   6.483  0.00  0.00    +0.028 A 
ATOM     13  C   UNL     1       4.358  -1.368   7.543  0.00  0.00    +0.113 A 
ATOM     14  N   UNL     1       4.744  -1.955   8.661  0.00  0.00    -0.240 NA
ATOM     15  C   UNL     1       4.688  -3.269   8.816  0.00  0.00    +0.123 A 
ATOM     16  C   UNL     1       4.211  -4.085   7.797  0.00  0.00    +0.052 A 
ATOM     17  N   UNL     1       5.107  -3.839  10.014  0.00  0.00    -0.299 N 
ATOM     18  H   UNL     1       5.141  -4.804  10.107  0.00  0.00    +0.154 HD
BRANCH  17  19
ATOM     19  C   UNL     1       5.480  -3.021  11.084  0.00  0.00    +0.032 A 
ATOM     20  C   UNL     1       4.855  -1.795  11.274  0.00  0.00    +0.023 A 
ATOM     21  C   UNL     1       5.225  -0.989  12.333  0.00  0.00    +0.002 A 
ATOM     22  C   UNL     1       6.218  -1.401  13.203  0.00  0.00    +0.000 A 
ATOM     23  C   UNL     1       6.843  -2.621  13.017  0.00  0.00    +0.002 A 
ATOM     24  C   UNL     1       6.473  -3.434  11.963  0.00  0.00    +0.023 A 
ENDBRANCH  17  19
ENDBRANCH   6  11
BRANCH   1  25
ATOM     25  C   UNL     1       0.881  -4.128  -0.144  0.00  0.00    +0.124 C 
BRANCH  25  26
ATOM     26  C   UNL     1       0.309  -5.216  -1.055  0.00  0.00    +0.168 C 
BRANCH  26  28
ATOM     27  C   UNL     1      -0.775  -5.550  -3.167  0.00  0.00    +0.194 C 
ATOM     28  O   UNL     1      -0.214  -4.616  -2.243  0.00  0.00    -0.382 OA
ENDBRANCH  26  28
ENDBRANCH  25  26
ENDBRANCH   1  25
TORSDOF 5
