REMARK  Name = CHEMBL437747
REMARK  7 active torsions:
REMARK  status: ('A' for Active; 'I' for Inactive)
REMARK    1  A    between atoms: C_1  and  C_2
REMARK    2  A    between atoms: C_2  and  C_3
REMARK    3  A    between atoms: C_3  and  N_4
REMARK    4  A    between atoms: C_5  and  C_23
REMARK    5  A    between atoms: C_6  and  C_15
REMARK    6  A    between atoms: C_8  and  C_9
REMARK    7  A    between atoms: N_29  and  C_30
REMARK                            x       y       z     vdW  Elec       q    Type
REMARK                         _______ _______ _______ _____ _____    ______ ____
ROOT
ATOM      1  N   UNL     1       0.593  -2.036  -0.898  0.00  0.00    -0.326 N 
ATOM      2  C   UNL     1       1.757  -2.767  -0.804  0.00  0.00    +0.095 A 
ATOM      3  C   UNL     1       1.486  -3.997  -1.380  0.00  0.00    +0.099 A 
ATOM      4  N   UNL     1       0.206  -3.973  -1.792  0.00  0.00    -0.231 NA
ATOM      5  C   UNL     1      -0.325  -2.817  -1.503  0.00  0.00    +0.114 A 
ENDROOT
BRANCH   5   6
ATOM      6  C   UNL     1      -1.746  -2.415  -1.803  0.00  0.00    +0.052 C 
ATOM      7  C   UNL     1      -2.710  -3.371  -1.095  0.00  0.00    -0.008 C 
ATOM      8  C   UNL     1      -4.148  -3.006  -1.467  0.00  0.00    -0.082 C 
ATOM      9  N   UNL     1      -4.325  -3.119  -2.920  0.00  0.00    +0.379 N 
ATOM     10  C   UNL     1      -3.455  -2.154  -3.604  0.00  0.00    -0.082 C 
ATOM     11  C   UNL     1      -1.990  -2.486  -3.313  0.00  0.00    -0.008 C 
ATOM     12  H   UNL     1      -4.086  -4.053  -3.215  0.00  0.00    -0.086 HD
ATOM     13  H   UNL     1      -5.287  -2.929  -3.157  0.00  0.00    -0.086 HD
ENDBRANCH   5   6
BRANCH   3  14
ATOM     14  C   UNL     1       2.432  -5.129  -1.517  0.00  0.00    +0.004 A 
ATOM     15  C   UNL     1       3.785  -4.886  -1.749  0.00  0.00    +0.011 A 
ATOM     16  C   UNL     1       4.662  -5.943  -1.876  0.00  0.00    +0.022 A 
ATOM     17  C   UNL     1       4.201  -7.245  -1.774  0.00  0.00    +0.059 A 
ATOM     18  C   UNL     1       2.857  -7.493  -1.544  0.00  0.00    +0.060 A 
ATOM     19  C   UNL     1       1.972  -6.441  -1.409  0.00  0.00    +0.031 A 
ATOM     20 CL   UNL     1       2.286  -9.127  -1.418  0.00  0.00    -0.082 Cl
ATOM     21 CL   UNL     1       5.310  -8.571  -1.935  0.00  0.00    -0.082 Cl
ENDBRANCH   3  14
BRANCH   2  22
ATOM     22  C   UNL     1       3.033  -2.329  -0.211  0.00  0.00    +0.094 A 
ATOM     23  C   UNL     1       3.511  -1.029  -0.431  0.00  0.00    +0.050 A 
ATOM     24  C   UNL     1       4.712  -0.664   0.146  0.00  0.00    +0.116 A 
ATOM     25  N   UNL     1       5.372  -1.545   0.884  0.00  0.00    -0.223 NA
ATOM     26  C   UNL     1       4.897  -2.768   1.076  0.00  0.00    +0.216 A 
ATOM     27  N   UNL     1       3.749  -3.160   0.547  0.00  0.00    -0.213 NA
ATOM     28  N   UNL     1       5.619  -3.656   1.854  0.00  0.00    -0.311 N 
ATOM     29  H   UNL     1       5.284  -4.554   2.003  0.00  0.00    +0.149 HD
BRANCH  28  30
ATOM     30  C   UNL     1       6.890  -3.240   2.453  0.00  0.00    +0.073 C 
ATOM     31  C   UNL     1       8.020  -3.437   1.440  0.00  0.00    +0.022 C 
ATOM     32  C   UNL     1       9.347  -3.002   2.066  0.00  0.00    +0.002 C 
ATOM     33  C   UNL     1       9.625  -3.848   3.311  0.00  0.00    +0.000 C 
ATOM     34  C   UNL     1       8.495  -3.651   4.323  0.00  0.00    +0.002 C 
ATOM     35  C   UNL     1       7.168  -4.085   3.698  0.00  0.00    +0.022 C 
ENDBRANCH  28  30
ENDBRANCH   2  22
BRANCH   1  36
ATOM     36  C   UNL     1       0.389  -0.665  -0.423  0.00  0.00    +0.123 C 
BRANCH  36  38
ATOM     37  C   UNL     1      -0.311   0.736   1.524  0.00  0.00    +0.005 C 
ATOM     38  C   UNL     1      -0.097  -0.696   1.028  0.00  0.00    +0.018 C 
ENDBRANCH  36  38
ENDBRANCH   1  36
TORSDOF 6
