REMARK  Name = CHEMBL245733
REMARK  3 active torsions:
REMARK  status: ('A' for Active; 'I' for Inactive)
REMARK    1  A    between atoms: C_1  and  C_2
REMARK    2  A    between atoms: C_13  and  N_16
REMARK    3  A    between atoms: C_21  and  C_23
REMARK                            x       y       z     vdW  Elec       q    Type
REMARK                         _______ _______ _______ _____ _____    ______ ____
ROOT
ATOM      1  N   UNL     1       5.682  -3.013   4.179  0.00  0.00    -0.311 N 
ATOM      2  C   UNL     1       6.622  -3.808   4.813  0.00  0.00    +0.216 A 
ATOM      3  N   UNL     1       6.539  -5.125   4.694  0.00  0.00    -0.221 NA
ATOM      4  C   UNL     1       7.418  -5.921   5.284  0.00  0.00    +0.136 A 
ATOM      5  C   UNL     1       8.437  -5.364   6.035  0.00  0.00    +0.085 A 
ATOM      6  C   UNL     1       8.500  -3.969   6.144  0.00  0.00    +0.096 A 
ATOM      7  N   UNL     1       7.583  -3.232   5.518  0.00  0.00    -0.213 NA
ATOM      8 CL   UNL     1       9.610  -6.370   6.826  0.00  0.00    -0.080 Cl
ATOM      9  H   UNL     1       5.733  -2.047   4.254  0.00  0.00    +0.149 HD
ENDROOT
BRANCH   1  22
ATOM     10  C   UNL     1       1.754   1.944  -1.091  0.00  0.00    +0.007 C 
ATOM     11  C   UNL     1       1.278   0.596  -0.547  0.00  0.00    -0.011 C 
ATOM     12  C   UNL     1       1.281  -0.439  -1.674  0.00  0.00    +0.022 C 
ATOM     13  C   UNL     1       0.770  -1.778  -1.134  0.00  0.00    +0.109 C 
ATOM     14  N   UNL     1       1.578  -2.156   0.034  0.00  0.00    -0.285 N 
ATOM     15  C   UNL     1       1.716  -1.196   1.138  0.00  0.00    +0.109 C 
ATOM     16  C   UNL     1       2.216   0.137   0.572  0.00  0.00    +0.022 C 
ATOM     17  C   UNL     1       2.181  -3.360   0.092  0.00  0.00    +0.305 C 
ATOM     18  O   UNL     1       2.167  -4.094  -0.876  0.00  0.00    -0.252 OA
ATOM     19  N   UNL     1       2.799  -3.750   1.225  0.00  0.00    -0.285 N 
ATOM     20  C   UNL     1       2.281  -3.344   2.538  0.00  0.00    +0.111 C 
ATOM     21  C   UNL     1       3.412  -2.681   3.331  0.00  0.00    +0.041 C 
ATOM     22  C   UNL     1       4.610  -3.631   3.394  0.00  0.00    +0.076 C 
ATOM     23  C   UNL     1       5.114  -3.913   1.977  0.00  0.00    +0.041 C 
ATOM     24  C   UNL     1       3.999  -4.595   1.169  0.00  0.00    +0.111 C 
ENDBRANCH   1  22
BRANCH   6  25
ATOM     25  C   UNL     1       9.569  -3.324   6.935  0.00  0.00    +0.027 A 
ATOM     26  C   UNL     1      10.899  -3.597   6.877  0.00  0.00    +0.093 A 
ATOM     27  N   UNL     1      11.571  -2.801   7.754  0.00  0.00    -0.360 N 
ATOM     28  H   UNL     1      12.531  -2.814   7.890  0.00  0.00    +0.165 HD
ATOM     29  C   UNL     1      10.691  -1.975   8.419  0.00  0.00    +0.047 A 
ATOM     30  C   UNL     1       9.402  -2.257   7.936  0.00  0.00    +0.009 A 
ATOM     31  C   UNL     1       8.302  -1.560   8.432  0.00  0.00    +0.010 A 
ATOM     32  C   UNL     1       8.486  -0.591   9.393  0.00  0.00    +0.001 A 
ATOM     33  C   UNL     1       9.759  -0.309   9.869  0.00  0.00    +0.002 A 
ATOM     34  C   UNL     1      10.855  -0.996   9.395  0.00  0.00    +0.026 A 
ENDBRANCH   6  25
TORSDOF 2
