REMARK  Name = CHEMBL378627
REMARK  15 active torsions:
REMARK  status: ('A' for Active; 'I' for Inactive)
REMARK    1  A    between atoms: C_1  and  C_2
REMARK    2  A    between atoms: C_2  and  C_3
REMARK    3  A    between atoms: C_2  and  O_4
REMARK    4  A    between atoms: O_4  and  C_5
REMARK    5  A    between atoms: C_6  and  C_30
REMARK    6  A    between atoms: C_7  and  N_29
REMARK    7  A    between atoms: C_9  and  N_11
REMARK    8  A    between atoms: C_12  and  C_14
REMARK    9  A    between atoms: C_14  and  C_15
REMARK   10  A    between atoms: C_17  and  O_27
REMARK   11  A    between atoms: C_18  and  S_23
REMARK   12  A    between atoms: C_20  and  O_21
REMARK   13  A    between atoms: O_21  and  C_22
REMARK   14  A    between atoms: S_23  and  C_26
REMARK   15  A    between atoms: O_27  and  C_28
REMARK                            x       y       z     vdW  Elec       q    Type
REMARK                         _______ _______ _______ _____ _____    ______ ____
ROOT
ATOM      1  N   UNL     1       0.378  -4.138  -2.336  0.00  0.00    -0.270 N 
ATOM      2  C   UNL     1       0.242  -5.370  -2.866  0.00  0.00    +0.223 C 
ATOM      3  O   UNL     1      -0.853  -5.888  -2.926  0.00  0.00    -0.275 OA
ATOM      4  H   UNL     1       1.240  -3.694  -2.355  0.00  0.00    +0.156 HD
ENDROOT
BRANCH   1   9
ATOM      5  C   UNL     1      -2.988  -3.519  -1.303  0.00  0.00    +0.236 A 
ATOM      6  C   UNL     1      -2.899  -2.285  -0.642  0.00  0.00    +0.134 A 
ATOM      7  C   UNL     1      -1.642  -1.651  -0.552  0.00  0.00    +0.051 A 
ATOM      8  C   UNL     1      -0.544  -2.284  -1.126  0.00  0.00    +0.068 A 
ATOM      9  C   UNL     1      -0.719  -3.504  -1.762  0.00  0.00    +0.131 A 
ATOM     10  N   UNL     1      -1.913  -4.080  -1.826  0.00  0.00    -0.197 NA
BRANCH   7  11
ATOM     11  N   UNL     1      -1.505  -0.431   0.091  0.00  0.00    -0.357 N 
ATOM     12  H   UNL     1      -2.279  -0.001   0.486  0.00  0.00    +0.142 HD
ATOM     13  H   UNL     1      -0.634  -0.006   0.145  0.00  0.00    +0.142 HD
ENDBRANCH   7  11
BRANCH   6  14
ATOM     14  C   UNL     1      -4.063  -1.679  -0.070  0.00  0.00    +0.106 C 
ATOM     15  N   UNL     1      -4.987  -1.198   0.385  0.00  0.00    -0.191 NA
ENDBRANCH   6  14
BRANCH   5  16
ATOM     16  O   UNL     1      -4.186  -4.144  -1.400  0.00  0.00    -0.473 OA
BRANCH  16  18
ATOM     17  C   UNL     1      -5.321  -6.276  -1.497  0.00  0.00    +0.051 C 
ATOM     18  C   UNL     1      -4.209  -5.401  -2.080  0.00  0.00    +0.169 C 
ATOM     19  C   UNL     1      -4.471  -5.170  -3.570  0.00  0.00    +0.051 C 
ENDBRANCH  16  18
ENDBRANCH   5  16
ENDBRANCH   1   9
BRANCH   2  20
ATOM     20  C   UNL     1       1.452  -6.104  -3.385  0.00  0.00    +0.135 C 
BRANCH  20  21
ATOM     21  C   UNL     1       1.032  -7.449  -3.921  0.00  0.00    +0.007 A 
ATOM     22  C   UNL     1       1.103  -8.567  -3.113  0.00  0.00    +0.055 A 
ATOM     23  C   UNL     1       0.716  -9.804  -3.606  0.00  0.00    +0.145 A 
ATOM     24  C   UNL     1       0.258  -9.918  -4.911  0.00  0.00    +0.133 A 
ATOM     25  C   UNL     1       0.187  -8.800  -5.718  0.00  0.00    +0.076 A 
ATOM     26  C   UNL     1       0.569  -7.562  -5.224  0.00  0.00    +0.126 A 
BRANCH  24  27
ATOM     27  S   UNL     1      -0.233 -11.490  -5.537  0.00  0.00    -0.002 S 
ATOM     28  O   UNL     1      -1.143 -11.998  -4.571  0.00  0.00    -0.170 OA
ATOM     29  O   UNL     1      -0.660 -11.233  -6.868  0.00  0.00    -0.170 OA
ATOM     30  C   UNL     1       1.285 -12.483  -5.549  0.00  0.00    +0.200 C 
ENDBRANCH  24  27
BRANCH  26  31
ATOM     31  O   UNL     1       0.495  -6.460  -6.017  0.00  0.00    -0.495 OA
ATOM     32  C   UNL     1       0.009  -6.651  -7.348  0.00  0.00    +0.277 C 
ENDBRANCH  26  31
BRANCH  23  33
ATOM     33  O   UNL     1       0.785 -10.905  -2.811  0.00  0.00    -0.493 OA
ATOM     34  C   UNL     1       1.267 -10.714  -1.479  0.00  0.00    +0.277 C 
ENDBRANCH  23  33
ENDBRANCH  20  21
ENDBRANCH   2  20
TORSDOF 10
