REMARK  Name = CHEMBL568116
REMARK  5 active torsions:
REMARK  status: ('A' for Active; 'I' for Inactive)
REMARK    1  A    between atoms: C_1  and  N_2
REMARK    2  A    between atoms: N_11  and  C_13
REMARK    3  A    between atoms: C_16  and  N_19
REMARK    4  A    between atoms: C_24  and  C_26
REMARK    5  A    between atoms: C_28  and  N_33
REMARK                            x       y       z     vdW  Elec       q    Type
REMARK                         _______ _______ _______ _____ _____    ______ ____
ROOT
ATOM      1  N   UNL     1       0.030  -8.469   7.647  0.00  0.00    -0.284 N 
ATOM      2  C   UNL     1       0.899  -8.037   8.634  0.00  0.00    +0.220 A 
ATOM      3  N   UNL     1       1.339  -6.786   8.606  0.00  0.00    -0.223 NA
ATOM      4  C   UNL     1       2.170  -6.335   9.531  0.00  0.00    +0.116 A 
ATOM      5  C   UNL     1       2.585  -7.186  10.541  0.00  0.00    +0.048 A 
ATOM      6  C   UNL     1       2.105  -8.498  10.545  0.00  0.00    +0.076 A 
ATOM      7  N   UNL     1       1.267  -8.881   9.585  0.00  0.00    -0.214 NA
ATOM      8  H   UNL     1      -0.362  -9.355   7.699  0.00  0.00    +0.155 HD
ENDROOT
BRANCH   6   9
ATOM      9  C   UNL     1       2.520  -9.448  11.606  0.00  0.00    +0.005 A 
ATOM     10  C   UNL     1       2.125 -10.783  11.541  0.00  0.00    +0.033 A 
ATOM     11  C   UNL     1       2.516 -11.667  12.535  0.00  0.00    +0.033 A 
ATOM     12  C   UNL     1       3.299 -11.222  13.593  0.00  0.00    +0.061 A 
ATOM     13  C   UNL     1       3.691  -9.896  13.658  0.00  0.00    +0.126 A 
ATOM     14  C   UNL     1       3.310  -9.010  12.667  0.00  0.00    +0.048 A 
ATOM     15  F   UNL     1       4.452  -9.468  14.689  0.00  0.00    -0.205 F 
BRANCH  11  16
ATOM     16  N   UNL     1       2.122 -13.006  12.473  0.00  0.00    -0.325 N 
ATOM     17  C   UNL     1       1.403 -13.531  11.301  0.00  0.00    +0.133 C 
ATOM     18  C   UNL     1       2.114 -14.805  10.829  0.00  0.00    +0.178 C 
ATOM     19  O   UNL     1       2.262 -15.698  11.935  0.00  0.00    -0.377 OA
ATOM     20  C   UNL     1       3.074 -15.187  12.995  0.00  0.00    +0.178 C 
ATOM     21  C   UNL     1       2.418 -13.934  13.576  0.00  0.00    +0.133 C 
ENDBRANCH  11  16
ENDBRANCH   6   9
BRANCH   1  25
ATOM     22  C   UNL     1      -0.904  -5.963   4.449  0.00  0.00    +0.067 A 
ATOM     23  C   UNL     1       0.357  -5.910   5.027  0.00  0.00    +0.029 A 
ATOM     24  C   UNL     1       0.666  -6.739   6.086  0.00  0.00    +0.025 A 
ATOM     25  C   UNL     1      -0.284  -7.627   6.574  0.00  0.00    +0.034 A 
ATOM     26  C   UNL     1      -1.546  -7.680   5.995  0.00  0.00    +0.025 A 
ATOM     27  C   UNL     1      -1.857  -6.847   4.940  0.00  0.00    +0.029 A 
BRANCH  22  38
ATOM     28  C   UNL     1       0.279   1.237  -0.257  0.00  0.00    -0.096 C 
ATOM     29  N   UNL     1       0.140  -0.225  -0.215  0.00  0.00    +0.380 N 
ATOM     30  C   UNL     1      -1.279  -0.575  -0.071  0.00  0.00    -0.060 C 
ATOM     31  C   UNL     1      -1.438  -2.098  -0.142  0.00  0.00    +0.089 C 
ATOM     32  N   UNL     1      -0.557  -2.706   0.867  0.00  0.00    -0.302 N 
ATOM     33  C   UNL     1       0.853  -2.287   0.900  0.00  0.00    +0.089 C 
ATOM     34  C   UNL     1       0.903  -0.755   0.922  0.00  0.00    -0.060 C 
ATOM     35  C   UNL     1      -1.044  -3.654   1.767  0.00  0.00    +0.237 A 
ATOM     36  N   UNL     1      -2.302  -4.106   1.817  0.00  0.00    -0.202 NA
ATOM     37  C   UNL     1      -2.418  -4.987   2.777  0.00  0.00    +0.227 A 
ATOM     38  N   UNL     1      -1.219  -5.120   3.373  0.00  0.00    -0.218 N 
ATOM     39  N   UNL     1      -0.342  -4.253   2.700  0.00  0.00    -0.129 NA
ATOM     40  H   UNL     1       0.496  -0.620  -1.072  0.00  0.00    -0.082 HD
ENDBRANCH  22  38
ENDBRANCH   1  25
TORSDOF 4
