REMARK  Name = CHEMBL585951
REMARK  4 active torsions:
REMARK  status: ('A' for Active; 'I' for Inactive)
REMARK    1  A    between atoms: C_3  and  N_27
REMARK    2  A    between atoms: C_6  and  N_7
REMARK    3  A    between atoms: C_12  and  C_14
REMARK    4  A    between atoms: C_16  and  N_21
REMARK                            x       y       z     vdW  Elec       q    Type
REMARK                         _______ _______ _______ _____ _____    ______ ____
ROOT
ATOM      1  N   UNL     1      -1.207  -0.723   0.079  0.00  0.00    -0.284 N 
ATOM      2  C   UNL     1      -1.190  -2.102  -0.047  0.00  0.00    +0.220 A 
ATOM      3  N   UNL     1      -0.025  -2.735  -0.054  0.00  0.00    -0.223 NA
ATOM      4  C   UNL     1       0.033  -4.052  -0.173  0.00  0.00    +0.116 A 
ATOM      5  C   UNL     1      -1.141  -4.774  -0.290  0.00  0.00    +0.048 A 
ATOM      6  C   UNL     1      -2.354  -4.080  -0.279  0.00  0.00    +0.076 A 
ATOM      7  N   UNL     1      -2.337  -2.755  -0.151  0.00  0.00    -0.214 NA
ATOM      8  H   UNL     1      -2.052  -0.254   0.166  0.00  0.00    +0.155 HD
ENDROOT
BRANCH   6   9
ATOM      9  C   UNL     1      -3.640  -4.808  -0.402  0.00  0.00    +0.005 A 
ATOM     10  C   UNL     1      -4.836  -4.100  -0.500  0.00  0.00    +0.033 A 
ATOM     11  C   UNL     1      -6.036  -4.786  -0.616  0.00  0.00    +0.033 A 
ATOM     12  C   UNL     1      -6.043  -6.176  -0.633  0.00  0.00    +0.061 A 
ATOM     13  C   UNL     1      -4.855  -6.878  -0.535  0.00  0.00    +0.126 A 
ATOM     14  C   UNL     1      -3.654  -6.201  -0.425  0.00  0.00    +0.048 A 
ATOM     15  F   UNL     1      -4.868  -8.229  -0.551  0.00  0.00    -0.205 F 
BRANCH  11  16
ATOM     16  N   UNL     1      -7.237  -4.080  -0.714  0.00  0.00    -0.325 N 
ATOM     17  C   UNL     1      -7.246  -2.613  -0.828  0.00  0.00    +0.133 C 
ATOM     18  C   UNL     1      -8.132  -2.226  -2.018  0.00  0.00    +0.178 C 
ATOM     19  O   UNL     1      -9.406  -2.860  -1.882  0.00  0.00    -0.377 OA
ATOM     20  C   UNL     1      -9.354  -4.289  -1.903  0.00  0.00    +0.178 C 
ATOM     21  C   UNL     1      -8.530  -4.782  -0.713  0.00  0.00    +0.133 C 
ENDBRANCH  11  16
ENDBRANCH   6   9
BRANCH   1  27
ATOM     22  C   UNL     1       1.071  -0.452  -0.676  0.00  0.00    +0.025 A 
ATOM     23  C   UNL     1       2.255   0.257  -0.675  0.00  0.00    +0.029 A 
ATOM     24  C   UNL     1       2.371   1.415   0.082  0.00  0.00    +0.067 A 
ATOM     25  C   UNL     1       1.295   1.861   0.838  0.00  0.00    +0.029 A 
ATOM     26  C   UNL     1       0.110   1.154   0.837  0.00  0.00    +0.025 A 
ATOM     27  C   UNL     1      -0.006  -0.005   0.080  0.00  0.00    +0.034 A 
BRANCH  24  28
ATOM     28  N   UNL     1       3.575   2.134   0.083  0.00  0.00    -0.218 N 
ATOM     29  C   UNL     1       4.663   1.885  -0.669  0.00  0.00    +0.227 A 
ATOM     30  N   UNL     1       5.575   2.778  -0.377  0.00  0.00    -0.202 NA
ATOM     31  C   UNL     1       5.107   3.613   0.556  0.00  0.00    +0.237 A 
ATOM     32  N   UNL     1       3.881   3.260   0.864  0.00  0.00    -0.129 NA
ATOM     33  N   UNL     1       5.806   4.688   1.108  0.00  0.00    -0.294 N 
ATOM     34  C   UNL     1       5.193   5.542   2.138  0.00  0.00    +0.136 C 
ATOM     35  C   UNL     1       6.168   5.655   3.315  0.00  0.00    +0.179 C 
ATOM     36  O   UNL     1       7.447   6.067   2.828  0.00  0.00    -0.377 OA
ATOM     37  C   UNL     1       8.056   5.141   1.926  0.00  0.00    +0.179 C 
ATOM     38  C   UNL     1       7.180   4.997   0.681  0.00  0.00    +0.136 C 
ENDBRANCH  24  28
ENDBRANCH   1  27
TORSDOF 4
