REMARK  Name = CHEMBL568116
REMARK  5 active torsions:
REMARK  status: ('A' for Active; 'I' for Inactive)
REMARK    1  A    between atoms: C_1  and  N_2
REMARK    2  A    between atoms: N_11  and  C_13
REMARK    3  A    between atoms: C_16  and  N_19
REMARK    4  A    between atoms: C_24  and  C_26
REMARK    5  A    between atoms: C_28  and  N_33
REMARK                            x       y       z     vdW  Elec       q    Type
REMARK                         _______ _______ _______ _____ _____    ______ ____
ROOT
ATOM      1  N   UNL     1       0.082  -8.808   7.220  0.00  0.00    -0.284 N 
ATOM      2  C   UNL     1      -0.847  -9.764   7.598  0.00  0.00    +0.220 A 
ATOM      3  N   UNL     1      -1.948  -9.916   6.877  0.00  0.00    -0.223 NA
ATOM      4  C   UNL     1      -2.859 -10.818   7.205  0.00  0.00    +0.116 A 
ATOM      5  C   UNL     1      -2.653 -11.613   8.320  0.00  0.00    +0.048 A 
ATOM      6  C   UNL     1      -1.483 -11.430   9.061  0.00  0.00    +0.076 A 
ATOM      7  N   UNL     1      -0.608 -10.507   8.668  0.00  0.00    -0.214 NA
ATOM      8  H   UNL     1       0.927  -8.741   7.690  0.00  0.00    +0.155 HD
ENDROOT
BRANCH   6   9
ATOM      9  C   UNL     1      -1.217 -12.256  10.263  0.00  0.00    +0.005 A 
ATOM     10  C   UNL     1      -0.103 -11.994  11.057  0.00  0.00    +0.033 A 
ATOM     11  C   UNL     1       0.141 -12.770  12.181  0.00  0.00    +0.033 A 
ATOM     12  C   UNL     1      -0.724 -13.806  12.512  0.00  0.00    +0.061 A 
ATOM     13  C   UNL     1      -1.830 -14.066  11.723  0.00  0.00    +0.126 A 
ATOM     14  C   UNL     1      -2.083 -13.293  10.604  0.00  0.00    +0.048 A 
ATOM     15  F   UNL     1      -2.668 -15.075  12.048  0.00  0.00    -0.205 F 
BRANCH  11  16
ATOM     16  N   UNL     1       1.258 -12.510  12.980  0.00  0.00    -0.325 N 
ATOM     17  C   UNL     1       2.115 -11.342  12.726  0.00  0.00    +0.133 C 
ATOM     18  C   UNL     1       2.298 -10.580  14.044  0.00  0.00    +0.178 C 
ATOM     19  O   UNL     1       2.745 -11.488  15.054  0.00  0.00    -0.377 OA
ATOM     20  C   UNL     1       1.817 -12.535  15.351  0.00  0.00    +0.178 C 
ATOM     21  C   UNL     1       1.607 -13.393  14.104  0.00  0.00    +0.133 C 
ENDBRANCH  11  16
ENDBRANCH   6   9
BRANCH   1  25
ATOM     22  C   UNL     1      -0.759  -6.221   4.062  0.00  0.00    +0.067 A 
ATOM     23  C   UNL     1      -1.784  -6.669   4.884  0.00  0.00    +0.029 A 
ATOM     24  C   UNL     1      -1.506  -7.526   5.929  0.00  0.00    +0.025 A 
ATOM     25  C   UNL     1      -0.201  -7.940   6.160  0.00  0.00    +0.034 A 
ATOM     26  C   UNL     1       0.825  -7.492   5.337  0.00  0.00    +0.025 A 
ATOM     27  C   UNL     1       0.546  -6.640   4.288  0.00  0.00    +0.029 A 
BRANCH  22  38
ATOM     28  C   UNL     1      -6.160  -2.766  -1.817  0.00  0.00    +0.105 C 
ATOM     29  N   UNL     1      -5.152  -2.619  -0.758  0.00  0.00    -0.302 NA
ATOM     30  C   UNL     1      -3.797  -2.812  -1.291  0.00  0.00    +0.103 C 
ATOM     31  C   UNL     1      -2.771  -2.473  -0.204  0.00  0.00    +0.123 C 
ATOM     32  N   UNL     1      -3.086  -3.262   0.997  0.00  0.00    -0.296 N 
ATOM     33  C   UNL     1      -4.463  -3.227   1.512  0.00  0.00    +0.123 C 
ATOM     34  C   UNL     1      -5.422  -3.536   0.357  0.00  0.00    +0.103 C 
ATOM     35  C   UNL     1      -2.103  -4.023   1.631  0.00  0.00    +0.237 A 
ATOM     36  N   UNL     1      -0.825  -4.118   1.250  0.00  0.00    -0.202 NA
ATOM     37  C   UNL     1      -0.178  -4.913   2.064  0.00  0.00    +0.227 A 
ATOM     38  N   UNL     1      -1.042  -5.350   2.999  0.00  0.00    -0.218 N 
ATOM     39  N   UNL     1      -2.280  -4.759   2.704  0.00  0.00    -0.129 NA
ENDBRANCH  22  38
ENDBRANCH   1  25
TORSDOF 4
