REMARK  Name = CHEMBL253174
REMARK  1 active torsions:
REMARK  status: ('A' for Active; 'I' for Inactive)
REMARK    1  A    between atoms: C_13  and  N_18
REMARK                            x       y       z     vdW  Elec       q    Type
REMARK                         _______ _______ _______ _____ _____    ______ ____
ROOT
ATOM      1  C   UNL     1      -0.017   1.379   0.010  0.00  0.00    +0.001 A 
ATOM      2  C   UNL     1       1.165   2.107   0.002  0.00  0.00    +0.001 A 
ATOM      3  C   UNL     1       2.392   1.471  -0.015  0.00  0.00    +0.012 A 
ATOM      4  C   UNL     1       2.433   0.084  -0.023  0.00  0.00    +0.027 A 
ATOM      5  C   UNL     1       1.221  -0.661  -0.013  0.00  0.00    +0.008 A 
ATOM      6  C   UNL     1       0.002  -0.004   0.002  0.00  0.00    +0.010 A 
ATOM      7  C   UNL     1       1.367  -2.129  -0.017  0.00  0.00    +0.067 C 
ATOM      8  N   UNL     1       0.530  -2.957   0.553  0.00  0.00    -0.214 NA
ATOM      9  S   UNL     1       1.226  -4.484   0.574  0.00  0.00    +0.008 S 
ATOM     10  C   UNL     1       2.851  -4.056   0.013  0.00  0.00    +0.018 C 
ATOM     11  C   UNL     1       4.037  -4.602   0.174  0.00  0.00    +0.014 C 
ATOM     12  C   UNL     1       5.186  -3.867  -0.392  0.00  0.00    +0.020 C 
ATOM     13  C   UNL     1       5.014  -2.639  -0.890  0.00  0.00    +0.013 C 
ATOM     14  C   UNL     1       3.719  -1.909  -0.929  0.00  0.00    +0.118 C 
ATOM     15  C   UNL     1       2.512  -2.792  -0.751  0.00  0.00    +0.093 C 
ATOM     16  C   UNL     1       3.684  -0.695  -0.043  0.00  0.00    +0.173 C 
ATOM     17  O   UNL     1       4.644  -0.370   0.625  0.00  0.00    -0.291 OA
ENDROOT
BRANCH  13  18
ATOM     18  N   UNL     1       6.128  -1.996  -1.411  0.00  0.00    -0.361 N 
ATOM     19  H   UNL     1       6.990  -2.439  -1.403  0.00  0.00    +0.142 HD
ATOM     20  H   UNL     1       6.043  -1.104  -1.781  0.00  0.00    +0.142 HD
ENDBRANCH  13  18
TORSDOF 1
