REMARK  Name = CHEMBL383678
REMARK  4 active torsions:
REMARK  status: ('A' for Active; 'I' for Inactive)
REMARK    1  A    between atoms: C_1  and  C_2
REMARK    2  A    between atoms: C_9  and  C_10
REMARK    3  A    between atoms: C_15  and  C_19
REMARK    4  A    between atoms: N_25  and  C_26
REMARK                            x       y       z     vdW  Elec       q    Type
REMARK                         _______ _______ _______ _____ _____    ______ ____
ROOT
ATOM      1  C   UNL     1      -1.046  -4.741  -0.390  0.00  0.00    +0.239 C 
ATOM      2  O   UNL     1      -1.240  -5.919  -0.181  0.00  0.00    -0.273 OA
ATOM      3  N   UNL     1      -0.726  -3.919   0.630  0.00  0.00    -0.269 N 
ATOM      4  C   UNL     1      -0.518  -4.441   1.906  0.00  0.00    +0.125 A 
ATOM      5  C   UNL     1      -0.082  -3.606   2.926  0.00  0.00    +0.052 A 
ATOM      6  C   UNL     1       0.121  -4.143   4.197  0.00  0.00    -0.013 A 
ATOM      7  C   UNL     1      -0.126  -5.506   4.388  0.00  0.00    +0.028 A 
ATOM      8  C   UNL     1      -0.558  -6.266   3.322  0.00  0.00    +0.113 A 
ATOM      9  N   UNL     1      -0.745  -5.725   2.133  0.00  0.00    -0.240 NA
ATOM     10  H   UNL     1      -0.640  -2.966   0.475  0.00  0.00    +0.156 HD
ENDROOT
BRANCH   1  19
ATOM     11  C   UNL     1       1.134  -6.925  -3.199  0.00  0.00    +0.109 C 
ATOM     12  C   UNL     1       0.416  -6.012  -2.239  0.00  0.00    +0.213 C 
ATOM     13  O   UNL     1       0.548  -6.164  -1.043  0.00  0.00    -0.276 OA
ATOM     14  N   UNL     1      -0.373  -5.025  -2.710  0.00  0.00    -0.290 N 
ATOM     15  C   UNL     1      -0.466  -4.765  -4.153  0.00  0.00    +0.108 C 
ATOM     16  C   UNL     1      -1.941  -4.786  -4.564  0.00  0.00    +0.019 C 
ATOM     17  C   UNL     1      -2.723  -3.798  -3.695  0.00  0.00    +0.004 C 
ATOM     18  C   UNL     1      -2.624  -4.218  -2.227  0.00  0.00    +0.032 C 
ATOM     19  C   UNL     1      -1.161  -4.194  -1.790  0.00  0.00    +0.162 C 
ENDBRANCH   1  19
BRANCH   6  20
ATOM     20  C   UNL     1       0.588  -3.289   5.319  0.00  0.00    -0.013 A 
ATOM     21  C   UNL     1       0.830  -1.924   5.129  0.00  0.00    +0.028 A 
ATOM     22  C   UNL     1       1.262  -1.163   6.194  0.00  0.00    +0.113 A 
ATOM     23  N   UNL     1       1.449  -1.704   7.384  0.00  0.00    -0.240 NA
ATOM     24  C   UNL     1       1.232  -2.991   7.609  0.00  0.00    +0.123 A 
ATOM     25  C   UNL     1       0.790  -3.825   6.589  0.00  0.00    +0.052 A 
ATOM     26  N   UNL     1       1.445  -3.512   8.881  0.00  0.00    -0.299 N 
ATOM     27  H   UNL     1       1.370  -4.467   9.033  0.00  0.00    +0.154 HD
BRANCH  26  28
ATOM     28  C   UNL     1       1.766  -2.660   9.941  0.00  0.00    +0.032 A 
ATOM     29  C   UNL     1       1.230  -1.379   9.991  0.00  0.00    +0.023 A 
ATOM     30  C   UNL     1       1.550  -0.539  11.040  0.00  0.00    +0.002 A 
ATOM     31  C   UNL     1       2.402  -0.972  12.040  0.00  0.00    +0.000 A 
ATOM     32  C   UNL     1       2.937  -2.246  11.993  0.00  0.00    +0.002 A 
ATOM     33  C   UNL     1       2.618  -3.093  10.950  0.00  0.00    +0.023 A 
ENDBRANCH  26  28
ENDBRANCH   6  20
TORSDOF 3
