REMARK  Name = CHEMBL252762
REMARK  5 active torsions:
REMARK  status: ('A' for Active; 'I' for Inactive)
REMARK    1  A    between atoms: C_6  and  C_7
REMARK    2  A    between atoms: C_8  and  C_22
REMARK    3  A    between atoms: C_14  and  C_16
REMARK    4  A    between atoms: C_16  and  N_17
REMARK    5  A    between atoms: N_28  and  C_29
REMARK                            x       y       z     vdW  Elec       q    Type
REMARK                         _______ _______ _______ _____ _____    ______ ____
ROOT
ATOM      1  C   UNL     1      -1.269  -0.765   0.011  0.00  0.00    +0.074 A 
ATOM      2  C   UNL     1      -1.562  -1.862   0.800  0.00  0.00    +0.093 A 
ATOM      3  N   UNL     1      -2.851  -2.237   0.473  0.00  0.00    -0.323 N 
ATOM      4  C   UNL     1      -3.290  -1.387  -0.475  0.00  0.00    +0.088 A 
ATOM      5  N   UNL     1      -2.352  -0.512  -0.742  0.00  0.00    -0.343 N 
ATOM      6  C   UNL     1      -4.705  -1.754  -0.880  0.00  0.00    +0.074 C 
ATOM      7  C   UNL     1      -4.893  -3.193  -0.349  0.00  0.00    +0.034 C 
ATOM      8  C   UNL     1      -3.877  -3.233   0.813  0.00  0.00    +0.109 C 
ATOM      9  H   UNL     1      -2.428   0.208  -1.388  0.00  0.00    +0.167 HD
ENDROOT
BRANCH   2  10
ATOM     10  C   UNL     1      -0.677  -2.503   1.789  0.00  0.00    +0.094 A 
ATOM     11  C   UNL     1      -1.215  -3.237   2.855  0.00  0.00    +0.050 A 
ATOM     12  C   UNL     1      -0.345  -3.820   3.757  0.00  0.00    +0.116 A 
ATOM     13  N   UNL     1       0.961  -3.669   3.589  0.00  0.00    -0.223 NA
ATOM     14  C   UNL     1       1.443  -2.969   2.572  0.00  0.00    +0.216 A 
ATOM     15  N   UNL     1       0.649  -2.398   1.681  0.00  0.00    -0.213 NA
ATOM     16  N   UNL     1       2.814  -2.837   2.436  0.00  0.00    -0.311 N 
ATOM     17  H   UNL     1       3.181  -2.328   1.696  0.00  0.00    +0.149 HD
BRANCH  16  18
ATOM     18  C   UNL     1       3.711  -3.466   3.408  0.00  0.00    +0.073 C 
ATOM     19  C   UNL     1       4.391  -2.465   4.357  0.00  0.00    +0.022 C 
ATOM     20  C   UNL     1       5.667  -3.311   4.209  0.00  0.00    +0.004 C 
ATOM     21  C   UNL     1       5.112  -3.767   2.849  0.00  0.00    +0.022 C 
ENDBRANCH  16  18
ENDBRANCH   2  10
BRANCH   1  27
ATOM     22  C   UNL     1      -0.017   1.391   0.010  0.00  0.00    +0.013 A 
ATOM     23  C   UNL     1       1.170   2.094   0.002  0.00  0.00    +0.039 A 
ATOM     24  C   UNL     1       2.379   1.418  -0.013  0.00  0.00    +0.123 A 
ATOM     25  C   UNL     1       2.403   0.032  -0.022  0.00  0.00    +0.039 A 
ATOM     26  C   UNL     1       1.222  -0.680  -0.014  0.00  0.00    +0.013 A 
ATOM     27  C   UNL     1       0.002  -0.004   0.002  0.00  0.00    +0.001 A 
ATOM     28  F   UNL     1       3.538   2.111  -0.021  0.00  0.00    -0.205 F 
ENDBRANCH   1  27
BRANCH   8  29
ATOM     29  C   UNL     1      -3.249  -4.625   0.920  0.00  0.00    +0.147 C 
BRANCH  29  30
ATOM     30  N   UNL     1      -4.260  -5.583   1.375  0.00  0.00    -0.335 N 
ATOM     31  C   UNL     1      -4.547  -5.905   2.673  0.00  0.00    +0.107 A 
ATOM     32  C   UNL     1      -5.535  -6.820   2.639  0.00  0.00    +0.130 A 
ATOM     33  N   UNL     1      -5.842  -7.050   1.354  0.00  0.00    -0.244 NA
ATOM     34  C   UNL     1      -5.086  -6.309   0.591  0.00  0.00    +0.199 A 
ENDBRANCH  29  30
ENDBRANCH   8  29
TORSDOF 5
