REMARK  Name = CHEMBL1094014
REMARK  8 active torsions:
REMARK  status: ('A' for Active; 'I' for Inactive)
REMARK    1  A    between atoms: C_1  and  N_2
REMARK    2  A    between atoms: N_2  and  C_3
REMARK    3  A    between atoms: N_2  and  C_4
REMARK    4  A    between atoms: C_5  and  C_16
REMARK    5  A    between atoms: N_8  and  C_9
REMARK    6  A    between atoms: C_9  and  C_10
REMARK    7  A    between atoms: N_22  and  C_23
REMARK    8  A    between atoms: C_26  and  O_29
REMARK                            x       y       z     vdW  Elec       q    Type
REMARK                         _______ _______ _______ _____ _____    ______ ____
ROOT
ATOM      1  C   UNL     1       0.150  -0.838  -1.722  0.00  0.00    +0.127 A 
ATOM      2  C   UNL     1       0.105  -2.171  -2.104  0.00  0.00    +0.057 A 
ATOM      3  C   UNL     1      -0.130  -2.197  -3.495  0.00  0.00    +0.115 A 
ATOM      4  N   UNL     1      -0.219  -0.965  -3.917  0.00  0.00    -0.302 N 
ATOM      5  N   UNL     1      -0.055  -0.097  -2.832  0.00  0.00    -0.268 N 
ATOM      6  H   UNL     1      -0.378  -0.695  -4.835  0.00  0.00    +0.186 HD
ENDROOT
BRANCH   2   7
ATOM      7  C   UNL     1       0.272  -3.344  -1.220  0.00  0.00    +0.081 A 
ATOM      8  C   UNL     1       0.106  -4.641  -1.720  0.00  0.00    +0.048 A 
ATOM      9  C   UNL     1       0.272  -5.706  -0.857  0.00  0.00    +0.116 A 
ATOM     10  N   UNL     1       0.583  -5.471   0.410  0.00  0.00    -0.223 NA
ATOM     11  C   UNL     1       0.734  -4.234   0.858  0.00  0.00    +0.216 A 
ATOM     12  N   UNL     1       0.589  -3.184   0.065  0.00  0.00    -0.214 NA
ATOM     13  N   UNL     1       1.058  -4.033   2.189  0.00  0.00    -0.311 N 
ATOM     14  H   UNL     1       1.173  -3.132   2.530  0.00  0.00    +0.149 HD
BRANCH  13  15
ATOM     15  C   UNL     1       1.229  -5.182   3.082  0.00  0.00    +0.073 C 
ATOM     16  C   UNL     1      -0.134  -5.609   3.630  0.00  0.00    +0.025 C 
ATOM     17  C   UNL     1       0.045  -6.808   4.563  0.00  0.00    +0.033 C 
ATOM     18  C   UNL     1       0.962  -6.419   5.724  0.00  0.00    +0.115 C 
ATOM     19  C   UNL     1       2.325  -5.992   5.176  0.00  0.00    +0.033 C 
ATOM     20  C   UNL     1       2.147  -4.793   4.243  0.00  0.00    +0.025 C 
BRANCH  18  21
ATOM     21  O   UNL     1       1.129  -7.540   6.595  0.00  0.00    -0.392 OA
ATOM     22  H   UNL     1       1.700  -7.365   7.356  0.00  0.00    +0.210 HD
ENDBRANCH  18  21
ENDBRANCH  13  15
ENDBRANCH   2   7
BRANCH   1  24
ATOM     23  C   UNL     1      -0.784  -0.012   0.409  0.00  0.00    +0.130 C 
ATOM     24  N   UNL     1       0.359  -0.357  -0.439  0.00  0.00    -0.321 N 
ATOM     25  C   UNL     1       1.724  -0.195   0.068  0.00  0.00    +0.130 C 
ENDBRANCH   1  24
BRANCH   5  26
ATOM     26  C   UNL     1      -0.095   1.366  -2.891  0.00  0.00    +0.178 C 
BRANCH  26  27
ATOM     27  C   UNL     1       1.304   1.901  -3.059  0.00  0.00    -0.026 A 
ATOM     28  C   UNL     1       2.026   2.308  -1.952  0.00  0.00    +0.005 A 
ATOM     29  C   UNL     1       3.309   2.798  -2.107  0.00  0.00    +0.000 A 
ATOM     30  C   UNL     1       3.871   2.880  -3.367  0.00  0.00    +0.000 A 
ATOM     31  C   UNL     1       3.150   2.472  -4.473  0.00  0.00    +0.000 A 
ATOM     32  C   UNL     1       1.868   1.978  -4.319  0.00  0.00    +0.005 A 
ENDBRANCH  26  27
ENDBRANCH   5  26
TORSDOF 6
