REMARK  Name = CHEMBL370516
REMARK  7 active torsions:
REMARK  status: ('A' for Active; 'I' for Inactive)
REMARK    1  A    between atoms: C_1  and  O_2
REMARK    2  A    between atoms: O_2  and  C_3
REMARK    3  A    between atoms: C_6  and  C_9
REMARK    4  A    between atoms: C_9  and  C_10
REMARK    5  A    between atoms: C_10  and  N_11
REMARK    6  A    between atoms: C_16  and  C_18
REMARK    7  A    between atoms: C_18  and  C_28
REMARK                            x       y       z     vdW  Elec       q    Type
REMARK                         _______ _______ _______ _____ _____    ______ ____
ROOT
ATOM      1  N   UNL     1       2.249  -3.470   6.551  0.00  0.00    -0.313 N 
ATOM      2  C   UNL     1       1.534  -3.805   7.687  0.00  0.00    +0.216 A 
ATOM      3  N   UNL     1       0.239  -3.524   7.741  0.00  0.00    -0.223 NA
ATOM      4  C   UNL     1      -0.483  -3.829   8.811  0.00  0.00    +0.116 A 
ATOM      5  C   UNL     1       0.125  -4.448   9.883  0.00  0.00    +0.049 A 
ATOM      6  C   UNL     1       1.495  -4.734   9.800  0.00  0.00    +0.089 A 
ATOM      7  N   UNL     1       2.158  -4.403   8.690  0.00  0.00    -0.214 NA
ATOM      8  H   UNL     1       3.196  -3.673   6.497  0.00  0.00    +0.149 HD
ENDROOT
BRANCH   6   9
ATOM      9  C   UNL     1       2.192  -5.394  10.919  0.00  0.00    +0.105 C 
ATOM     10  C   UNL     1       3.556  -5.674  10.824  0.00  0.00    +0.090 C 
ATOM     11  N   UNL     1       4.414  -5.413   9.794  0.00  0.00    -0.307 N 
ATOM     12  C   UNL     1       5.746  -5.771   9.890  0.00  0.00    +0.046 A 
ATOM     13  C   UNL     1       6.755  -5.577   8.930  0.00  0.00    +0.024 A 
ATOM     14  C   UNL     1       8.044  -5.990   9.169  0.00  0.00    +0.002 A 
ATOM     15  C   UNL     1       8.393  -6.608  10.358  0.00  0.00    +0.001 A 
ATOM     16  C   UNL     1       7.420  -6.811  11.322  0.00  0.00    +0.017 A 
ATOM     17  C   UNL     1       6.130  -6.399  11.084  0.00  0.00    +0.035 A 
ATOM     18  S   UNL     1       4.623  -6.456  12.022  0.00  0.00    -0.071 S 
ATOM     19  H   UNL     1       4.087  -4.975   8.992  0.00  0.00    +0.153 HD
BRANCH   9  20
ATOM     20  C   UNL     1       1.468  -5.749  12.103  0.00  0.00    +0.104 C 
ATOM     21  N   UNL     1       0.895  -6.031  13.042  0.00  0.00    -0.191 NA
ENDBRANCH   9  20
ENDBRANCH   6   9
BRANCH   1  22
ATOM     22  C   UNL     1       1.577  -2.808   5.431  0.00  0.00    +0.109 C 
BRANCH  22  23
ATOM     23  C   UNL     1       2.587  -2.550   4.310  0.00  0.00    +0.054 C 
BRANCH  23  27
ATOM     24  C   UNL     1       0.626  -0.618   1.042  0.00  0.00    +0.120 A 
ATOM     25  C   UNL     1       1.202   0.138   2.051  0.00  0.00    +0.046 A 
ATOM     26  C   UNL     1       1.835  -0.488   3.107  0.00  0.00    +0.007 A 
ATOM     27  C   UNL     1       1.895  -1.869   3.158  0.00  0.00    -0.046 A 
ATOM     28  C   UNL     1       1.322  -2.625   2.152  0.00  0.00    +0.007 A 
ATOM     29  C   UNL     1       0.682  -2.003   1.098  0.00  0.00    +0.046 A 
BRANCH  24  31
ATOM     30  C   UNL     1      -0.017   1.425   0.010  0.00  0.00    +0.277 C 
ATOM     31  O   UNL     1       0.002  -0.004   0.002  0.00  0.00    -0.495 OA
ENDBRANCH  24  31
ENDBRANCH  23  27
ENDBRANCH  22  23
ENDBRANCH   1  22
TORSDOF 6
