REMARK  Name = CHEMBL363600
REMARK  6 active torsions:
REMARK  status: ('A' for Active; 'I' for Inactive)
REMARK    1  A    between atoms: C_4  and  C_7
REMARK    2  A    between atoms: C_7  and  C_8
REMARK    3  A    between atoms: C_15  and  C_17
REMARK    4  A    between atoms: C_17  and  O_18
REMARK    5  A    between atoms: C_21  and  C_35
REMARK    6  A    between atoms: C_22  and  C_25
REMARK                            x       y       z     vdW  Elec       q    Type
REMARK                         _______ _______ _______ _____ _____    ______ ____
ROOT
ATOM      1  C   UNL     1       5.158  -0.904   0.851  0.00  0.00    +0.098 C 
ATOM      2  C   UNL     1       6.380  -1.689   1.344  0.00  0.00    +0.129 C 
ATOM      3  N   UNL     1       6.370  -1.698   2.814  0.00  0.00    -0.310 N 
ATOM      4  C   UNL     1       6.315  -0.416   3.530  0.00  0.00    +0.125 C 
ATOM      5  C   UNL     1       5.093   0.369   3.036  0.00  0.00    +0.127 C 
ATOM      6  N   UNL     1       5.099   0.378   1.566  0.00  0.00    -0.293 N 
ATOM      7  C   UNL     1       5.056   1.542   0.887  0.00  0.00    +0.241 C 
ATOM      8  O   UNL     1       5.154   1.542  -0.322  0.00  0.00    -0.273 OA
ATOM      9  C   UNL     1       6.412  -2.898   3.514  0.00  0.00    +0.144 A 
ATOM     10  C   UNL     1       6.685  -4.088   2.841  0.00  0.00    +0.056 A 
ATOM     11  C   UNL     1       6.717  -5.267   3.587  0.00  0.00    +0.013 A 
ATOM     12  C   UNL     1       6.471  -5.173   4.972  0.00  0.00    +0.102 A 
ATOM     13  N   UNL     1       6.220  -3.989   5.515  0.00  0.00    -0.147 NA
ATOM     14  N   UNL     1       6.197  -2.910   4.822  0.00  0.00    -0.134 NA
ENDROOT
BRANCH  12  15
ATOM     15  C   UNL     1       6.491  -6.389   5.815  0.00  0.00    +0.010 A 
ATOM     16  C   UNL     1       5.763  -7.508   5.447  0.00  0.00    +0.011 A 
ATOM     17  C   UNL     1       5.777  -8.653   6.234  0.00  0.00    +0.001 A 
ATOM     18  C   UNL     1       6.503  -8.709   7.385  0.00  0.00    +0.008 A 
ATOM     19  C   UNL     1       7.257  -7.596   7.797  0.00  0.00    -0.017 A 
ATOM     20  C   UNL     1       7.259  -6.423   7.004  0.00  0.00    -0.009 A 
ATOM     21  C   UNL     1       8.016  -5.315   7.413  0.00  0.00    +0.009 A 
ATOM     22  C   UNL     1       8.743  -5.383   8.562  0.00  0.00    +0.001 A 
ATOM     23  C   UNL     1       8.748  -6.539   9.340  0.00  0.00    +0.001 A 
ATOM     24  C   UNL     1       8.015  -7.628   8.980  0.00  0.00    +0.008 A 
ENDBRANCH  12  15
BRANCH  11  25
ATOM     25  C   UNL     1       7.001  -6.572   2.944  0.00  0.00    -0.013 A 
ATOM     26  C   UNL     1       8.039  -7.388   3.403  0.00  0.00    +0.028 A 
ATOM     27  C   UNL     1       8.268  -8.596   2.777  0.00  0.00    +0.111 A 
ATOM     28  N   UNL     1       7.523  -8.983   1.759  0.00  0.00    -0.263 NA
ATOM     29  C   UNL     1       6.534  -8.244   1.296  0.00  0.00    +0.111 A 
ATOM     30  C   UNL     1       6.233  -7.024   1.867  0.00  0.00    +0.028 A 
ENDBRANCH  11  25
BRANCH   1  31
ATOM     31  C   UNL     1       5.285  -0.648  -0.652  0.00  0.00    +0.059 C 
BRANCH  31  35
ATOM     32  C   UNL     1       5.256  -4.373  -2.742  0.00  0.00    +0.000 A 
ATOM     33  C   UNL     1       4.063  -3.770  -2.388  0.00  0.00    +0.000 A 
ATOM     34  C   UNL     1       4.073  -2.564  -1.711  0.00  0.00    +0.004 A 
ATOM     35  C   UNL     1       5.275  -1.962  -1.389  0.00  0.00    -0.046 A 
ATOM     36  C   UNL     1       6.467  -2.566  -1.742  0.00  0.00    +0.004 A 
ATOM     37  C   UNL     1       6.457  -3.771  -2.420  0.00  0.00    +0.000 A 
ENDBRANCH  31  35
ENDBRANCH   1  31
BRANCH   7  38
ATOM     38  C   UNL     1       4.886   2.842   1.630  0.00  0.00    +0.251 C 
BRANCH  38  39
ATOM     39  O   UNL     1       4.870   3.925   0.697  0.00  0.00    -0.386 OA
ATOM     40  H   UNL     1       4.763   4.794   1.106  0.00  0.00    +0.210 HD
ENDBRANCH  38  39
ENDBRANCH   7  38
TORSDOF 6
