REMARK  Name = CHEMBL254651
REMARK  6 active torsions:
REMARK  status: ('A' for Active; 'I' for Inactive)
REMARK    1  A    between atoms: C_8  and  C_10
REMARK    2  A    between atoms: C_10  and  C_11
REMARK    3  A    between atoms: C_10  and  C_13
REMARK    4  A    between atoms: N_19  and  C_20
REMARK    5  A    between atoms: C_20  and  C_21
REMARK    6  A    between atoms: C_21  and  C_22
REMARK                            x       y       z     vdW  Elec       q    Type
REMARK                         _______ _______ _______ _____ _____    ______ ____
ROOT
ATOM      1  C   UNL     1       3.910  -4.269   1.171  0.00  0.00    +0.070 A 
ATOM      2  C   UNL     1       5.274  -4.020   1.168  0.00  0.00    +0.045 A 
ATOM      3  C   UNL     1       6.002  -4.307   2.312  0.00  0.00    +0.116 A 
ATOM      4  N   UNL     1       5.379  -4.807   3.366  0.00  0.00    -0.223 NA
ATOM      5  C   UNL     1       4.074  -5.034   3.336  0.00  0.00    +0.215 A 
ATOM      6  N   UNL     1       3.348  -4.766   2.260  0.00  0.00    -0.218 NA
ATOM      7  N   UNL     1       3.453  -5.559   4.456  0.00  0.00    -0.313 N 
ATOM      8  H   UNL     1       2.498  -5.729   4.447  0.00  0.00    +0.149 HD
ENDROOT
BRANCH   1   9
ATOM      9  C   UNL     1       3.078  -3.972  -0.050  0.00  0.00    +0.195 C 
BRANCH   9  17
ATOM     10  C   UNL     1      -0.016   1.357   0.009  0.00  0.00    +0.002 A 
ATOM     11  C   UNL     1       1.156   2.100   0.002  0.00  0.00    +0.001 A 
ATOM     12  C   UNL     1       2.375   1.449  -0.013  0.00  0.00    +0.017 A 
ATOM     13  C   UNL     1       2.404   0.076  -0.021  0.00  0.00    +0.039 A 
ATOM     14  C   UNL     1       1.226  -0.705  -0.013  0.00  0.00    +0.079 A 
ATOM     15  C   UNL     1       0.002  -0.004   0.002  0.00  0.00    +0.029 A 
ATOM     16  N   UNL     1       1.464  -2.033  -0.023  0.00  0.00    -0.242 NA
ATOM     17  C   UNL     1       2.669  -2.521  -0.038  0.00  0.00    +0.102 A 
ATOM     18  S   UNL     1       3.669  -1.167  -0.040  0.00  0.00    -0.070 S 
ENDBRANCH   9  17
BRANCH   9  19
ATOM     19  C   UNL     1       3.867  -4.249  -1.261  0.00  0.00    +0.079 C 
ATOM     20  N   UNL     1       4.476  -4.463  -2.196  0.00  0.00    -0.195 NA
ENDBRANCH   9  19
ENDBRANCH   1   9
BRANCH   7  21
ATOM     21  C   UNL     1       4.239  -5.857   5.656  0.00  0.00    +0.110 C 
BRANCH  21  22
ATOM     22  C   UNL     1       3.319  -6.422   6.740  0.00  0.00    +0.073 C 
BRANCH  22  23
ATOM     23  C   UNL     1       4.127  -6.729   7.975  0.00  0.00    +0.035 A 
ATOM     24  C   UNL     1       4.817  -7.862   8.208  0.00  0.00    +0.105 A 
ATOM     25  N   UNL     1       5.401  -7.724   9.438  0.00  0.00    -0.352 N 
ATOM     26  H   UNL     1       5.964  -8.376   9.884  0.00  0.00    +0.166 HD
ATOM     27  C   UNL     1       5.047  -6.511   9.914  0.00  0.00    +0.171 A 
ATOM     28  N   UNL     1       4.289  -5.920   9.032  0.00  0.00    -0.350 N 
ATOM     29  H   UNL     1       3.902  -5.035   9.126  0.00  0.00    +0.166 HD
ENDBRANCH  22  23
ENDBRANCH  21  22
ENDBRANCH   7  21
TORSDOF 6
