REMARK  Name = CHEMBL1089007
REMARK  4 active torsions:
REMARK  status: ('A' for Active; 'I' for Inactive)
REMARK    1  A    between atoms: C_6  and  C_7
REMARK    2  A    between atoms: C_12  and  C_13
REMARK    3  A    between atoms: N_19  and  C_20
REMARK    4  A    between atoms: C_23  and  O_26
REMARK                            x       y       z     vdW  Elec       q    Type
REMARK                         _______ _______ _______ _____ _____    ______ ____
ROOT
ATOM      1  C   UNL     1      -0.017   1.394   0.010  0.00  0.00    +0.048 A 
ATOM      2  C   UNL     1       1.190   2.069   0.002  0.00  0.00    +0.116 A 
ATOM      3  N   UNL     1       2.319   1.378  -0.013  0.00  0.00    -0.223 NA
ATOM      4  C   UNL     1       2.308   0.053  -0.020  0.00  0.00    +0.216 A 
ATOM      5  N   UNL     1       1.175  -0.633  -0.013  0.00  0.00    -0.214 NA
ATOM      6  C   UNL     1       0.002  -0.004   0.002  0.00  0.00    +0.079 A 
ATOM      7  N   UNL     1       3.511  -0.632  -0.035  0.00  0.00    -0.311 N 
ATOM      8  H   UNL     1       3.517  -1.602  -0.040  0.00  0.00    +0.149 HD
ENDROOT
BRANCH   6   9
ATOM      9  C   UNL     1      -1.264  -0.774   0.011  0.00  0.00    +0.041 A 
ATOM     10  C   UNL     1      -2.567  -0.235   0.026  0.00  0.00    +0.144 A 
ATOM     11  N   UNL     1      -3.416  -1.228   0.029  0.00  0.00    -0.181 NA
ATOM     12  H   UNL     1      -3.079  -3.321   0.015  0.00  0.00    +0.189 HD
ATOM     13  N   UNL     1      -2.696  -2.429   0.016  0.00  0.00    -0.281 N 
ATOM     14  C   UNL     1      -1.383  -2.135  -0.001  0.00  0.00    +0.050 A 
BRANCH  14  15
ATOM     15  C   UNL     1      -0.248  -3.127  -0.026  0.00  0.00    +0.064 C 
ATOM     16  C   UNL     1      -0.326  -4.024   1.213  0.00  0.00    +0.014 C 
ATOM     17  C   UNL     1       0.784  -5.077   1.138  0.00  0.00    +0.029 C 
ATOM     18  C   UNL     1       0.638  -5.869  -0.164  0.00  0.00    +0.160 C 
ATOM     19  O   UNL     1       0.688  -4.971  -1.274  0.00  0.00    -0.379 OA
ATOM     20  C   UNL     1      -0.354  -3.994  -1.282  0.00  0.00    +0.169 C 
ENDBRANCH  14  15
ENDBRANCH   6   9
BRANCH   7  21
ATOM     21  C   UNL     1       4.775   0.109  -0.043  0.00  0.00    +0.073 C 
ATOM     22  C   UNL     1       5.138   0.482  -1.482  0.00  0.00    +0.025 C 
ATOM     23  C   UNL     1       6.458   1.256  -1.490  0.00  0.00    +0.033 C 
ATOM     24  C   UNL     1       7.564   0.382  -0.895  0.00  0.00    +0.115 C 
ATOM     25  C   UNL     1       7.201   0.008   0.543  0.00  0.00    +0.033 C 
ATOM     26  C   UNL     1       5.881  -0.765   0.551  0.00  0.00    +0.025 C 
BRANCH  24  27
ATOM     27  O   UNL     1       8.797   1.105  -0.903  0.00  0.00    -0.392 OA
ATOM     28  H   UNL     1       9.545   0.611  -0.540  0.00  0.00    +0.210 HD
ENDBRANCH  24  27
ENDBRANCH   7  21
TORSDOF 4
