REMARK  Name = CHEMBL400054
REMARK  3 active torsions:
REMARK  status: ('A' for Active; 'I' for Inactive)
REMARK    1  A    between atoms: C_8  and  C_10
REMARK    2  A    between atoms: C_13  and  N_20
REMARK    3  A    between atoms: C_21  and  C_23
REMARK                            x       y       z     vdW  Elec       q    Type
REMARK                         _______ _______ _______ _____ _____    ______ ____
ROOT
ATOM      1  C   UNL     1       3.192  -4.000  -0.024  0.00  0.00    +0.107 A 
ATOM      2  C   UNL     1       4.371  -4.530  -0.719  0.00  0.00    +0.030 A 
ATOM      3  C   UNL     1       5.364  -3.955  -1.516  0.00  0.00    +0.035 A 
ATOM      4  C   UNL     1       6.366  -4.751  -2.035  0.00  0.00    +0.034 A 
ATOM      5  C   UNL     1       6.387  -6.120  -1.766  0.00  0.00    +0.025 A 
ATOM      6  C   UNL     1       5.422  -6.693  -0.989  0.00  0.00    +0.029 A 
ATOM      7  C   UNL     1       4.400  -5.910  -0.454  0.00  0.00    +0.066 A 
ATOM      8  N   UNL     1       3.317  -6.187   0.343  0.00  0.00    -0.276 N 
ATOM      9  H   UNL     1       3.081  -7.064   0.685  0.00  0.00    +0.189 HD
ATOM     10  N   UNL     1       2.610  -5.006   0.588  0.00  0.00    -0.172 NA
ENDROOT
BRANCH   1  18
ATOM     11  C   UNL     1       0.032   1.395   0.054  0.00  0.00    +0.001 A 
ATOM     12  C   UNL     1       1.209   2.131   0.040  0.00  0.00    +0.001 A 
ATOM     13  C   UNL     1       2.423   1.473   0.018  0.00  0.00    +0.015 A 
ATOM     14  C   UNL     1       2.449   0.095   0.010  0.00  0.00    +0.020 A 
ATOM     15  C   UNL     1       1.266  -0.678   0.024  0.00  0.00    -0.010 A 
ATOM     16  C   UNL     1       0.043   0.036   0.047  0.00  0.00    +0.009 A 
ATOM     17  C   UNL     1       1.477  -2.115   0.013  0.00  0.00    +0.026 A 
ATOM     18  C   UNL     1       2.745  -2.593  -0.009  0.00  0.00    +0.041 A 
ATOM     19  S   UNL     1       3.745  -1.117  -0.017  0.00  0.00    -0.087 S 
ENDBRANCH   1  18
BRANCH   4  20
ATOM     20  N   UNL     1       7.365  -4.182  -2.835  0.00  0.00    -0.285 N 
ATOM     21  C   UNL     1       7.066  -3.164  -3.666  0.00  0.00    +0.223 C 
ATOM     22  O   UNL     1       5.951  -2.686  -3.660  0.00  0.00    -0.275 OA
ATOM     23  H   UNL     1       8.273  -4.521  -2.791  0.00  0.00    +0.155 HD
BRANCH  21  24
ATOM     24  C   UNL     1       8.115  -2.621  -4.601  0.00  0.00    +0.103 C 
ATOM     25  C   UNL     1       7.511  -1.528  -5.516  0.00  0.00    +0.043 C 
ATOM     26  C   UNL     1       8.173  -1.844  -6.881  0.00  0.00    +0.160 C 
ATOM     27  O   UNL     1       8.224  -3.287  -6.904  0.00  0.00    -0.379 OA
ATOM     28  C   UNL     1       8.584  -3.715  -5.580  0.00  0.00    +0.172 C 
ENDBRANCH  21  24
ENDBRANCH   4  20
TORSDOF 3
