REMARK  Name = CHEMBL363254
REMARK  6 active torsions:
REMARK  status: ('A' for Active; 'I' for Inactive)
REMARK    1  A    between atoms: C_1  and  N_2
REMARK    2  A    between atoms: C_4  and  C_7
REMARK    3  A    between atoms: C_7  and  C_8
REMARK    4  A    between atoms: C_8  and  N_9
REMARK    5  A    between atoms: C_14  and  C_16
REMARK    6  A    between atoms: C_16  and  C_26
REMARK                            x       y       z     vdW  Elec       q    Type
REMARK                         _______ _______ _______ _____ _____    ______ ____
ROOT
ATOM      1  N   UNL     1       1.494  -4.850  -2.755  0.00  0.00    -0.313 N 
ATOM      2  C   UNL     1       2.693  -5.343  -3.241  0.00  0.00    +0.216 A 
ATOM      3  N   UNL     1       3.820  -4.715  -2.936  0.00  0.00    -0.223 NA
ATOM      4  C   UNL     1       4.989  -5.153  -3.380  0.00  0.00    +0.116 A 
ATOM      5  C   UNL     1       5.032  -6.282  -4.173  0.00  0.00    +0.049 A 
ATOM      6  C   UNL     1       3.825  -6.927  -4.481  0.00  0.00    +0.089 A 
ATOM      7  N   UNL     1       2.685  -6.431  -3.993  0.00  0.00    -0.214 NA
ATOM      8  H   UNL     1       0.663  -5.302  -2.967  0.00  0.00    +0.149 HD
ENDROOT
BRANCH   6   9
ATOM      9  C   UNL     1       3.816  -8.136  -5.324  0.00  0.00    +0.105 C 
ATOM     10  C   UNL     1       2.608  -8.769  -5.623  0.00  0.00    +0.090 C 
ATOM     11  N   UNL     1       1.343  -8.425  -5.239  0.00  0.00    -0.307 N 
ATOM     12  C   UNL     1       0.262  -9.187  -5.642  0.00  0.00    +0.046 A 
ATOM     13  C   UNL     1      -1.095  -8.976  -5.340  0.00  0.00    +0.024 A 
ATOM     14  C   UNL     1      -2.064  -9.826  -5.815  0.00  0.00    +0.002 A 
ATOM     15  C   UNL     1      -1.740 -10.915  -6.606  0.00  0.00    +0.001 A 
ATOM     16  C   UNL     1      -0.413 -11.148  -6.921  0.00  0.00    +0.017 A 
ATOM     17  C   UNL     1       0.558 -10.299  -6.445  0.00  0.00    +0.035 A 
ATOM     18  S   UNL     1       2.325 -10.229  -6.610  0.00  0.00    -0.071 S 
ATOM     19  H   UNL     1       1.203  -7.643  -4.682  0.00  0.00    +0.153 HD
BRANCH   9  20
ATOM     20  C   UNL     1       5.046  -8.660  -5.836  0.00  0.00    +0.104 C 
ATOM     21  N   UNL     1       6.021  -9.077  -6.243  0.00  0.00    -0.191 NA
ENDBRANCH   9  20
ENDBRANCH   6   9
BRANCH   1  22
ATOM     22  C   UNL     1       1.481  -3.647  -1.920  0.00  0.00    +0.110 C 
BRANCH  22  23
ATOM     23  C   UNL     1       0.042  -3.320  -1.519  0.00  0.00    +0.073 C 
BRANCH  23  27
ATOM     24  C   UNL     1      -0.018   1.461   0.010  0.00  0.00    +0.149 C 
ATOM     25  N   UNL     1       0.002  -0.004   0.002  0.00  0.00    -0.341 N 
ATOM     26  C   UNL     1       0.008  -0.810  -1.104  0.00  0.00    +0.107 A 
ATOM     27  C   UNL     1       0.028  -2.081  -0.660  0.00  0.00    +0.035 A 
ATOM     28  N   UNL     1       0.034  -2.052   0.681  0.00  0.00    -0.350 N 
ATOM     29  C   UNL     1       0.024  -0.811   1.085  0.00  0.00    +0.173 A 
ATOM     30  H   UNL     1       0.048  -2.831   1.260  0.00  0.00    +0.166 HD
ENDBRANCH  23  27
ENDBRANCH  22  23
ENDBRANCH   1  22
TORSDOF 5
