REMARK  Name = CHEMBL572282
REMARK  3 active torsions:
REMARK  status: ('A' for Active; 'I' for Inactive)
REMARK    1  A    between atoms: C_4  and  C_7
REMARK    2  A    between atoms: N_13  and  C_14
REMARK    3  A    between atoms: C_17  and  N_20
REMARK                            x       y       z     vdW  Elec       q    Type
REMARK                         _______ _______ _______ _____ _____    ______ ____
ROOT
ATOM      1  C   UNL     1       3.700  -0.696  -0.103  0.00  0.00    +0.076 A 
ATOM      2  C   UNL     1       3.727  -2.063   0.184  0.00  0.00    +0.048 A 
ATOM      3  C   UNL     1       4.955  -2.671   0.382  0.00  0.00    +0.116 A 
ATOM      4  N   UNL     1       6.058  -1.945   0.295  0.00  0.00    -0.223 NA
ATOM      5  C   UNL     1       6.002  -0.649   0.022  0.00  0.00    +0.220 A 
ATOM      6  N   UNL     1       4.850  -0.030  -0.180  0.00  0.00    -0.214 NA
ATOM      7  N   UNL     1       7.181   0.074  -0.060  0.00  0.00    -0.284 N 
ATOM      8  H   UNL     1       7.152   1.037  -0.179  0.00  0.00    +0.155 HD
ENDROOT
BRANCH   1  12
ATOM      9  C   UNL     1       0.002   1.303  -0.738  0.00  0.00    +0.000 A 
ATOM     10  C   UNL     1       1.189   2.008  -0.820  0.00  0.00    +0.001 A 
ATOM     11  C   UNL     1       2.392   1.365  -0.615  0.00  0.00    +0.010 A 
ATOM     12  C   UNL     1       2.410   0.002  -0.324  0.00  0.00    +0.001 A 
ATOM     13  C   UNL     1       1.210  -0.704  -0.242  0.00  0.00    +0.010 A 
ATOM     14  C   UNL     1       0.013  -0.050  -0.450  0.00  0.00    +0.001 A 
ENDBRANCH   1  12
BRANCH   7  15
ATOM     15  C   UNL     1       8.413  -0.583   0.029  0.00  0.00    +0.034 A 
ATOM     16  C   UNL     1       8.586  -1.818  -0.581  0.00  0.00    +0.025 A 
ATOM     17  C   UNL     1       9.802  -2.466  -0.493  0.00  0.00    +0.029 A 
ATOM     18  C   UNL     1      10.851  -1.883   0.205  0.00  0.00    +0.067 A 
ATOM     19  C   UNL     1      10.677  -0.648   0.815  0.00  0.00    +0.029 A 
ATOM     20  C   UNL     1       9.464   0.003   0.723  0.00  0.00    +0.025 A 
BRANCH  18  21
ATOM     21  N   UNL     1      12.086  -2.543   0.295  0.00  0.00    -0.220 N 
ATOM     22  C   UNL     1      13.187  -2.110   0.938  0.00  0.00    +0.225 A 
ATOM     23  N   UNL     1      14.125  -3.010   0.786  0.00  0.00    -0.222 NA
ATOM     24  C   UNL     1      13.664  -4.025   0.058  0.00  0.00    +0.245 A 
ATOM     25  N   UNL     1      12.418  -3.788  -0.262  0.00  0.00    -0.154 NA
ENDBRANCH  18  21
ENDBRANCH   7  15
TORSDOF 3
