REMARK  Name = CHEMBL252967
REMARK  8 active torsions:
REMARK  status: ('A' for Active; 'I' for Inactive)
REMARK    1  A    between atoms: C_1  and  C_2
REMARK    2  A    between atoms: C_2  and  C_3
REMARK    3  A    between atoms: C_3  and  N_4
REMARK    4  A    between atoms: C_5  and  C_24
REMARK    5  A    between atoms: C_6  and  C_16
REMARK    6  A    between atoms: C_8  and  C_9
REMARK    7  A    between atoms: N_12  and  C_15
REMARK    8  A    between atoms: N_30  and  C_31
REMARK                            x       y       z     vdW  Elec       q    Type
REMARK                         _______ _______ _______ _____ _____    ______ ____
ROOT
ATOM      1  N   UNL     1      -1.022  -2.063  -0.053  0.00  0.00    -0.326 N 
ATOM      2  C   UNL     1      -1.504  -2.810  -1.105  0.00  0.00    +0.095 A 
ATOM      3  C   UNL     1      -1.836  -4.046  -0.578  0.00  0.00    +0.099 A 
ATOM      4  N   UNL     1      -1.553  -4.011   0.736  0.00  0.00    -0.231 NA
ATOM      5  C   UNL     1      -1.067  -2.841   1.048  0.00  0.00    +0.114 A 
ENDROOT
BRANCH   5   6
ATOM      6  C   UNL     1      -0.627  -2.423   2.427  0.00  0.00    +0.052 C 
ATOM      7  C   UNL     1       0.492  -3.350   2.911  0.00  0.00    -0.008 C 
ATOM      8  C   UNL     1       0.879  -2.970   4.341  0.00  0.00    -0.079 C 
ATOM      9  N   UNL     1      -0.288  -3.109   5.221  0.00  0.00    +0.378 N 
ATOM     10  C   UNL     1      -1.339  -2.171   4.807  0.00  0.00    -0.079 C 
ATOM     11  C   UNL     1      -1.811  -2.521   3.394  0.00  0.00    -0.008 C 
ATOM     12  C   UNL     1       0.107  -2.818   6.606  0.00  0.00    -0.096 C 
ATOM     13  H   UNL     1      -0.639  -4.053   5.165  0.00  0.00    -0.082 HD
ENDBRANCH   5   6
BRANCH   3  14
ATOM     14  C   UNL     1      -2.398  -5.196  -1.325  0.00  0.00    +0.004 A 
ATOM     15  C   UNL     1      -3.282  -4.978  -2.382  0.00  0.00    +0.011 A 
ATOM     16  C   UNL     1      -3.804  -6.052  -3.074  0.00  0.00    +0.022 A 
ATOM     17  C   UNL     1      -3.452  -7.343  -2.721  0.00  0.00    +0.059 A 
ATOM     18  C   UNL     1      -2.575  -7.566  -1.671  0.00  0.00    +0.060 A 
ATOM     19  C   UNL     1      -2.043  -6.498  -0.976  0.00  0.00    +0.031 A 
ATOM     20 CL   UNL     1      -2.140  -9.188  -1.234  0.00  0.00    -0.082 Cl
ATOM     21 CL   UNL     1      -4.112  -8.690  -3.596  0.00  0.00    -0.082 Cl
ENDBRANCH   3  14
BRANCH   2  22
ATOM     22  C   UNL     1      -1.639  -2.379  -2.508  0.00  0.00    +0.094 A 
ATOM     23  C   UNL     1      -2.100  -1.092  -2.817  0.00  0.00    +0.050 A 
ATOM     24  C   UNL     1      -2.210  -0.735  -4.147  0.00  0.00    +0.116 A 
ATOM     25  N   UNL     1      -1.879  -1.611  -5.084  0.00  0.00    -0.223 NA
ATOM     26  C   UNL     1      -1.445  -2.822  -4.765  0.00  0.00    +0.216 A 
ATOM     27  N   UNL     1      -1.319  -3.206  -3.505  0.00  0.00    -0.213 NA
ATOM     28  N   UNL     1      -1.110  -3.705  -5.776  0.00  0.00    -0.311 N 
ATOM     29  H   UNL     1      -0.791  -4.595  -5.557  0.00  0.00    +0.149 HD
BRANCH  28  30
ATOM     30  C   UNL     1      -1.236  -3.297  -7.177  0.00  0.00    +0.073 C 
ATOM     31  C   UNL     1      -0.094  -3.664  -8.126  0.00  0.00    +0.024 C 
ATOM     32  C   UNL     1      -1.431  -4.401  -8.220  0.00  0.00    +0.024 C 
ENDBRANCH  28  30
ENDBRANCH   2  22
BRANCH   1  33
ATOM     33  C   UNL     1      -0.542  -0.680  -0.118  0.00  0.00    +0.123 C 
BRANCH  33  35
ATOM     34  C   UNL     1       1.458   0.771  -0.491  0.00  0.00    +0.005 C 
ATOM     35  C   UNL     1       0.957  -0.674  -0.422  0.00  0.00    +0.018 C 
ENDBRANCH  33  35
ENDBRANCH   1  33
TORSDOF 6
