REMARK  Name = CHEMBL549653
REMARK  4 active torsions:
REMARK  status: ('A' for Active; 'I' for Inactive)
REMARK    1  A    between atoms: C_4  and  C_7
REMARK    2  A    between atoms: N_13  and  C_19
REMARK    3  A    between atoms: N_17  and  O_18
REMARK    4  A    between atoms: C_19  and  C_20
REMARK                            x       y       z     vdW  Elec       q    Type
REMARK                         _______ _______ _______ _____ _____    ______ ____
ROOT
ATOM      1  C   UNL     1       3.698  -0.688  -0.038  0.00  0.00    -0.016 A 
ATOM      2  C   UNL     1       4.894   0.032  -0.041  0.00  0.00    +0.009 A 
ATOM      3  C   UNL     1       6.099  -0.635  -0.056  0.00  0.00    +0.013 A 
ATOM      4  C   UNL     1       6.121  -2.027  -0.069  0.00  0.00    +0.030 A 
ATOM      5  C   UNL     1       4.926  -2.760  -0.067  0.00  0.00    +0.047 A 
ATOM      6  C   UNL     1       3.716  -2.080  -0.046  0.00  0.00    +0.032 A 
ATOM      7  N   UNL     1       5.217  -4.121  -0.082  0.00  0.00    -0.261 N 
ATOM      8  C   UNL     1       6.543  -4.341  -0.094  0.00  0.00    +0.273 C 
ATOM      9  O   UNL     1       7.089  -5.427  -0.108  0.00  0.00    -0.268 OA
ATOM     10  C   UNL     1       7.221  -3.020  -0.087  0.00  0.00    +0.173 C 
ATOM     11  N   UNL     1       8.503  -2.785  -0.096  0.00  0.00    -0.082 NA
ENDROOT
BRANCH   1  15
ATOM     12  C   UNL     1      -0.017   1.379   0.010  0.00  0.00    +0.000 A 
ATOM     13  C   UNL     1       1.169   2.092   0.002  0.00  0.00    +0.001 A 
ATOM     14  C   UNL     1       2.377   1.427  -0.013  0.00  0.00    +0.008 A 
ATOM     15  C   UNL     1       2.402   0.033  -0.021  0.00  0.00    -0.018 A 
ATOM     16  C   UNL     1       1.205  -0.680  -0.013  0.00  0.00    +0.008 A 
ATOM     17  C   UNL     1       0.002  -0.004   0.002  0.00  0.00    +0.001 A 
ENDBRANCH   1  15
BRANCH  11  18
ATOM     18  O   UNL     1       9.420  -3.863  -0.113  0.00  0.00    -0.409 OA
ATOM     19  H   UNL     1      10.348  -3.591  -0.118  0.00  0.00    +0.328 HD
ENDBRANCH  11  18
BRANCH   7  20
ATOM     20  C   UNL     1       4.205  -5.181  -0.083  0.00  0.00    +0.153 C 
BRANCH  20  21
ATOM     21  C   UNL     1       3.846  -5.531  -1.504  0.00  0.00    +0.015 A 
ATOM     22  C   UNL     1       2.698  -5.015  -2.073  0.00  0.00    +0.047 A 
ATOM     23  C   UNL     1       2.368  -5.338  -3.378  0.00  0.00    +0.124 A 
ATOM     24  C   UNL     1       3.187  -6.177  -4.113  0.00  0.00    +0.047 A 
ATOM     25  C   UNL     1       4.336  -6.695  -3.546  0.00  0.00    +0.023 A 
ATOM     26  C   UNL     1       4.673  -6.367  -2.242  0.00  0.00    +0.134 A 
ATOM     27  O   UNL     1       5.808  -6.858  -1.677  0.00  0.00    -0.465 OA
ATOM     28  C   UNL     1       6.422  -7.975  -2.326  0.00  0.00    +0.394 C 
ATOM     29  O   UNL     1       6.507  -7.699  -3.729  0.00  0.00    -0.339 OA
ATOM     30  C   UNL     1       5.219  -7.612  -4.355  0.00  0.00    +0.202 C 
ATOM     31  F   UNL     1       1.245  -4.833  -3.935  0.00  0.00    -0.205 F 
ENDBRANCH  20  21
ENDBRANCH   7  20
TORSDOF 4
