REMARK  Name = CHEMBL485323
REMARK  5 active torsions:
REMARK  status: ('A' for Active; 'I' for Inactive)
REMARK    1  A    between atoms: C_1  and  N_2
REMARK    2  A    between atoms: C_3  and  C_5
REMARK    3  A    between atoms: C_5  and  N_6
REMARK    4  A    between atoms: C_9  and  N_12
REMARK    5  A    between atoms: C_17  and  C_19
REMARK                            x       y       z     vdW  Elec       q    Type
REMARK                         _______ _______ _______ _____ _____    ______ ____
ROOT
ATOM      1  N   UNL     1       3.799  -4.599   4.981  0.00  0.00    -0.311 N 
ATOM      2  C   UNL     1       4.303  -5.874   5.166  0.00  0.00    +0.216 A 
ATOM      3  N   UNL     1       4.246  -6.742   4.166  0.00  0.00    -0.223 NA
ATOM      4  C   UNL     1       4.718  -7.973   4.300  0.00  0.00    +0.116 A 
ATOM      5  C   UNL     1       5.278  -8.355   5.503  0.00  0.00    +0.050 A 
ATOM      6  C   UNL     1       5.327  -7.418   6.545  0.00  0.00    +0.094 A 
ATOM      7  N   UNL     1       4.836  -6.194   6.335  0.00  0.00    -0.213 NA
ATOM      8  H   UNL     1       3.838  -3.953   5.704  0.00  0.00    +0.149 HD
ENDROOT
BRANCH   6   9
ATOM      9  C   UNL     1       5.914  -7.775   7.847  0.00  0.00    +0.092 A 
ATOM     10  C   UNL     1       6.152  -6.924   8.905  0.00  0.00    +0.141 A 
ATOM     11  N   UNL     1       6.689  -7.628   9.894  0.00  0.00    -0.235 NA
ATOM     12  C   UNL     1       6.809  -8.899   9.523  0.00  0.00    +0.138 A 
ATOM     13  N   UNL     1       6.328  -9.027   8.248  0.00  0.00    -0.298 N 
ATOM     14  C   UNL     1       6.329 -10.239   7.626  0.00  0.00    +0.093 A 
ATOM     15  C   UNL     1       6.801 -11.336   8.256  0.00  0.00    +0.018 A 
ATOM     16  C   UNL     1       7.298 -11.239   9.565  0.00  0.00    +0.005 A 
ATOM     17  C   UNL     1       7.310 -10.032  10.193  0.00  0.00    +0.047 A 
ENDBRANCH   6   9
BRANCH   1  21
ATOM     18  N   UNL     1       1.217  -2.739   2.219  0.00  0.00    -0.294 NA
ATOM     19  C   UNL     1       2.623  -2.317   2.194  0.00  0.00    +0.086 C 
ATOM     20  C   UNL     1       3.299  -2.708   3.510  0.00  0.00    +0.037 C 
ATOM     21  C   UNL     1       3.205  -4.225   3.695  0.00  0.00    +0.076 C 
ATOM     22  C   UNL     1       1.733  -4.644   3.670  0.00  0.00    +0.037 C 
ATOM     23  C   UNL     1       1.103  -4.197   2.349  0.00  0.00    +0.086 C 
BRANCH  18  24
ATOM     24  C   UNL     1       0.501  -2.258   1.030  0.00  0.00    +0.180 C 
BRANCH  24  27
ATOM     25  C   UNL     1      -0.255   1.376   0.093  0.00  0.00    +0.128 C 
ATOM     26  N   UNL     1      -0.185  -0.087   0.064  0.00  0.00    -0.317 N 
ATOM     27  C   UNL     1       0.430  -0.753   1.061  0.00  0.00    +0.227 C 
ATOM     28  O   UNL     1       0.927  -0.141   1.983  0.00  0.00    -0.274 OA
ATOM     29  H   UNL     1      -0.583  -0.577  -0.674  0.00  0.00    +0.148 HD
ENDBRANCH  24  27
ENDBRANCH  18  24
ENDBRANCH   1  21
TORSDOF 4
