REMARK  Name = CHEMBL248983
REMARK  5 active torsions:
REMARK  status: ('A' for Active; 'I' for Inactive)
REMARK    1  A    between atoms: C_1  and  S_2
REMARK    2  A    between atoms: S_2  and  N_5
REMARK    3  A    between atoms: N_5  and  C_6
REMARK    4  A    between atoms: C_9  and  C_12
REMARK    5  A    between atoms: C_19  and  N_20
REMARK                            x       y       z     vdW  Elec       q    Type
REMARK                         _______ _______ _______ _____ _____    ______ ____
ROOT
ATOM      1  C   UNL     1       1.594  -5.881  -2.694  0.00  0.00    +0.001 A 
ATOM      2  C   UNL     1       2.266  -6.218  -3.862  0.00  0.00    +0.022 A 
ATOM      3  C   UNL     1       2.463  -7.579  -4.139  0.00  0.00    +0.022 A 
ATOM      4  C   UNL     1       1.975  -8.548  -3.228  0.00  0.00    +0.073 A 
ATOM      5  C   UNL     1       2.174  -9.911  -3.507  0.00  0.00    +0.028 A 
ATOM      6  C   UNL     1       2.828 -10.288  -4.641  0.00  0.00    +0.004 A 
ATOM      7  C   UNL     1       3.312  -9.345  -5.541  0.00  0.00    +0.024 A 
ATOM      8  C   UNL     1       3.138  -7.997  -5.307  0.00  0.00    +0.042 A 
ATOM      9  N   UNL     1       1.334  -8.163  -2.119  0.00  0.00    -0.254 NA
ATOM     10  C   UNL     1       1.145  -6.899  -1.838  0.00  0.00    +0.120 A 
ENDROOT
BRANCH   8  11
ATOM     11  N   UNL     1       3.624  -7.057  -6.213  0.00  0.00    -0.299 N 
ATOM     12  C   UNL     1       3.809  -7.408  -7.547  0.00  0.00    +0.123 A 
ATOM     13  C   UNL     1       4.417  -6.509  -8.418  0.00  0.00    +0.045 A 
ATOM     14  C   UNL     1       4.595  -6.870  -9.741  0.00  0.00    +0.025 A 
ATOM     15  C   UNL     1       4.158  -8.123 -10.151  0.00  0.00    +0.059 A 
ATOM     16  C   UNL     1       3.562  -8.966  -9.232  0.00  0.00    +0.132 A 
ATOM     17  N   UNL     1       3.410  -8.596  -7.974  0.00  0.00    -0.239 NA
ATOM     18 CL   UNL     1       4.357  -8.626 -11.801  0.00  0.00    -0.082 Cl
ATOM     19  H   UNL     1       3.833  -6.159  -5.914  0.00  0.00    +0.154 HD
ENDBRANCH   8  11
BRANCH   1  23
ATOM     20  C   UNL     1       0.917  -1.799  -1.711  0.00  0.00    +0.074 A 
ATOM     21  C   UNL     1       0.469  -2.801  -0.859  0.00  0.00    +0.027 A 
ATOM     22  C   UNL     1       0.687  -4.125  -1.175  0.00  0.00    +0.010 A 
ATOM     23  C   UNL     1       1.357  -4.458  -2.352  0.00  0.00    -0.016 A 
ATOM     24  C   UNL     1       1.805  -3.451  -3.205  0.00  0.00    +0.010 A 
ATOM     25  C   UNL     1       1.581  -2.128  -2.887  0.00  0.00    +0.027 A 
BRANCH  20  26
ATOM     26  N   UNL     1       0.695  -0.459  -1.388  0.00  0.00    -0.103 NA
BRANCH  26  28
ATOM     27  C   UNL     1      -0.157   1.748   0.019  0.00  0.00    +0.220 C 
ATOM     28  S   UNL     1      -0.096  -0.065   0.013  0.00  0.00    +0.059 S 
ATOM     29  O   UNL     1       0.754  -0.529   1.052  0.00  0.00    -0.154 OA
ATOM     30  O   UNL     1      -1.403  -0.598  -0.147  0.00  0.00    -0.154 OA
ENDBRANCH  26  28
ENDBRANCH  20  26
ENDBRANCH   1  23
TORSDOF 4
