REMARK  Name = CHEMBL198687
REMARK  8 active torsions:
REMARK  status: ('A' for Active; 'I' for Inactive)
REMARK    1  A    between atoms: C_5  and  N_7
REMARK    2  A    between atoms: N_7  and  C_8
REMARK    3  A    between atoms: C_17  and  C_18
REMARK    4  A    between atoms: C_22  and  C_24
REMARK    5  A    between atoms: N_26  and  C_27
REMARK    6  A    between atoms: C_27  and  C_28
REMARK    7  A    between atoms: C_28  and  C_29
REMARK    8  A    between atoms: C_29  and  N_30
REMARK                            x       y       z     vdW  Elec       q    Type
REMARK                         _______ _______ _______ _____ _____    ______ ____
ROOT
ATOM      1  C   UNL     1      -4.656  -5.363   0.228  0.00  0.00    +0.003 A 
ATOM      2  C   UNL     1      -5.242  -4.269   0.866  0.00  0.00    +0.010 A 
ATOM      3  C   UNL     1      -6.615  -4.126   0.878  0.00  0.00    +0.001 A 
ATOM      4  C   UNL     1      -7.418  -5.063   0.259  0.00  0.00    +0.013 A 
ATOM      5  C   UNL     1      -6.845  -6.162  -0.384  0.00  0.00    +0.037 A 
ATOM      6  C   UNL     1      -5.459  -6.308  -0.404  0.00  0.00    +0.023 A 
ENDROOT
BRANCH   1  16
ATOM      7  C   UNL     1       0.091  -2.874   0.035  0.00  0.00    +0.033 A 
ATOM      8  C   UNL     1      -1.170  -2.274   0.019  0.00  0.00    +0.024 A 
ATOM      9  C   UNL     1      -2.300  -3.036   0.074  0.00  0.00    +0.014 A 
ATOM     10  C   UNL     1      -2.199  -4.428   0.147  0.00  0.00    +0.027 A 
ATOM     11  C   UNL     1      -0.932  -5.040   0.163  0.00  0.00    +0.068 A 
ATOM     12  C   UNL     1       0.212  -4.250   0.101  0.00  0.00    +0.051 A 
ATOM     13  N   UNL     1      -1.144  -6.394   0.238  0.00  0.00    -0.276 N 
ATOM     14  N   UNL     1      -2.519  -6.645   0.269  0.00  0.00    -0.173 NA
ATOM     15  H   UNL     1      -0.449  -7.070   0.265  0.00  0.00    +0.189 HD
ATOM     16  C   UNL     1      -3.182  -5.515   0.217  0.00  0.00    +0.100 A 
BRANCH   7  17
ATOM     17  N   UNL     1       1.238  -2.078  -0.022  0.00  0.00    -0.313 N 
ATOM     18  H   UNL     1       1.982  -2.340  -0.587  0.00  0.00    +0.152 HD
BRANCH  17  23
ATOM     19  C   UNL     1       0.398   0.551   2.405  0.00  0.00    +0.002 A 
ATOM     20  C   UNL     1       1.461   1.418   2.230  0.00  0.00    +0.002 A 
ATOM     21  C   UNL     1       2.451   1.127   1.310  0.00  0.00    +0.022 A 
ATOM     22  C   UNL     1       2.380  -0.032   0.560  0.00  0.00    +0.062 A 
ATOM     23  C   UNL     1       1.313  -0.905   0.734  0.00  0.00    +0.050 A 
ATOM     24  C   UNL     1       0.321  -0.609   1.660  0.00  0.00    +0.025 A 
ATOM     25 CL   UNL     1       3.622  -0.396  -0.597  0.00  0.00    -0.082 Cl
ENDBRANCH  17  23
ENDBRANCH   7  17
ENDBRANCH   1  16
BRANCH   5  26
ATOM     26  C   UNL     1      -7.706  -7.165  -1.046  0.00  0.00    +0.244 C 
ATOM     27  O   UNL     1      -7.205  -8.121  -1.605  0.00  0.00    -0.270 OA
ATOM     28  N   UNL     1      -9.046  -7.019  -1.030  0.00  0.00    -0.311 N 
ATOM     29  H   UNL     1      -9.445  -6.256  -0.584  0.00  0.00    +0.149 HD
BRANCH  28  30
ATOM     30  C   UNL     1      -9.898  -8.014  -1.686  0.00  0.00    +0.102 C 
BRANCH  30  31
ATOM     31  C   UNL     1     -11.366  -7.615  -1.522  0.00  0.00    +0.000 C 
BRANCH  31  32
ATOM     32  C   UNL     1     -12.257  -8.653  -2.207  0.00  0.00    -0.077 C 
BRANCH  32  33
ATOM     33  N   UNL     1     -13.666  -8.270  -2.049  0.00  0.00    +0.383 N 
ATOM     34  C   UNL     1     -14.032  -8.323  -0.627  0.00  0.00    -0.050 C 
ATOM     35  C   UNL     1     -15.501  -7.923  -0.465  0.00  0.00    +0.141 C 
ATOM     36  O   UNL     1     -16.317  -8.797  -1.251  0.00  0.00    -0.383 OA
ATOM     37  C   UNL     1     -15.982  -8.798  -2.642  0.00  0.00    +0.141 C 
ATOM     38  C   UNL     1     -14.515  -9.199  -2.808  0.00  0.00    -0.050 C 
ATOM     39  H   UNL     1     -13.801  -7.332  -2.397  0.00  0.00    -0.082 HD
ENDBRANCH  32  33
ENDBRANCH  31  32
ENDBRANCH  30  31
ENDBRANCH  28  30
ENDBRANCH   5  26
TORSDOF 8
