REMARK  Name = CHEMBL10
REMARK  5 active torsions:
REMARK  status: ('A' for Active; 'I' for Inactive)
REMARK    1  A    between atoms: C_1  and  S_2
REMARK    2  A    between atoms: S_2  and  C_4
REMARK    3  A    between atoms: C_7  and  C_10
REMARK    4  A    between atoms: C_13  and  C_23
REMARK    5  A    between atoms: C_14  and  C_16
REMARK                            x       y       z     vdW  Elec       q    Type
REMARK                         _______ _______ _______ _____ _____    ______ ____
ROOT
ATOM      1  C   UNL     1      -5.809  -1.537   0.049  0.00  0.00    +0.139 A 
ATOM      2  N   UNL     1      -6.535  -1.732   1.125  0.00  0.00    -0.227 NA
ATOM      3  H   UNL     1      -6.301  -1.650  -1.981  0.00  0.00    +0.167 HD
ATOM      4  C   UNL     1      -7.787  -2.062   0.767  0.00  0.00    +0.097 A 
ATOM      5  C   UNL     1      -7.842  -2.072  -0.617  0.00  0.00    +0.074 A 
ATOM      6  N   UNL     1      -6.585  -1.733  -1.057  0.00  0.00    -0.337 N 
ENDROOT
BRANCH   5   7
ATOM      7  C   UNL     1      -9.018  -2.381  -1.454  0.00  0.00    +0.001 A 
ATOM      8  C   UNL     1      -9.830  -3.475  -1.146  0.00  0.00    +0.013 A 
ATOM      9  C   UNL     1     -10.928  -3.758  -1.931  0.00  0.00    +0.039 A 
ATOM     10  C   UNL     1     -11.226  -2.959  -3.023  0.00  0.00    +0.123 A 
ATOM     11  C   UNL     1     -10.425  -1.872  -3.333  0.00  0.00    +0.039 A 
ATOM     12  C   UNL     1      -9.328  -1.575  -2.552  0.00  0.00    +0.013 A 
ATOM     13  F   UNL     1     -12.303  -3.241  -3.789  0.00  0.00    -0.205 F 
ENDBRANCH   5   7
BRANCH   1  17
ATOM     14  C   UNL     1      -1.702  -0.454   0.016  0.00  0.00    +0.039 A 
ATOM     15  C   UNL     1      -2.357  -0.630   1.221  0.00  0.00    +0.018 A 
ATOM     16  C   UNL     1      -3.691  -0.982   1.239  0.00  0.00    +0.012 A 
ATOM     17  C   UNL     1      -4.379  -1.159   0.038  0.00  0.00    +0.017 A 
ATOM     18  C   UNL     1      -3.712  -0.979  -1.175  0.00  0.00    +0.012 A 
ATOM     19  C   UNL     1      -2.379  -0.623  -1.179  0.00  0.00    +0.018 A 
BRANCH  14  21
ATOM     20  C   UNL     1      -0.022   1.810   0.012  0.00  0.00    +0.127 C 
ATOM     21  S   UNL     1       0.002  -0.004   0.002  0.00  0.00    +0.051 S 
ATOM     22  O   UNL     1       0.493  -0.478   1.249  0.00  0.00    -0.252 OA
ENDBRANCH  14  21
ENDBRANCH   1  17
BRANCH   4  23
ATOM     23  C   UNL     1      -8.908  -2.361   1.687  0.00  0.00    +0.005 A 
ATOM     24  C   UNL     1     -10.221  -2.000   1.363  0.00  0.00    +0.030 A 
ATOM     25  C   UNL     1     -11.234  -2.298   2.249  0.00  0.00    +0.111 A 
ATOM     26  N   UNL     1     -10.980  -2.914   3.388  0.00  0.00    -0.263 NA
ATOM     27  C   UNL     1      -9.757  -3.272   3.732  0.00  0.00    +0.111 A 
ATOM     28  C   UNL     1      -8.685  -3.018   2.903  0.00  0.00    +0.030 A 
ENDBRANCH   4  23
TORSDOF 4
