REMARK  Name = CHEMBL424815
REMARK  7 active torsions:
REMARK  status: ('A' for Active; 'I' for Inactive)
REMARK    1  A    between atoms: C_1  and  N_2
REMARK    2  A    between atoms: N_5  and  C_8
REMARK    3  A    between atoms: C_8  and  C_9
REMARK    4  A    between atoms: C_9  and  C_10
REMARK    5  A    between atoms: C_10  and  N_11
REMARK    6  A    between atoms: C_16  and  C_18
REMARK    7  A    between atoms: C_18  and  C_28
REMARK                            x       y       z     vdW  Elec       q    Type
REMARK                         _______ _______ _______ _____ _____    ______ ____
ROOT
ATOM      1  N   UNL     1       0.659  -6.640   3.486  0.00  0.00    -0.314 N 
ATOM      2  C   UNL     1       0.806  -8.005   3.667  0.00  0.00    +0.216 A 
ATOM      3  N   UNL     1       0.428  -8.828   2.699  0.00  0.00    -0.223 NA
ATOM      4  C   UNL     1       0.552 -10.142   2.831  0.00  0.00    +0.116 A 
ATOM      5  C   UNL     1       1.083 -10.657   3.995  0.00  0.00    +0.049 A 
ATOM      6  C   UNL     1       1.476  -9.764   5.003  0.00  0.00    +0.089 A 
ATOM      7  N   UNL     1       1.326  -8.453   4.798  0.00  0.00    -0.214 NA
ATOM      8  H   UNL     1       0.936  -6.026   4.185  0.00  0.00    +0.149 HD
ENDROOT
BRANCH   6   9
ATOM      9  C   UNL     1       2.048 -10.264   6.266  0.00  0.00    +0.105 C 
ATOM     10  C   UNL     1       2.435  -9.365   7.261  0.00  0.00    +0.090 C 
ATOM     11  N   UNL     1       2.359  -8.001   7.259  0.00  0.00    -0.307 N 
ATOM     12  C   UNL     1       2.798  -7.278   8.353  0.00  0.00    +0.046 A 
ATOM     13  C   UNL     1       2.793  -5.881   8.514  0.00  0.00    +0.024 A 
ATOM     14  C   UNL     1       3.266  -5.302   9.667  0.00  0.00    +0.002 A 
ATOM     15  C   UNL     1       3.763  -6.071  10.706  0.00  0.00    +0.001 A 
ATOM     16  C   UNL     1       3.781  -7.448  10.576  0.00  0.00    +0.017 A 
ATOM     17  C   UNL     1       3.308  -8.028   9.423  0.00  0.00    +0.035 A 
ATOM     18  S   UNL     1       3.146  -9.707   8.863  0.00  0.00    -0.071 S 
ATOM     19  H   UNL     1       1.996  -7.538   6.487  0.00  0.00    +0.153 HD
BRANCH   9  20
ATOM     20  C   UNL     1       2.208 -11.672   6.471  0.00  0.00    +0.104 C 
ATOM     21  N   UNL     1       2.335 -12.789   6.634  0.00  0.00    -0.191 NA
ENDBRANCH   9  20
ENDBRANCH   6   9
BRANCH   1  22
ATOM     22  C   UNL     1       0.087  -6.124   2.241  0.00  0.00    +0.102 C 
BRANCH  22  23
ATOM     23  C   UNL     1       0.036  -4.596   2.298  0.00  0.00    +0.000 C 
BRANCH  23  24
ATOM     24  C   UNL     1      -0.562  -4.056   0.998  0.00  0.00    -0.077 C 
BRANCH  24  29
ATOM     25  C   UNL     1      -0.018   1.465   0.010  0.00  0.00    +0.104 C 
ATOM     26  N   UNL     1       0.002  -0.004   0.002  0.00  0.00    -0.309 NA
ATOM     27  C   UNL     1      -1.361  -0.549  -0.076  0.00  0.00    +0.065 C 
ATOM     28  C   UNL     1      -1.293  -2.076  -0.143  0.00  0.00    -0.063 C 
ATOM     29  N   UNL     1      -0.611  -2.589   1.053  0.00  0.00    +0.381 N 
ATOM     30  C   UNL     1       0.757  -2.055   1.104  0.00  0.00    -0.063 C 
ATOM     31  C   UNL     1       0.707  -0.528   1.181  0.00  0.00    +0.065 C 
ATOM     32  H   UNL     1      -1.115  -2.300   1.878  0.00  0.00    -0.082 HD
ENDBRANCH  24  29
ENDBRANCH  23  24
ENDBRANCH  22  23
ENDBRANCH   1  22
TORSDOF 6
