REMARK  Name = CHEMBL380625
REMARK  3 active torsions:
REMARK  status: ('A' for Active; 'I' for Inactive)
REMARK    1  A    between atoms: C_4  and  N_7
REMARK    2  A    between atoms: C_10  and  C_14
REMARK    3  A    between atoms: C_21  and  C_23
REMARK                            x       y       z     vdW  Elec       q    Type
REMARK                         _______ _______ _______ _____ _____    ______ ____
ROOT
ATOM      1  C   UNL     1       1.226  -4.907  -0.517  0.00  0.00    -0.013 A 
ATOM      2  C   UNL     1      -0.020  -4.271  -0.521  0.00  0.00    +0.028 A 
ATOM      3  C   UNL     1      -1.164  -5.035  -0.615  0.00  0.00    +0.113 A 
ATOM      4  N   UNL     1      -1.097  -6.351  -0.700  0.00  0.00    -0.240 NA
ATOM      5  C   UNL     1       0.060  -6.994  -0.699  0.00  0.00    +0.126 A 
ATOM      6  C   UNL     1       1.259  -6.298  -0.614  0.00  0.00    +0.052 A 
ATOM      7  N   UNL     1       0.076  -8.384  -0.791  0.00  0.00    -0.266 N 
ATOM      8  C   UNL     1      -1.074  -9.060  -0.986  0.00  0.00    +0.251 C 
ATOM      9  O   UNL     1      -2.136  -8.468  -0.977  0.00  0.00    -0.270 OA
ATOM     10  H   UNL     1       0.914  -8.866  -0.715  0.00  0.00    +0.157 HD
ENDROOT
BRANCH   1  14
ATOM     11  N   UNL     1       3.632  -0.646  -0.134  0.00  0.00    -0.299 N 
ATOM     12  C   UNL     1       3.648  -2.034  -0.231  0.00  0.00    +0.123 A 
ATOM     13  C   UNL     1       2.449  -2.730  -0.322  0.00  0.00    +0.052 A 
ATOM     14  C   UNL     1       2.481  -4.120  -0.418  0.00  0.00    -0.013 A 
ATOM     15  C   UNL     1       3.728  -4.756  -0.419  0.00  0.00    +0.028 A 
ATOM     16  C   UNL     1       4.872  -3.992  -0.325  0.00  0.00    +0.113 A 
ATOM     17  N   UNL     1       4.805  -2.677  -0.240  0.00  0.00    -0.240 NA
ATOM     18  H   UNL     1       2.787  -0.171  -0.118  0.00  0.00    +0.154 HD
BRANCH  11  22
ATOM     19  C   UNL     1       7.214   1.467   0.087  0.00  0.00    +0.000 A 
ATOM     20  C   UNL     1       6.141   1.999  -0.605  0.00  0.00    +0.002 A 
ATOM     21  C   UNL     1       4.952   1.300  -0.680  0.00  0.00    +0.023 A 
ATOM     22  C   UNL     1       4.834   0.063  -0.060  0.00  0.00    +0.032 A 
ATOM     23  C   UNL     1       5.914  -0.468   0.634  0.00  0.00    +0.023 A 
ATOM     24  C   UNL     1       7.100   0.236   0.706  0.00  0.00    +0.002 A 
ENDBRANCH  11  22
ENDBRANCH   1  14
BRANCH   8  25
ATOM     25  C   UNL     1      -1.044 -10.520  -1.211  0.00  0.00    +0.055 A 
ATOM     26  C   UNL     1      -2.231 -11.233  -1.421  0.00  0.00    +0.016 A 
ATOM     27  C   UNL     1      -2.148 -12.598  -1.626  0.00  0.00    +0.020 A 
ATOM     28  C   UNL     1      -0.908 -13.211  -1.618  0.00  0.00    +0.111 A 
ATOM     29  N   UNL     1       0.194 -12.514  -1.418  0.00  0.00    -0.263 NA
ATOM     30  C   UNL     1       0.168 -11.211  -1.224  0.00  0.00    +0.123 A 
ENDBRANCH   8  25
TORSDOF 3
