REMARK  Name = CHEMBL252761
REMARK  0 active torsions:
REMARK  status: ('A' for Active; 'I' for Inactive)
REMARK                            x       y       z     vdW  Elec       q    Type
REMARK                         _______ _______ _______ _____ _____    ______ ____
ROOT
ATOM      1  C   UNL     1      -0.017   1.375   0.010  0.00  0.00    +0.001 A 
ATOM      2  C   UNL     1       1.165   2.102   0.002  0.00  0.00    +0.001 A 
ATOM      3  C   UNL     1       2.386   1.457  -0.020  0.00  0.00    +0.010 A 
ATOM      4  C   UNL     1       2.431   0.069  -0.033  0.00  0.00    +0.009 A 
ATOM      5  C   UNL     1       1.221  -0.680  -0.013  0.00  0.00    +0.027 A 
ATOM      6  C   UNL     1       0.002  -0.004   0.002  0.00  0.00    +0.012 A 
ATOM      7  C   UNL     1       1.264  -2.159   0.001  0.00  0.00    +0.172 C 
ATOM      8  O   UNL     1       0.283  -2.820  -0.267  0.00  0.00    -0.291 OA
ATOM      9  C   UNL     1       2.567  -2.807   0.357  0.00  0.00    +0.097 C 
ATOM     10  C   UNL     1       2.681  -4.283   0.159  0.00  0.00    -0.015 C 
ATOM     11  C   UNL     1       3.908  -4.831   0.113  0.00  0.00    -0.002 C 
ATOM     12  C   UNL     1       5.117  -3.990   0.242  0.00  0.00    +0.020 C 
ATOM     13  C   UNL     1       4.983  -2.679   0.030  0.00  0.00    +0.036 C 
ATOM     14  C   UNL     1       3.658  -2.144  -0.508  0.00  0.00    +0.100 C 
ATOM     15  C   UNL     1       3.691  -0.681  -0.071  0.00  0.00    +0.077 C 
ATOM     16  N   UNL     1       4.919  -0.415   0.180  0.00  0.00    -0.186 NA
ATOM     17  N   UNL     1       5.748  -1.554   0.134  0.00  0.00    -0.241 N 
ATOM     18  H   UNL     1       6.717  -1.540   0.171  0.00  0.00    +0.174 HD
ENDROOT
TORSDOF 0
