REMARK  Name = CHEMBL424815
REMARK  7 active torsions:
REMARK  status: ('A' for Active; 'I' for Inactive)
REMARK    1  A    between atoms: C_1  and  N_2
REMARK    2  A    between atoms: N_5  and  C_8
REMARK    3  A    between atoms: C_8  and  C_9
REMARK    4  A    between atoms: C_9  and  C_10
REMARK    5  A    between atoms: C_10  and  N_11
REMARK    6  A    between atoms: C_16  and  C_18
REMARK    7  A    between atoms: C_18  and  C_28
REMARK                            x       y       z     vdW  Elec       q    Type
REMARK                         _______ _______ _______ _____ _____    ______ ____
ROOT
ATOM      1  N   UNL     1       0.430  -6.471   3.876  0.00  0.00    -0.313 N 
ATOM      2  C   UNL     1       0.519  -7.825   4.147  0.00  0.00    +0.216 A 
ATOM      3  N   UNL     1       0.132  -8.695   3.224  0.00  0.00    -0.223 NA
ATOM      4  C   UNL     1       0.202 -10.001   3.443  0.00  0.00    +0.116 A 
ATOM      5  C   UNL     1       0.685 -10.459   4.651  0.00  0.00    +0.049 A 
ATOM      6  C   UNL     1       1.088  -9.518   5.610  0.00  0.00    +0.089 A 
ATOM      7  N   UNL     1       0.994  -8.218   5.318  0.00  0.00    -0.214 NA
ATOM      8  H   UNL     1       0.713  -5.824   4.540  0.00  0.00    +0.149 HD
ENDROOT
BRANCH   6   9
ATOM      9  C   UNL     1       1.611  -9.956   6.916  0.00  0.00    +0.105 C 
ATOM     10  C   UNL     1       2.009  -9.009   7.862  0.00  0.00    +0.090 C 
ATOM     11  N   UNL     1       1.986  -7.646   7.771  0.00  0.00    -0.307 N 
ATOM     12  C   UNL     1       2.428  -6.870   8.827  0.00  0.00    +0.046 A 
ATOM     13  C   UNL     1       2.473  -5.467   8.898  0.00  0.00    +0.024 A 
ATOM     14  C   UNL     1       2.941  -4.832  10.023  0.00  0.00    +0.002 A 
ATOM     15  C   UNL     1       3.383  -5.550  11.122  0.00  0.00    +0.001 A 
ATOM     16  C   UNL     1       3.350  -6.933  11.081  0.00  0.00    +0.017 A 
ATOM     17  C   UNL     1       2.882  -7.569   9.955  0.00  0.00    +0.035 A 
ATOM     18  S   UNL     1       2.668  -9.272   9.500  0.00  0.00    -0.071 S 
ATOM     19  H   UNL     1       1.660  -7.221   6.962  0.00  0.00    +0.153 HD
BRANCH   9  20
ATOM     20  C   UNL     1       1.711 -11.352   7.215  0.00  0.00    +0.104 C 
ATOM     21  N   UNL     1       1.791 -12.460   7.452  0.00  0.00    -0.191 NA
ENDBRANCH   9  20
ENDBRANCH   6   9
BRANCH   1  22
ATOM     22  C   UNL     1      -0.093  -6.015   2.586  0.00  0.00    +0.105 C 
BRANCH  22  23
ATOM     23  C   UNL     1      -0.086  -4.485   2.544  0.00  0.00    +0.034 C 
BRANCH  23  24
ATOM     24  C   UNL     1      -0.632  -4.009   1.196  0.00  0.00    +0.086 C 
BRANCH  24  29
ATOM     25  C   UNL     1      -0.018   1.465   0.010  0.00  0.00    -0.096 C 
ATOM     26  N   UNL     1       0.002  -0.004   0.002  0.00  0.00    +0.379 N 
ATOM     27  C   UNL     1      -1.376  -0.512   0.011  0.00  0.00    -0.064 C 
ATOM     28  C   UNL     1      -1.356  -2.042  -0.017  0.00  0.00    +0.066 C 
ATOM     29  N   UNL     1      -0.624  -2.541   1.156  0.00  0.00    -0.306 NA
ATOM     30  C   UNL     1       0.750  -2.020   1.175  0.00  0.00    +0.066 C 
ATOM     31  C   UNL     1       0.713  -0.490   1.192  0.00  0.00    -0.064 C 
ATOM     32  H   UNL     1       0.475  -0.329  -0.828  0.00  0.00    -0.082 HD
ENDBRANCH  24  29
ENDBRANCH  23  24
ENDBRANCH  22  23
ENDBRANCH   1  22
TORSDOF 6
