REMARK  Name = CHEMBL246544
REMARK  4 active torsions:
REMARK  status: ('A' for Active; 'I' for Inactive)
REMARK    1  A    between atoms: C_1  and  C_2
REMARK    2  A    between atoms: C_2  and  N_3
REMARK    3  A    between atoms: C_9  and  N_11
REMARK    4  A    between atoms: C_16  and  C_18
REMARK                            x       y       z     vdW  Elec       q    Type
REMARK                         _______ _______ _______ _____ _____    ______ ____
ROOT
ATOM      1  N   UNL     1       2.660  -4.903  -4.581  0.00  0.00    -0.309 N 
ATOM      2  C   UNL     1       3.459  -5.998  -4.296  0.00  0.00    +0.216 A 
ATOM      3  N   UNL     1       4.212  -5.981  -3.206  0.00  0.00    -0.221 NA
ATOM      4  C   UNL     1       4.990  -7.007  -2.897  0.00  0.00    +0.136 A 
ATOM      5  C   UNL     1       5.015  -8.112  -3.728  0.00  0.00    +0.085 A 
ATOM      6  C   UNL     1       4.209  -8.102  -4.873  0.00  0.00    +0.096 A 
ATOM      7  N   UNL     1       3.448  -7.035  -5.117  0.00  0.00    -0.213 NA
ATOM      8 CL   UNL     1       6.020  -9.478  -3.361  0.00  0.00    -0.080 Cl
ATOM      9  H   UNL     1       2.102  -4.904  -5.374  0.00  0.00    +0.149 HD
ENDROOT
BRANCH   6  10
ATOM     10  C   UNL     1       4.199  -9.259  -5.795  0.00  0.00    +0.027 A 
ATOM     11  C   UNL     1       4.074 -10.567  -5.453  0.00  0.00    +0.093 A 
ATOM     12  N   UNL     1       4.109 -11.341  -6.573  0.00  0.00    -0.360 N 
ATOM     13  H   UNL     1       4.037 -12.308  -6.581  0.00  0.00    +0.165 HD
ATOM     14  C   UNL     1       4.260 -10.552  -7.694  0.00  0.00    +0.047 A 
ATOM     15  C   UNL     1       4.317  -9.216  -7.262  0.00  0.00    +0.009 A 
ATOM     16  C   UNL     1       4.462  -8.188  -8.191  0.00  0.00    +0.010 A 
ATOM     17  C   UNL     1       4.545  -8.489  -9.533  0.00  0.00    +0.001 A 
ATOM     18  C   UNL     1       4.485  -9.807  -9.961  0.00  0.00    +0.002 A 
ATOM     19  C   UNL     1       4.351 -10.835  -9.053  0.00  0.00    +0.026 A 
ENDBRANCH   6  10
BRANCH   1  26
ATOM     20  N   UNL     1       0.471  -0.780  -0.819  0.00  0.00    -0.300 N 
ATOM     21  C   UNL     1       0.694  -2.087  -1.061  0.00  0.00    +0.302 C 
ATOM     22  O   UNL     1       0.403  -2.919  -0.223  0.00  0.00    -0.253 OA
ATOM     23  N   UNL     1       1.241  -2.472  -2.232  0.00  0.00    -0.284 N 
ATOM     24  C   UNL     1       1.644  -1.576  -3.325  0.00  0.00    +0.111 C 
ATOM     25  C   UNL     1       2.241  -2.456  -4.443  0.00  0.00    +0.043 C 
ATOM     26  C   UNL     1       2.659  -3.744  -3.685  0.00  0.00    +0.092 C 
ATOM     27  C   UNL     1       1.538  -3.861  -2.625  0.00  0.00    +0.131 C 
ATOM     28  H   UNL     1       0.703  -0.117  -1.488  0.00  0.00    +0.150 HD
BRANCH  20  30
ATOM     29  C   UNL     1      -0.269   1.161   0.471  0.00  0.00    +0.024 C 
ATOM     30  C   UNL     1      -0.123  -0.362   0.453  0.00  0.00    +0.102 C 
ENDBRANCH  20  30
ENDBRANCH   1  26
TORSDOF 3
