REMARK  Name = CHEMBL561540
REMARK  5 active torsions:
REMARK  status: ('A' for Active; 'I' for Inactive)
REMARK    1  A    between atoms: C_4  and  C_7
REMARK    2  A    between atoms: C_8  and  C_9
REMARK    3  A    between atoms: N_16  and  O_17
REMARK    4  A    between atoms: N_20  and  C_21
REMARK    5  A    between atoms: C_21  and  C_22
REMARK                            x       y       z     vdW  Elec       q    Type
REMARK                         _______ _______ _______ _____ _____    ______ ____
ROOT
ATOM      1  C   UNL     1       5.000  -2.739  -0.063  0.00  0.00    -0.014 A 
ATOM      2  C   UNL     1       6.203  -2.027  -0.066  0.00  0.00    +0.009 A 
ATOM      3  C   UNL     1       7.404  -2.706  -0.082  0.00  0.00    +0.002 A 
ATOM      4  C   UNL     1       7.435  -4.089  -0.096  0.00  0.00    +0.024 A 
ATOM      5  C   UNL     1       6.254  -4.822  -0.093  0.00  0.00    +0.047 A 
ATOM      6  C   UNL     1       5.031  -4.143  -0.071  0.00  0.00    +0.037 A 
ATOM      7  C   UNL     1       3.974  -5.178  -0.066  0.00  0.00    +0.174 C 
ATOM      8  N   UNL     1       2.683  -4.997  -0.052  0.00  0.00    -0.082 NA
ATOM      9  C   UNL     1       4.707  -6.471  -0.081  0.00  0.00    +0.273 C 
ATOM     10  O   UNL     1       4.207  -7.579  -0.083  0.00  0.00    -0.268 OA
ATOM     11  N   UNL     1       6.022  -6.195  -0.106  0.00  0.00    -0.261 N 
ENDROOT
BRANCH   1  13
ATOM     12  C   UNL     1       3.692  -0.681  -0.038  0.00  0.00    +0.008 C 
ATOM     13  C   UNL     1       3.714  -2.025  -0.046  0.00  0.00    +0.009 C 
BRANCH  12  17
ATOM     14  C   UNL     1      -0.017   1.380   0.010  0.00  0.00    +0.000 A 
ATOM     15  C   UNL     1       1.168   2.095   0.002  0.00  0.00    +0.001 A 
ATOM     16  C   UNL     1       2.377   1.432  -0.013  0.00  0.00    +0.008 A 
ATOM     17  C   UNL     1       2.404   0.035  -0.021  0.00  0.00    -0.025 A 
ATOM     18  C   UNL     1       1.204  -0.681  -0.013  0.00  0.00    +0.008 A 
ATOM     19  C   UNL     1       0.002  -0.004   0.002  0.00  0.00    +0.001 A 
ENDBRANCH  12  17
ENDBRANCH   1  13
BRANCH   8  20
ATOM     20  O   UNL     1       1.811  -6.112  -0.049  0.00  0.00    -0.409 OA
ATOM     21  H   UNL     1       0.873  -5.878  -0.038  0.00  0.00    +0.328 HD
ENDBRANCH   8  20
BRANCH  11  22
ATOM     22  C   UNL     1       7.078  -7.210  -0.125  0.00  0.00    +0.153 C 
BRANCH  22  23
ATOM     23  C   UNL     1       7.452  -7.573   1.289  0.00  0.00    +0.015 A 
ATOM     24  C   UNL     1       8.577  -7.020   1.869  0.00  0.00    +0.047 A 
ATOM     25  C   UNL     1       8.921  -7.354   3.167  0.00  0.00    +0.124 A 
ATOM     26  C   UNL     1       8.139  -8.242   3.885  0.00  0.00    +0.047 A 
ATOM     27  C   UNL     1       7.013  -8.797   3.307  0.00  0.00    +0.023 A 
ATOM     28  C   UNL     1       6.662  -8.458   2.010  0.00  0.00    +0.134 A 
ATOM     29  O   UNL     1       5.549  -8.986   1.434  0.00  0.00    -0.465 OA
ATOM     30  C   UNL     1       4.983 -10.140   2.061  0.00  0.00    +0.394 C 
ATOM     31  O   UNL     1       4.887  -9.896   3.469  0.00  0.00    -0.339 OA
ATOM     32  C   UNL     1       6.170  -9.767   4.097  0.00  0.00    +0.202 C 
ATOM     33  F   UNL     1      10.022  -6.813   3.735  0.00  0.00    -0.205 F 
ENDBRANCH  22  23
ENDBRANCH  11  22
TORSDOF 5
