REMARK  Name = CHEMBL10
REMARK  5 active torsions:
REMARK  status: ('A' for Active; 'I' for Inactive)
REMARK    1  A    between atoms: C_1  and  S_2
REMARK    2  A    between atoms: S_2  and  C_4
REMARK    3  A    between atoms: C_7  and  C_10
REMARK    4  A    between atoms: C_13  and  C_23
REMARK    5  A    between atoms: C_14  and  C_16
REMARK                            x       y       z     vdW  Elec       q    Type
REMARK                         _______ _______ _______ _____ _____    ______ ____
ROOT
ATOM      1  C   UNL     1      -5.842  -1.431   0.048  0.00  0.00    +0.139 A 
ATOM      2  N   UNL     1      -6.622  -1.629  -1.053  0.00  0.00    -0.337 N 
ATOM      3  H   UNL     1      -6.371  -1.461  -1.975  0.00  0.00    +0.167 HD
ATOM      4  C   UNL     1      -7.833  -2.114  -0.611  0.00  0.00    +0.074 A 
ATOM      5  C   UNL     1      -7.741  -2.194   0.769  0.00  0.00    +0.097 A 
ATOM      6  N   UNL     1      -6.516  -1.776   1.122  0.00  0.00    -0.227 NA
ENDROOT
BRANCH   5   7
ATOM      7  C   UNL     1      -8.803  -2.663   1.689  0.00  0.00    +0.003 A 
ATOM      8  C   UNL     1      -9.554  -3.795   1.372  0.00  0.00    +0.013 A 
ATOM      9  C   UNL     1     -10.542  -4.228   2.232  0.00  0.00    +0.039 A 
ATOM     10  C   UNL     1     -10.789  -3.540   3.409  0.00  0.00    +0.123 A 
ATOM     11  C   UNL     1     -10.046  -2.415   3.729  0.00  0.00    +0.039 A 
ATOM     12  C   UNL     1      -9.052  -1.978   2.878  0.00  0.00    +0.013 A 
ATOM     13  F   UNL     1     -11.758  -3.967   4.248  0.00  0.00    -0.205 F 
ENDBRANCH   5   7
BRANCH   1  17
ATOM     14  C   UNL     1      -1.859   0.045   0.010  0.00  0.00    +0.039 A 
ATOM     15  C   UNL     1      -2.461  -0.282   1.212  0.00  0.00    +0.018 A 
ATOM     16  C   UNL     1      -3.754  -0.762   1.231  0.00  0.00    +0.012 A 
ATOM     17  C   UNL     1      -4.456  -0.917   0.035  0.00  0.00    +0.017 A 
ATOM     18  C   UNL     1      -3.843  -0.585  -1.174  0.00  0.00    +0.012 A 
ATOM     19  C   UNL     1      -2.551  -0.101  -1.179  0.00  0.00    +0.018 A 
BRANCH  14  21
ATOM     20  C   UNL     1      -0.405   2.456   0.142  0.00  0.00    +0.127 C 
ATOM     21  S   UNL     1      -0.208   0.658  -0.006  0.00  0.00    +0.051 S 
ATOM     22  O   UNL     1       0.361   0.144   1.190  0.00  0.00    -0.252 OA
ENDBRANCH  14  21
ENDBRANCH   1  17
BRANCH   4  23
ATOM     23  C   UNL     1      -8.996  -2.476  -1.442  0.00  0.00    +0.003 A 
ATOM     24  C   UNL     1     -10.284  -2.029  -1.114  0.00  0.00    +0.030 A 
ATOM     25  C   UNL     1     -11.342  -2.391  -1.919  0.00  0.00    +0.111 A 
ATOM     26  N   UNL     1     -11.156  -3.148  -2.984  0.00  0.00    -0.263 NA
ATOM     27  C   UNL     1      -9.961  -3.591  -3.330  0.00  0.00    +0.111 A 
ATOM     28  C   UNL     1      -8.845  -3.272  -2.586  0.00  0.00    +0.030 A 
ENDBRANCH   4  23
TORSDOF 4
