REMARK  Name = CHEMBL205672
REMARK  3 active torsions:
REMARK  status: ('A' for Active; 'I' for Inactive)
REMARK    1  A    between atoms: C_6  and  N_7
REMARK    2  A    between atoms: C_10  and  C_14
REMARK    3  A    between atoms: N_20  and  C_21
REMARK                            x       y       z     vdW  Elec       q    Type
REMARK                         _______ _______ _______ _____ _____    ______ ____
ROOT
ATOM      1  N   UNL     1      -1.111  -0.777  -0.720  0.00  0.00    -0.299 N 
ATOM      2  C   UNL     1      -1.103  -2.139  -0.438  0.00  0.00    +0.123 A 
ATOM      3  C   UNL     1       0.107  -2.817  -0.350  0.00  0.00    +0.052 A 
ATOM      4  C   UNL     1       0.097  -4.181  -0.067  0.00  0.00    -0.013 A 
ATOM      5  C   UNL     1      -1.139  -4.811   0.119  0.00  0.00    +0.028 A 
ATOM      6  C   UNL     1      -2.295  -4.067   0.016  0.00  0.00    +0.113 A 
ATOM      7  N   UNL     1      -2.250  -2.775  -0.249  0.00  0.00    -0.240 NA
ATOM      8  H   UNL     1      -0.274  -0.288  -0.772  0.00  0.00    +0.154 HD
ENDROOT
BRANCH   4   9
ATOM      9  C   UNL     1       1.364  -4.947   0.036  0.00  0.00    -0.013 A 
ATOM     10  C   UNL     1       2.600  -4.316  -0.144  0.00  0.00    +0.028 A 
ATOM     11  C   UNL     1       3.756  -5.060  -0.041  0.00  0.00    +0.113 A 
ATOM     12  N   UNL     1       3.711  -6.353   0.224  0.00  0.00    -0.240 NA
ATOM     13  C   UNL     1       2.564  -6.991   0.402  0.00  0.00    +0.123 A 
ATOM     14  C   UNL     1       1.354  -6.312   0.320  0.00  0.00    +0.052 A 
ATOM     15  N   UNL     1       2.571  -8.354   0.679  0.00  0.00    -0.299 N 
ATOM     16  H   UNL     1       1.734  -8.841   0.737  0.00  0.00    +0.154 HD
BRANCH  15  17
ATOM     17  C   UNL     1       3.785  -9.022   0.874  0.00  0.00    +0.033 A 
ATOM     18  C   UNL     1       4.848  -8.369   1.484  0.00  0.00    +0.026 A 
ATOM     19  C   UNL     1       6.045  -9.030   1.676  0.00  0.00    +0.040 A 
ATOM     20  C   UNL     1       6.186 -10.343   1.260  0.00  0.00    +0.124 A 
ATOM     21  C   UNL     1       5.128 -10.996   0.651  0.00  0.00    +0.040 A 
ATOM     22  C   UNL     1       3.926 -10.341   0.463  0.00  0.00    +0.026 A 
ATOM     23  F   UNL     1       7.358 -10.988   1.448  0.00  0.00    -0.205 F 
ENDBRANCH  15  17
ENDBRANCH   4   9
BRANCH   1  29
ATOM     24  C   UNL     1      -2.466   1.214  -0.540  0.00  0.00    +0.026 A 
ATOM     25  C   UNL     1      -3.664   1.868  -0.748  0.00  0.00    +0.040 A 
ATOM     26  C   UNL     1      -4.723   1.203  -1.343  0.00  0.00    +0.124 A 
ATOM     27  C   UNL     1      -4.583  -0.118  -1.732  0.00  0.00    +0.040 A 
ATOM     28  C   UNL     1      -3.387  -0.777  -1.526  0.00  0.00    +0.026 A 
ATOM     29  C   UNL     1      -2.324  -0.112  -0.929  0.00  0.00    +0.033 A 
ATOM     30  F   UNL     1      -5.895   1.845  -1.545  0.00  0.00    -0.205 F 
ENDBRANCH   1  29
TORSDOF 3
