REMARK  Name = CHEMBL219112
REMARK  8 active torsions:
REMARK  status: ('A' for Active; 'I' for Inactive)
REMARK    1  A    between atoms: C_1  and  S_2
REMARK    2  A    between atoms: S_2  and  C_5
REMARK    3  A    between atoms: C_8  and  C_11
REMARK    4  A    between atoms: C_11  and  N_12
REMARK    5  A    between atoms: C_13  and  C_15
REMARK    6  A    between atoms: C_17  and  N_28
REMARK    7  A    between atoms: C_18  and  C_26
REMARK    8  A    between atoms: C_19  and  C_21
REMARK                            x       y       z     vdW  Elec       q    Type
REMARK                         _______ _______ _______ _____ _____    ______ ____
ROOT
ATOM      1  C   UNL     1       4.348   0.875  -7.685  0.00  0.00    +0.128 A 
ATOM      2  C   UNL     1       5.027   0.770  -8.893  0.00  0.00    +0.057 A 
ATOM      3  C   UNL     1       5.402   1.931  -9.569  0.00  0.00    +0.046 A 
ATOM      4  C   UNL     1       5.075   3.172  -8.994  0.00  0.00    +0.098 A 
ATOM      5  C   UNL     1       4.385   3.191  -7.765  0.00  0.00    +0.091 A 
ATOM      6  N   UNL     1       4.048   2.060  -7.167  0.00  0.00    -0.241 NA
ENDROOT
BRANCH   5   7
ATOM      7  C   UNL     1       4.031   4.485  -7.142  0.00  0.00    +0.009 A 
ATOM      8  C   UNL     1       2.845   4.634  -6.422  0.00  0.00    +0.017 A 
ATOM      9  C   UNL     1       2.614   5.856  -5.892  0.00  0.00    +0.046 A 
ATOM     10  S   UNL     1       4.052   6.773  -6.405  0.00  0.00    -0.104 S 
ATOM     11  C   UNL     1       4.858   5.564  -7.249  0.00  0.00    +0.055 A 
ENDBRANCH   5   7
BRANCH   1  13
ATOM     12  N   UNL     1       3.285  -0.270  -5.795  0.00  0.00    -0.306 N 
ATOM     13  C   UNL     1       3.948  -0.358  -6.965  0.00  0.00    +0.263 C 
ATOM     14  O   UNL     1       4.218  -1.448  -7.430  0.00  0.00    -0.269 OA
ATOM     15  H   UNL     1       3.070   0.600  -5.424  0.00  0.00    +0.149 HD
BRANCH  12  16
ATOM     16  C   UNL     1       2.890  -1.488  -5.084  0.00  0.00    +0.140 C 
BRANCH  16  20
ATOM     17  C   UNL     1       0.845  -0.437  -1.483  0.00  0.00    +0.088 A 
ATOM     18  C   UNL     1       0.135  -0.613  -2.656  0.00  0.00    +0.027 A 
ATOM     19  C   UNL     1       0.796  -0.953  -3.821  0.00  0.00    +0.007 A 
ATOM     20  C   UNL     1       2.169  -1.117  -3.814  0.00  0.00    -0.030 A 
ATOM     21  C   UNL     1       2.880  -0.941  -2.641  0.00  0.00    +0.007 A 
ATOM     22  C   UNL     1       2.219  -0.596  -1.477  0.00  0.00    +0.027 A 
BRANCH  17  24
ATOM     23  C   UNL     1      -0.022   1.810   0.012  0.00  0.00    +0.200 C 
ATOM     24  S   UNL     1       0.002  -0.004   0.002  0.00  0.00    -0.006 S 
ATOM     25  O   UNL     1       0.835  -0.488   1.046  0.00  0.00    -0.170 OA
ATOM     26  O   UNL     1      -1.315  -0.510  -0.168  0.00  0.00    -0.170 OA
ENDBRANCH  17  24
ENDBRANCH  16  20
ENDBRANCH  12  16
ENDBRANCH   1  13
BRANCH   3  27
ATOM     27  N   UNL     1       6.080   1.863 -10.777  0.00  0.00    -0.357 N 
ATOM     28  H   UNL     1       6.299   1.001 -11.162  0.00  0.00    +0.142 HD
ATOM     29  H   UNL     1       6.335   2.679 -11.236  0.00  0.00    +0.142 HD
ENDBRANCH   3  27
BRANCH   4  30
ATOM     30  C   UNL     1       5.436   4.396  -9.645  0.00  0.00    +0.103 C 
ATOM     31  N   UNL     1       5.723   5.366 -10.162  0.00  0.00    -0.191 NA
ENDBRANCH   4  30
TORSDOF 7
