REMARK  Name = CHEMBL494072
REMARK  7 active torsions:
REMARK  status: ('A' for Active; 'I' for Inactive)
REMARK    1  A    between atoms: C_1  and  C_2
REMARK    2  A    between atoms: C_5  and  C_27
REMARK    3  A    between atoms: C_7  and  C_8
REMARK    4  A    between atoms: N_18  and  C_19
REMARK    5  A    between atoms: C_19  and  C_20
REMARK    6  A    between atoms: C_20  and  N_21
REMARK    7  A    between atoms: N_29  and  C_30
REMARK                            x       y       z     vdW  Elec       q    Type
REMARK                         _______ _______ _______ _____ _____    ______ ____
ROOT
ATOM      1  C   UNL     1       0.026   0.030   2.495  0.00  0.00    -0.017 A 
ATOM      2  C   UNL     1       0.944   1.071   2.700  0.00  0.00    +0.010 A 
ATOM      3  C   UNL     1       0.969   1.762   3.871  0.00  0.00    +0.029 A 
ATOM      4  C   UNL     1       0.066   1.435   4.895  0.00  0.00    +0.076 A 
ATOM      5  C   UNL     1      -0.867   0.383   4.698  0.00  0.00    +0.019 A 
ATOM      6  C   UNL     1      -0.881  -0.313   3.483  0.00  0.00    +0.020 A 
ATOM      7  C   UNL     1      -1.761   0.077   5.742  0.00  0.00    +0.124 A 
ATOM      8  N   UNL     1      -1.692   0.779   6.853  0.00  0.00    -0.222 NA
ATOM      9  C   UNL     1      -0.804   1.760   7.004  0.00  0.00    +0.216 A 
ATOM     10  N   UNL     1       0.057   2.091   6.062  0.00  0.00    -0.215 NA
ATOM     11  N   UNL     1      -0.784   2.459   8.197  0.00  0.00    -0.315 N 
ATOM     12  H   UNL     1      -0.145   3.177   8.328  0.00  0.00    +0.149 HD
ENDROOT
BRANCH   1  19
ATOM     13  C   UNL     1      -0.018   1.503   0.010  0.00  0.00    +0.044 C 
ATOM     14  C   UNL     1       0.002  -0.004   0.002  0.00  0.00    -0.043 A 
ATOM     15  C   UNL     1       0.006  -0.686  -1.199  0.00  0.00    +0.005 A 
ATOM     16  C   UNL     1       0.024  -2.067  -1.216  0.00  0.00    +0.013 A 
ATOM     17  C   UNL     1       0.039  -2.781  -0.016  0.00  0.00    +0.037 A 
ATOM     18  C   UNL     1       0.036  -2.097   1.199  0.00  0.00    +0.021 A 
ATOM     19  C   UNL     1       0.023  -0.706   1.207  0.00  0.00    -0.014 A 
BRANCH  17  20
ATOM     20  C   UNL     1       0.058  -4.260  -0.034  0.00  0.00    +0.244 C 
ATOM     21  O   UNL     1       0.071  -4.880   1.012  0.00  0.00    -0.270 OA
ATOM     22  N   UNL     1       0.061  -4.919  -1.209  0.00  0.00    -0.308 N 
ATOM     23  H   UNL     1       0.051  -4.424  -2.043  0.00  0.00    +0.149 HD
BRANCH  22  24
ATOM     24  C   UNL     1       0.080  -6.384  -1.227  0.00  0.00    +0.073 C 
ATOM     25  C   UNL     1       1.021  -7.066  -2.222  0.00  0.00    +0.024 C 
ATOM     26  C   UNL     1      -0.490  -7.083  -2.462  0.00  0.00    +0.024 C 
ENDBRANCH  22  24
ENDBRANCH  17  20
ENDBRANCH   1  19
BRANCH  11  27
ATOM     27  C   UNL     1      -1.728   2.115   9.264  0.00  0.00    +0.086 C 
BRANCH  27  28
ATOM     28  C   UNL     1      -1.496   3.033  10.466  0.00  0.00    -0.060 C 
BRANCH  28  29
ATOM     29  N   UNL     1      -2.443   2.688  11.535  0.00  0.00    +0.384 N 
ATOM     30  C   UNL     1      -3.813   2.974  11.087  0.00  0.00    -0.050 C 
ATOM     31  C   UNL     1      -4.797   2.614  12.203  0.00  0.00    +0.141 C 
ATOM     32  O   UNL     1      -4.465   3.353  13.382  0.00  0.00    -0.383 OA
ATOM     33  C   UNL     1      -3.130   3.126  13.844  0.00  0.00    +0.141 C 
ATOM     34  C   UNL     1      -2.143   3.487  12.731  0.00  0.00    -0.050 C 
ATOM     35  H   UNL     1      -2.359   1.707  11.755  0.00  0.00    -0.082 HD
ENDBRANCH  28  29
ENDBRANCH  27  28
ENDBRANCH  11  27
TORSDOF 6
