REMARK  Name = CHEMBL245936
REMARK  5 active torsions:
REMARK  status: ('A' for Active; 'I' for Inactive)
REMARK    1  A    between atoms: C_1  and  C_2
REMARK    2  A    between atoms: C_2  and  N_3
REMARK    3  A    between atoms: C_9  and  N_12
REMARK    4  A    between atoms: C_17  and  C_19
REMARK    5  A    between atoms: C_28  and  C_29
REMARK                            x       y       z     vdW  Elec       q    Type
REMARK                         _______ _______ _______ _____ _____    ______ ____
ROOT
ATOM      1  N   UNL     1       1.075  -3.102  -6.737  0.00  0.00    -0.311 N 
ATOM      2  C   UNL     1       1.432  -4.230  -7.455  0.00  0.00    +0.216 A 
ATOM      3  N   UNL     1       2.308  -5.077  -6.934  0.00  0.00    -0.223 NA
ATOM      4  C   UNL     1       2.676  -6.168  -7.588  0.00  0.00    +0.116 A 
ATOM      5  C   UNL     1       2.135  -6.425  -8.833  0.00  0.00    +0.048 A 
ATOM      6  C   UNL     1       1.211  -5.514  -9.360  0.00  0.00    +0.079 A 
ATOM      7  N   UNL     1       0.885  -4.438  -8.642  0.00  0.00    -0.214 NA
ATOM      8  H   UNL     1       0.432  -2.476  -7.105  0.00  0.00    +0.149 HD
ENDROOT
BRANCH   1  15
ATOM      9  N   UNL     1       1.118  -0.033  -1.478  0.00  0.00    -0.300 N 
ATOM     10  C   UNL     1       1.114  -1.372  -1.630  0.00  0.00    +0.302 C 
ATOM     11  O   UNL     1       0.654  -2.082  -0.757  0.00  0.00    -0.253 OA
ATOM     12  N   UNL     1       1.621  -1.925  -2.750  0.00  0.00    -0.286 N 
ATOM     13  C   UNL     1       2.287  -1.092  -3.761  0.00  0.00    +0.111 C 
ATOM     14  C   UNL     1       1.634  -1.353  -5.122  0.00  0.00    +0.041 C 
ATOM     15  C   UNL     1       1.669  -2.853  -5.421  0.00  0.00    +0.076 C 
ATOM     16  C   UNL     1       0.875  -3.607  -4.353  0.00  0.00    +0.041 C 
ATOM     17  C   UNL     1       1.524  -3.373  -2.980  0.00  0.00    +0.111 C 
ATOM     18  H   UNL     1       1.551   0.529  -2.140  0.00  0.00    +0.150 HD
BRANCH   9  20
ATOM     19  C   UNL     1       0.617   2.095  -0.383  0.00  0.00    +0.024 C 
ATOM     20  C   UNL     1       0.469   0.574  -0.314  0.00  0.00    +0.102 C 
ENDBRANCH   9  20
ENDBRANCH   1  15
BRANCH   6  21
ATOM     21  C   UNL     1       0.605  -5.742 -10.687  0.00  0.00    +0.033 A 
ATOM     22  C   UNL     1       1.306  -6.125 -11.922  0.00  0.00    +0.009 A 
ATOM     23  C   UNL     1       2.643  -6.377 -12.233  0.00  0.00    +0.010 A 
ATOM     24  C   UNL     1       2.990  -6.722 -13.509  0.00  0.00    +0.001 A 
ATOM     25  C   UNL     1       2.022  -6.823 -14.498  0.00  0.00    +0.002 A 
ATOM     26  C   UNL     1       0.697  -6.578 -14.212  0.00  0.00    +0.026 A 
ATOM     27  C   UNL     1       0.321  -6.226 -12.919  0.00  0.00    +0.048 A 
ATOM     28  N   UNL     1      -0.896  -5.928 -12.343  0.00  0.00    -0.354 N 
ATOM     29  H   UNL     1      -1.745  -5.924 -12.812  0.00  0.00    +0.166 HD
ATOM     30  C   UNL     1      -0.734  -5.645 -11.012  0.00  0.00    +0.057 A 
BRANCH  30  31
ATOM     31  C   UNL     1      -1.819  -5.288 -10.076  0.00  0.00    -0.001 A 
ATOM     32  C   UNL     1      -1.867  -5.867  -8.806  0.00  0.00    +0.010 A 
ATOM     33  C   UNL     1      -2.883  -5.529  -7.936  0.00  0.00    +0.001 A 
ATOM     34  C   UNL     1      -3.852  -4.619  -8.319  0.00  0.00    +0.000 A 
ATOM     35  C   UNL     1      -3.810  -4.042  -9.575  0.00  0.00    +0.001 A 
ATOM     36  C   UNL     1      -2.797  -4.366 -10.454  0.00  0.00    +0.010 A 
ENDBRANCH  30  31
ENDBRANCH   6  21
TORSDOF 4
