REMARK  Name = CHEMBL392615
REMARK  5 active torsions:
REMARK  status: ('A' for Active; 'I' for Inactive)
REMARK    1  A    between atoms: C_1  and  N_2
REMARK    2  A    between atoms: C_3  and  C_5
REMARK    3  A    between atoms: C_5  and  N_6
REMARK    4  A    between atoms: C_10  and  N_13
REMARK    5  A    between atoms: C_18  and  C_20
REMARK                            x       y       z     vdW  Elec       q    Type
REMARK                         _______ _______ _______ _____ _____    ______ ____
ROOT
ATOM      1  N   UNL     1      -4.840  -3.812  -1.295  0.00  0.00    -0.309 N 
ATOM      2  C   UNL     1      -5.815  -4.461  -2.033  0.00  0.00    +0.216 A 
ATOM      3  N   UNL     1      -6.163  -5.695  -1.699  0.00  0.00    -0.221 NA
ATOM      4  C   UNL     1      -7.093  -6.350  -2.379  0.00  0.00    +0.136 A 
ATOM      5  C   UNL     1      -7.706  -5.733  -3.454  0.00  0.00    +0.085 A 
ATOM      6  C   UNL     1      -7.318  -4.429  -3.784  0.00  0.00    +0.096 A 
ATOM      7  N   UNL     1      -6.379  -3.830  -3.051  0.00  0.00    -0.213 NA
ATOM      8 CL   UNL     1      -8.928  -6.556  -4.372  0.00  0.00    -0.080 Cl
ATOM      9  H   UNL     1      -4.578  -2.908  -1.526  0.00  0.00    +0.149 HD
ENDROOT
BRANCH   6  10
ATOM     10  C   UNL     1      -7.943  -3.725  -4.924  0.00  0.00    +0.027 A 
ATOM     11  C   UNL     1      -9.271  -3.629  -5.189  0.00  0.00    +0.093 A 
ATOM     12  N   UNL     1      -9.463  -2.903  -6.325  0.00  0.00    -0.360 N 
ATOM     13  H   UNL     1     -10.329  -2.700  -6.713  0.00  0.00    +0.165 HD
ATOM     14  C   UNL     1      -8.252  -2.498  -6.843  0.00  0.00    +0.047 A 
ATOM     15  C   UNL     1      -7.247  -2.986  -5.991  0.00  0.00    +0.009 A 
ATOM     16  C   UNL     1      -5.907  -2.721  -6.268  0.00  0.00    +0.010 A 
ATOM     17  C   UNL     1      -5.575  -1.976  -7.379  0.00  0.00    +0.001 A 
ATOM     18  C   UNL     1      -6.567  -1.491  -8.219  0.00  0.00    +0.002 A 
ATOM     19  C   UNL     1      -7.895  -1.752  -7.962  0.00  0.00    +0.026 A 
ENDBRANCH   6  10
BRANCH   1  24
ATOM     20  N   UNL     1      -2.955  -2.464   0.405  0.00  0.00    -0.292 NA
ATOM     21  C   UNL     1      -3.737  -2.270   1.632  0.00  0.00    +0.085 C 
ATOM     22  C   UNL     1      -5.149  -2.825   1.432  0.00  0.00    +0.017 C 
ATOM     23  C   UNL     1      -5.063  -4.315   1.090  0.00  0.00    +0.025 C 
ATOM     24  C   UNL     1      -4.203  -4.493  -0.165  0.00  0.00    +0.087 C 
ATOM     25  C   UNL     1      -2.818  -3.890   0.082  0.00  0.00    +0.107 C 
BRANCH  20  26
ATOM     26  C   UNL     1      -1.639  -1.820   0.512  0.00  0.00    +0.180 C 
BRANCH  26  29
ATOM     27  C   UNL     1      -0.909   1.928   0.787  0.00  0.00    +0.128 C 
ATOM     28  N   UNL     1      -0.737   0.475   0.704  0.00  0.00    -0.317 N 
ATOM     29  C   UNL     1      -1.816  -0.326   0.598  0.00  0.00    +0.227 C 
ATOM     30  O   UNL     1      -2.929   0.155   0.573  0.00  0.00    -0.274 OA
ATOM     31  H   UNL     1       0.153   0.091   0.724  0.00  0.00    +0.148 HD
ENDBRANCH  26  29
ENDBRANCH  20  26
ENDBRANCH   1  24
TORSDOF 4
