REMARK  Name = CHEMBL193494
REMARK  9 active torsions:
REMARK  status: ('A' for Active; 'I' for Inactive)
REMARK    1  A    between atoms: C_4  and  C_7
REMARK    2  A    between atoms: C_7  and  C_8
REMARK    3  A    between atoms: C_8  and  C_10
REMARK    4  A    between atoms: C_8  and  N_34
REMARK    5  A    between atoms: C_10  and  N_11
REMARK    6  A    between atoms: C_14  and  C_28
REMARK    7  A    between atoms: C_15  and  C_18
REMARK    8  A    between atoms: C_35  and  C_37
REMARK    9  A    between atoms: C_37  and  O_38
REMARK                            x       y       z     vdW  Elec       q    Type
REMARK                         _______ _______ _______ _____ _____    ______ ____
ROOT
ATOM      1  N   UNL     1       5.956  -1.957   2.732  0.00  0.00    -0.326 N 
ATOM      2  C   UNL     1       7.105  -2.700   2.979  0.00  0.00    +0.140 A 
ATOM      3  C   UNL     1       7.873  -3.168   1.915  0.00  0.00    +0.055 A 
ATOM      4  C   UNL     1       9.018  -3.908   2.213  0.00  0.00    +0.011 A 
ATOM      5  C   UNL     1       9.319  -4.131   3.573  0.00  0.00    +0.073 A 
ATOM      6  N   UNL     1       8.520  -3.639   4.511  0.00  0.00    -0.275 N 
ATOM      7  N   UNL     1       7.472  -2.956   4.227  0.00  0.00    -0.158 NA
ATOM      8  H   UNL     1       5.423  -1.627   3.472  0.00  0.00    +0.148 HD
ATOM      9  H   UNL     1       8.737  -3.799   5.442  0.00  0.00    +0.189 HD
ENDROOT
BRANCH   5  10
ATOM     10  C   UNL     1      10.519  -4.909   3.951  0.00  0.00    +0.008 A 
ATOM     11  C   UNL     1      11.577  -4.292   4.599  0.00  0.00    +0.010 A 
ATOM     12  C   UNL     1      12.708  -5.017   4.957  0.00  0.00    +0.001 A 
ATOM     13  C   UNL     1      12.809  -6.348   4.683  0.00  0.00    +0.008 A 
ATOM     14  C   UNL     1      11.759  -7.013   4.027  0.00  0.00    -0.017 A 
ATOM     15  C   UNL     1      10.597  -6.292   3.661  0.00  0.00    -0.009 A 
ATOM     16  C   UNL     1       9.547  -6.959   3.012  0.00  0.00    +0.009 A 
ATOM     17  C   UNL     1       9.656  -8.291   2.748  0.00  0.00    +0.001 A 
ATOM     18  C   UNL     1      10.796  -9.003   3.114  0.00  0.00    +0.001 A 
ATOM     19  C   UNL     1      11.838  -8.386   3.733  0.00  0.00    +0.008 A 
ENDBRANCH   5  10
BRANCH   4  20
ATOM     20  C   UNL     1       9.887  -4.442   1.138  0.00  0.00    -0.013 A 
ATOM     21  C   UNL     1      11.252  -4.141   1.101  0.00  0.00    +0.028 A 
ATOM     22  C   UNL     1      12.025  -4.659   0.083  0.00  0.00    +0.111 A 
ATOM     23  N   UNL     1      11.492  -5.428  -0.847  0.00  0.00    -0.263 NA
ATOM     24  C   UNL     1      10.210  -5.737  -0.850  0.00  0.00    +0.111 A 
ATOM     25  C   UNL     1       9.366  -5.266   0.136  0.00  0.00    +0.028 A 
ENDBRANCH   4  20
BRANCH   1  26
ATOM     26  C   UNL     1       5.550  -1.674   1.353  0.00  0.00    +0.125 C 
BRANCH  26  27
ATOM     27  C   UNL     1       4.262  -0.847   1.361  0.00  0.00    +0.094 C 
BRANCH  27  28
ATOM     28  N   UNL     1       4.460   0.357   2.171  0.00  0.00    -0.309 N 
ATOM     29  C   UNL     1       5.416   1.246   1.835  0.00  0.00    +0.239 C 
ATOM     30  O   UNL     1       6.112   1.049   0.862  0.00  0.00    -0.273 OA
ATOM     31  H   UNL     1       3.903   0.515   2.949  0.00  0.00    +0.149 HD
BRANCH  29  32
ATOM     32  C   UNL     1       5.619   2.485   2.668  0.00  0.00    +0.251 C 
BRANCH  32  33
ATOM     33  O   UNL     1       6.681   3.263   2.114  0.00  0.00    -0.386 OA
ATOM     34  H   UNL     1       6.868   4.078   2.600  0.00  0.00    +0.210 HD
ENDBRANCH  32  33
ENDBRANCH  29  32
ENDBRANCH  27  28
BRANCH  27  35
ATOM     35  C   UNL     1       3.906  -0.445  -0.072  0.00  0.00    +0.059 C 
BRANCH  35  39
ATOM     36  C   UNL     1       0.135   1.562  -0.094  0.00  0.00    +0.000 A 
ATOM     37  C   UNL     1       1.302   2.285   0.066  0.00  0.00    +0.000 A 
ATOM     38  C   UNL     1       2.522   1.636   0.074  0.00  0.00    +0.004 A 
ATOM     39  C   UNL     1       2.575   0.263  -0.079  0.00  0.00    -0.046 A 
ATOM     40  C   UNL     1       1.408  -0.460  -0.238  0.00  0.00    +0.004 A 
ATOM     41  C   UNL     1       0.188   0.189  -0.246  0.00  0.00    +0.000 A 
ENDBRANCH  35  39
ENDBRANCH  27  35
ENDBRANCH  26  27
ENDBRANCH   1  26
TORSDOF 9
