REMARK  Name = CHEMBL250199
REMARK  6 active torsions:
REMARK  status: ('A' for Active; 'I' for Inactive)
REMARK    1  A    between atoms: C_1  and  S_2
REMARK    2  A    between atoms: S_2  and  N_5
REMARK    3  A    between atoms: N_5  and  C_6
REMARK    4  A    between atoms: N_5  and  S_26
REMARK    5  A    between atoms: C_9  and  C_12
REMARK    6  A    between atoms: S_26  and  C_29
REMARK                            x       y       z     vdW  Elec       q    Type
REMARK                         _______ _______ _______ _____ _____    ______ ____
ROOT
ATOM      1  C   UNL     1       2.316  -0.745  -1.083  0.00  0.00    +0.075 A 
ATOM      2  C   UNL     1       2.861  -0.724   0.196  0.00  0.00    +0.027 A 
ATOM      3  C   UNL     1       4.185  -1.054   0.388  0.00  0.00    +0.010 A 
ATOM      4  C   UNL     1       4.978  -1.411  -0.701  0.00  0.00    -0.016 A 
ATOM      5  C   UNL     1       4.430  -1.433  -1.983  0.00  0.00    +0.010 A 
ATOM      6  C   UNL     1       3.104  -1.106  -2.170  0.00  0.00    +0.027 A 
ENDROOT
BRANCH   4   7
ATOM      7  C   UNL     1       6.403  -1.767  -0.497  0.00  0.00    +0.001 A 
ATOM      8  C   UNL     1       7.203  -2.119  -1.581  0.00  0.00    +0.020 A 
ATOM      9  C   UNL     1       8.537  -2.445  -1.334  0.00  0.00    +0.010 A 
ATOM     10  C   UNL     1       9.029  -2.409  -0.008  0.00  0.00    +0.072 A 
ATOM     11  C   UNL     1      10.381  -2.739   0.246  0.00  0.00    +0.029 A 
ATOM     12  C   UNL     1      11.222  -3.091  -0.748  0.00  0.00    +0.011 A 
ATOM     13  C   UNL     1      10.789  -3.145  -2.090  0.00  0.00    -0.014 A 
ATOM     14  C   UNL     1       9.449  -2.827  -2.414  0.00  0.00    +0.009 A 
ATOM     15  C   UNL     1       9.044  -2.888  -3.747  0.00  0.00    +0.119 A 
ATOM     16  N   UNL     1       9.904  -3.238  -4.680  0.00  0.00    -0.263 NA
ATOM     17  C   UNL     1      11.163  -3.541  -4.409  0.00  0.00    +0.111 A 
ATOM     18  C   UNL     1      11.652  -3.509  -3.135  0.00  0.00    +0.028 A 
ATOM     19  N   UNL     1       8.216  -2.064   0.993  0.00  0.00    -0.254 NA
ATOM     20  C   UNL     1       6.961  -1.747   0.788  0.00  0.00    +0.120 A 
ENDBRANCH   4   7
BRANCH   1  21
ATOM     21  N   UNL     1       0.975  -0.409  -1.275  0.00  0.00    -0.079 N 
BRANCH  21  23
ATOM     22  C   UNL     1       0.439   2.229  -1.847  0.00  0.00    +0.220 C 
ATOM     23  S   UNL     1       0.352   0.950  -0.564  0.00  0.00    +0.061 S 
ATOM     24  O   UNL     1       1.254   1.253   0.491  0.00  0.00    -0.154 OA
ATOM     25  O   UNL     1      -1.004   0.625  -0.288  0.00  0.00    -0.154 OA
ENDBRANCH  21  23
BRANCH  21  26
ATOM     26  S   UNL     1       0.007  -1.371  -2.214  0.00  0.00    +0.061 S 
ATOM     27  O   UNL     1       0.666  -2.629  -2.244  0.00  0.00    -0.154 OA
ATOM     28  O   UNL     1      -1.289  -1.244  -1.647  0.00  0.00    -0.154 OA
ATOM     29  C   UNL     1       0.046  -0.606  -3.859  0.00  0.00    +0.220 C 
ENDBRANCH  21  26
ENDBRANCH   1  21
TORSDOF 4
