REMARK  Name = CHEMBL1094013
REMARK  9 active torsions:
REMARK  status: ('A' for Active; 'I' for Inactive)
REMARK    1  A    between atoms: C_1  and  C_2
REMARK    2  A    between atoms: C_2  and  C_3
REMARK    3  A    between atoms: C_3  and  N_4
REMARK    4  A    between atoms: C_9  and  C_11
REMARK    5  A    between atoms: C_12  and  C_29
REMARK    6  A    between atoms: C_16  and  C_20
REMARK    7  A    between atoms: C_20  and  C_21
REMARK    8  A    between atoms: C_24  and  O_27
REMARK    9  A    between atoms: O_27  and  C_28
REMARK                            x       y       z     vdW  Elec       q    Type
REMARK                         _______ _______ _______ _____ _____    ______ ____
ROOT
ATOM      1  C   UNL     1       1.913  -6.120  -3.292  0.00  0.00    +0.093 A 
ATOM      2  C   UNL     1       1.820  -6.945  -2.186  0.00  0.00    +0.074 A 
ATOM      3  N   UNL     1       1.860  -8.213  -2.627  0.00  0.00    -0.343 N 
ATOM      4  C   UNL     1       1.969  -8.223  -3.933  0.00  0.00    +0.088 A 
ATOM      5  N   UNL     1       2.003  -6.956  -4.388  0.00  0.00    -0.324 N 
ATOM      6  C   UNL     1       2.124  -6.919  -5.853  0.00  0.00    +0.094 C 
ATOM      7  C   UNL     1       1.726  -8.330  -6.336  0.00  0.00    +0.033 C 
ATOM      8  C   UNL     1       2.065  -9.192  -5.096  0.00  0.00    +0.074 C 
ATOM      9  H   UNL     1       1.815  -9.002  -2.064  0.00  0.00    +0.167 HD
ENDROOT
BRANCH   1  15
ATOM     10  N   UNL     1       0.738  -1.962  -1.265  0.00  0.00    -0.313 N 
ATOM     11  C   UNL     1       1.337  -2.641  -2.312  0.00  0.00    +0.216 A 
ATOM     12  N   UNL     1       1.892  -1.948  -3.297  0.00  0.00    -0.223 NA
ATOM     13  C   UNL     1       2.475  -2.558  -4.318  0.00  0.00    +0.116 A 
ATOM     14  C   UNL     1       2.504  -3.939  -4.354  0.00  0.00    +0.050 A 
ATOM     15  C   UNL     1       1.909  -4.646  -3.300  0.00  0.00    +0.094 A 
ATOM     16  N   UNL     1       1.345  -3.964  -2.302  0.00  0.00    -0.213 NA
ATOM     17  H   UNL     1       0.332  -2.457  -0.536  0.00  0.00    +0.149 HD
BRANCH  10  18
ATOM     18  C   UNL     1       0.718  -0.497  -1.257  0.00  0.00    +0.104 C 
BRANCH  18  20
ATOM     19  C   UNL     1      -0.019   1.526   0.010  0.00  0.00    +0.005 C 
ATOM     20  C   UNL     1       0.002  -0.004   0.002  0.00  0.00    +0.015 C 
ENDBRANCH  18  20
ENDBRANCH  10  18
ENDBRANCH   1  15
BRANCH   2  21
ATOM     21  C   UNL     1       1.700  -6.510  -0.775  0.00  0.00    +0.001 A 
ATOM     22  C   UNL     1       2.509  -5.484  -0.287  0.00  0.00    +0.013 A 
ATOM     23  C   UNL     1       2.393  -5.083   1.027  0.00  0.00    +0.039 A 
ATOM     24  C   UNL     1       1.475  -5.698   1.863  0.00  0.00    +0.123 A 
ATOM     25  C   UNL     1       0.669  -6.718   1.384  0.00  0.00    +0.039 A 
ATOM     26  C   UNL     1       0.773  -7.122   0.069  0.00  0.00    +0.013 A 
ATOM     27  F   UNL     1       1.365  -5.302   3.150  0.00  0.00    -0.205 F 
ENDBRANCH   2  21
BRANCH   6  28
ATOM     28  C   UNL     1       1.176  -5.870  -6.436  0.00  0.00    +0.060 C 
BRANCH  28  29
ATOM     29  C   UNL     1       1.402  -5.759  -7.922  0.00  0.00    -0.045 A 
ATOM     30  C   UNL     1       2.333  -4.863  -8.414  0.00  0.00    +0.007 A 
ATOM     31  C   UNL     1       2.541  -4.760  -9.776  0.00  0.00    +0.046 A 
ATOM     32  C   UNL     1       1.816  -5.556 -10.650  0.00  0.00    +0.120 A 
ATOM     33  C   UNL     1       0.883  -6.455 -10.154  0.00  0.00    +0.046 A 
ATOM     34  C   UNL     1       0.681  -6.558  -8.791  0.00  0.00    +0.007 A 
BRANCH  32  35
ATOM     35  O   UNL     1       2.019  -5.456 -11.990  0.00  0.00    -0.495 OA
ATOM     36  C   UNL     1       1.237  -6.307 -12.830  0.00  0.00    +0.277 C 
ENDBRANCH  32  35
ENDBRANCH  28  29
ENDBRANCH   6  28
TORSDOF 7
