REMARK  Name = CHEMBL1087421
REMARK  3 active torsions:
REMARK  status: ('A' for Active; 'I' for Inactive)
REMARK    1  A    between atoms: C_1  and  O_2
REMARK    2  A    between atoms: O_2  and  C_3
REMARK    3  A    between atoms: C_10  and  C_14
REMARK                            x       y       z     vdW  Elec       q    Type
REMARK                         _______ _______ _______ _____ _____    ______ ____
ROOT
ATOM      1  C   UNL     1      -1.164  -0.753  -0.381  0.00  0.00    +0.139 A 
ATOM      2  C   UNL     1      -2.307   0.027  -0.239  0.00  0.00    +0.051 A 
ATOM      3  C   UNL     1      -3.535  -0.577  -0.105  0.00  0.00    -0.033 A 
ATOM      4  C   UNL     1      -3.633  -1.972  -0.111  0.00  0.00    +0.005 A 
ATOM      5  C   UNL     1      -2.489  -2.752  -0.254  0.00  0.00    +0.034 A 
ATOM      6  C   UNL     1      -1.259  -2.140  -0.394  0.00  0.00    +0.083 A 
ATOM      7 CL   UNL     1       0.172  -3.104  -0.579  0.00  0.00    -0.080 Cl
ATOM      8  C   UNL     1      -4.970  -2.588   0.036  0.00  0.00    +0.073 C 
ATOM      9  N   UNL     1      -6.035  -1.876  -0.196  0.00  0.00    -0.282 NA
ATOM     10  C   UNL     1      -5.956  -0.484  -0.626  0.00  0.00    +0.147 C 
ATOM     11  C   UNL     1      -4.792   0.238   0.050  0.00  0.00    +0.059 C 
ENDROOT
BRANCH   8  12
ATOM     12  C   UNL     1      -5.096  -4.006   0.445  0.00  0.00    +0.002 A 
ATOM     13  C   UNL     1      -4.148  -4.577   1.294  0.00  0.00    +0.011 A 
ATOM     14  C   UNL     1      -4.270  -5.898   1.672  0.00  0.00    +0.022 A 
ATOM     15  C   UNL     1      -5.331  -6.658   1.210  0.00  0.00    +0.059 A 
ATOM     16  C   UNL     1      -6.276  -6.097   0.365  0.00  0.00    +0.060 A 
ATOM     17  C   UNL     1      -6.166  -4.774  -0.014  0.00  0.00    +0.031 A 
ATOM     18 CL   UNL     1      -7.602  -7.057  -0.211  0.00  0.00    -0.082 Cl
ATOM     19 CL   UNL     1      -5.477  -8.320   1.689  0.00  0.00    -0.082 Cl
ENDBRANCH   8  12
BRANCH   1  21
ATOM     20  C   UNL     1       0.075   1.272  -0.493  0.00  0.00    +0.277 C 
ATOM     21  O   UNL     1       0.049  -0.157  -0.514  0.00  0.00    -0.494 OA
ENDBRANCH   1  21
TORSDOF 2
