REMARK  Name = CHEMBL571023
REMARK  5 active torsions:
REMARK  status: ('A' for Active; 'I' for Inactive)
REMARK    1  A    between atoms: C_3  and  C_13
REMARK    2  A    between atoms: C_5  and  N_7
REMARK    3  A    between atoms: N_19  and  C_20
REMARK    4  A    between atoms: C_23  and  N_26
REMARK    5  A    between atoms: C_29  and  C_31
REMARK                            x       y       z     vdW  Elec       q    Type
REMARK                         _______ _______ _______ _____ _____    ______ ____
ROOT
ATOM      1  C   UNL     1       3.039   2.054   0.073  0.00  0.00    +0.076 A 
ATOM      2  C   UNL     1       3.099   3.448   0.161  0.00  0.00    +0.048 A 
ATOM      3  C   UNL     1       4.341   4.057   0.133  0.00  0.00    +0.116 A 
ATOM      4  N   UNL     1       5.427   3.308   0.026  0.00  0.00    -0.223 NA
ATOM      5  C   UNL     1       5.340   1.988  -0.055  0.00  0.00    +0.220 A 
ATOM      6  N   UNL     1       4.173   1.365  -0.028  0.00  0.00    -0.214 NA
ATOM      7  N   UNL     1       6.501   1.241  -0.167  0.00  0.00    -0.284 N 
ATOM      8  H   UNL     1       6.450   0.283  -0.310  0.00  0.00    +0.155 HD
ENDROOT
BRANCH   1  11
ATOM      9  C   UNL     1      -0.670   1.433   0.123  0.00  0.00    +0.002 A 
ATOM     10  C   UNL     1       0.546   2.087   0.100  0.00  0.00    +0.010 A 
ATOM     11  C   UNL     1       1.732   1.354   0.099  0.00  0.00    +0.002 A 
ATOM     12  C   UNL     1       1.685  -0.038   0.122  0.00  0.00    +0.033 A 
ATOM     13  C   UNL     1       0.460  -0.687   0.145  0.00  0.00    +0.030 A 
ATOM     14  C   UNL     1      -0.717   0.053   0.146  0.00  0.00    +0.023 A 
BRANCH  13  15
ATOM     15  N   UNL     1       0.408  -2.083   0.168  0.00  0.00    -0.325 N 
ATOM     16  C   UNL     1       1.635  -2.888   0.053  0.00  0.00    +0.133 C 
ATOM     17  C   UNL     1       1.650  -3.912   1.193  0.00  0.00    +0.178 C 
ATOM     18  O   UNL     1       0.415  -4.632   1.195  0.00  0.00    -0.377 OA
ATOM     19  C   UNL     1      -0.736  -3.820   1.437  0.00  0.00    +0.178 C 
ATOM     20  C   UNL     1      -0.873  -2.791   0.314  0.00  0.00    +0.133 C 
ENDBRANCH  13  15
ENDBRANCH   1  11
BRANCH   7  21
ATOM     21  C   UNL     1       7.748   1.869  -0.074  0.00  0.00    +0.034 A 
ATOM     22  C   UNL     1       7.920   2.949   0.783  0.00  0.00    +0.025 A 
ATOM     23  C   UNL     1       9.150   3.568   0.875  0.00  0.00    +0.029 A 
ATOM     24  C   UNL     1      10.216   3.111   0.111  0.00  0.00    +0.067 A 
ATOM     25  C   UNL     1      10.045   2.032  -0.746  0.00  0.00    +0.029 A 
ATOM     26  C   UNL     1       8.816   1.408  -0.834  0.00  0.00    +0.025 A 
BRANCH  24  27
ATOM     27  N   UNL     1      11.466   3.740   0.204  0.00  0.00    -0.220 N 
ATOM     28  C   UNL     1      12.585   3.416  -0.474  0.00  0.00    +0.225 A 
ATOM     29  N   UNL     1      13.536   4.236  -0.111  0.00  0.00    -0.214 NA
ATOM     30  C   UNL     1      13.067   5.101   0.798  0.00  0.00    +0.183 A 
ATOM     31  N   UNL     1      11.797   4.836   1.017  0.00  0.00    -0.145 NA
BRANCH  30  32
ATOM     32  C   UNL     1      13.849   6.182   1.447  0.00  0.00    +0.039 A 
ATOM     33  C   UNL     1      15.195   6.377   1.124  0.00  0.00    +0.014 A 
ATOM     34  C   UNL     1      15.880   7.399   1.756  0.00  0.00    +0.020 A 
ATOM     35  C   UNL     1      15.218   8.188   2.679  0.00  0.00    +0.111 A 
ATOM     36  N   UNL     1      13.947   7.980   2.963  0.00  0.00    -0.263 NA
ATOM     37  C   UNL     1      13.252   7.024   2.382  0.00  0.00    +0.122 A 
ENDBRANCH  30  32
ENDBRANCH  24  27
ENDBRANCH   7  21
TORSDOF 5
