REMARK  Name = CHEMBL193563
REMARK  6 active torsions:
REMARK  status: ('A' for Active; 'I' for Inactive)
REMARK    1  A    between atoms: C_1  and  C_2
REMARK    2  A    between atoms: C_2  and  C_3
REMARK    3  A    between atoms: C_2  and  C_4
REMARK    4  A    between atoms: C_4  and  C_5
REMARK    5  A    between atoms: C_14  and  C_28
REMARK    6  A    between atoms: C_15  and  C_18
REMARK                            x       y       z     vdW  Elec       q    Type
REMARK                         _______ _______ _______ _____ _____    ______ ____
ROOT
ATOM      1  C   UNL     1      -1.422  -2.210  -0.447  0.00  0.00    -0.054 C 
ATOM      2  C   UNL     1      -2.816  -2.845  -0.418  0.00  0.00    +0.091 C 
ATOM      3  N   UNL     1      -2.662  -4.307  -0.375  0.00  0.00    -0.317 N 
ATOM      4  C   UNL     1      -1.773  -4.940  -1.362  0.00  0.00    +0.087 C 
ATOM      5  C   UNL     1      -0.428  -4.206  -1.346  0.00  0.00    -0.063 C 
ATOM      6  N   UNL     1      -0.652  -2.771  -1.564  0.00  0.00    +0.383 N 
ATOM      7  C   UNL     1      -3.336  -5.069   0.572  0.00  0.00    +0.144 A 
ATOM      8  C   UNL     1      -4.255  -4.464   1.427  0.00  0.00    +0.056 A 
ATOM      9  C   UNL     1      -4.907  -5.270   2.360  0.00  0.00    +0.013 A 
ATOM     10  C   UNL     1      -4.590  -6.644   2.375  0.00  0.00    +0.102 A 
ATOM     11  N   UNL     1      -3.698  -7.120   1.517  0.00  0.00    -0.147 NA
ATOM     12  N   UNL     1      -3.107  -6.372   0.658  0.00  0.00    -0.134 NA
ATOM     13  H   UNL     1      -1.163  -2.638  -2.424  0.00  0.00    -0.085 HD
ATOM     14  H   UNL     1       0.238  -2.299  -1.629  0.00  0.00    -0.085 HD
ENDROOT
BRANCH  10  15
ATOM     15  C   UNL     1      -5.248  -7.549   3.343  0.00  0.00    +0.010 A 
ATOM     16  C   UNL     1      -5.255  -7.244   4.694  0.00  0.00    +0.011 A 
ATOM     17  C   UNL     1      -5.871  -8.089   5.608  0.00  0.00    +0.001 A 
ATOM     18  C   UNL     1      -6.483  -9.238   5.205  0.00  0.00    +0.008 A 
ATOM     19  C   UNL     1      -6.500  -9.587   3.844  0.00  0.00    -0.017 A 
ATOM     20  C   UNL     1      -5.882  -8.734   2.897  0.00  0.00    -0.009 A 
ATOM     21  C   UNL     1      -5.904  -9.081   1.539  0.00  0.00    +0.009 A 
ATOM     22  C   UNL     1      -6.524 -10.229   1.146  0.00  0.00    +0.001 A 
ATOM     23  C   UNL     1      -7.138 -11.066   2.075  0.00  0.00    +0.001 A 
ATOM     24  C   UNL     1      -7.124 -10.767   3.403  0.00  0.00    +0.008 A 
ENDBRANCH  10  15
BRANCH   9  25
ATOM     25  C   UNL     1      -5.899  -4.702   3.304  0.00  0.00    -0.013 A 
ATOM     26  C   UNL     1      -7.199  -5.212   3.374  0.00  0.00    +0.028 A 
ATOM     27  C   UNL     1      -8.089  -4.654   4.268  0.00  0.00    +0.111 A 
ATOM     28  N   UNL     1      -7.729  -3.653   5.048  0.00  0.00    -0.263 NA
ATOM     29  C   UNL     1      -6.513  -3.142   5.014  0.00  0.00    +0.111 A 
ATOM     30  C   UNL     1      -5.558  -3.645   4.154  0.00  0.00    +0.028 A 
ENDBRANCH   9  25
BRANCH   1  31
ATOM     31  C   UNL     1      -1.554  -0.696  -0.628  0.00  0.00    -0.011 C 
BRANCH  31  33
ATOM     32  C   UNL     1      -0.286   1.447  -0.837  0.00  0.00    +0.007 C 
ATOM     33  C   UNL     1      -0.171  -0.048  -0.532  0.00  0.00    -0.019 C 
ATOM     34  C   UNL     1       0.385  -0.240   0.880  0.00  0.00    +0.007 C 
ENDBRANCH  31  33
ENDBRANCH   1  31
TORSDOF 4
