REMARK  Name = CHEMBL246544
REMARK  4 active torsions:
REMARK  status: ('A' for Active; 'I' for Inactive)
REMARK    1  A    between atoms: C_1  and  C_2
REMARK    2  A    between atoms: C_2  and  N_3
REMARK    3  A    between atoms: C_9  and  N_11
REMARK    4  A    between atoms: C_16  and  C_18
REMARK                            x       y       z     vdW  Elec       q    Type
REMARK                         _______ _______ _______ _____ _____    ______ ____
ROOT
ATOM      1  N   UNL     1       3.549  -4.640  -4.519  0.00  0.00    -0.309 N 
ATOM      2  C   UNL     1       3.192  -5.934  -4.862  0.00  0.00    +0.216 A 
ATOM      3  N   UNL     1       1.936  -6.188  -5.198  0.00  0.00    -0.221 NA
ATOM      4  C   UNL     1       1.553  -7.412  -5.534  0.00  0.00    +0.136 A 
ATOM      5  C   UNL     1       2.482  -8.435  -5.532  0.00  0.00    +0.085 A 
ATOM      6  C   UNL     1       3.803  -8.137  -5.172  0.00  0.00    +0.096 A 
ATOM      7  N   UNL     1       4.115  -6.881  -4.851  0.00  0.00    -0.213 NA
ATOM      8 CL   UNL     1       2.023 -10.053  -5.964  0.00  0.00    -0.080 Cl
ATOM      9  H   UNL     1       4.466  -4.439  -4.274  0.00  0.00    +0.149 HD
ENDROOT
BRANCH   6  10
ATOM     10  C   UNL     1       4.834  -9.196  -5.153  0.00  0.00    +0.027 A 
ATOM     11  C   UNL     1       5.077 -10.109  -6.129  0.00  0.00    +0.093 A 
ATOM     12  N   UNL     1       6.103 -10.921  -5.754  0.00  0.00    -0.360 N 
ATOM     13  H   UNL     1       6.457 -11.650  -6.288  0.00  0.00    +0.165 HD
ATOM     14  C   UNL     1       6.568 -10.559  -4.508  0.00  0.00    +0.047 A 
ATOM     15  C   UNL     1       5.803  -9.462  -4.077  0.00  0.00    +0.009 A 
ATOM     16  C   UNL     1       6.058  -8.877  -2.838  0.00  0.00    +0.010 A 
ATOM     17  C   UNL     1       7.065  -9.376  -2.043  0.00  0.00    +0.001 A 
ATOM     18  C   UNL     1       7.824 -10.457  -2.469  0.00  0.00    +0.002 A 
ATOM     19  C   UNL     1       7.577 -11.052  -3.687  0.00  0.00    +0.026 A 
ENDBRANCH   6  10
BRANCH   1  26
ATOM     20  N   UNL     1       1.057  -0.125  -1.651  0.00  0.00    -0.300 N 
ATOM     21  C   UNL     1       1.178  -1.462  -1.762  0.00  0.00    +0.302 C 
ATOM     22  O   UNL     1       0.815  -2.183  -0.852  0.00  0.00    -0.253 OA
ATOM     23  N   UNL     1       1.702  -2.001  -2.880  0.00  0.00    -0.284 N 
ATOM     24  C   UNL     1       2.187  -1.248  -4.051  0.00  0.00    +0.111 C 
ATOM     25  C   UNL     1       3.208  -2.191  -4.734  0.00  0.00    +0.043 C 
ATOM     26  C   UNL     1       2.542  -3.576  -4.525  0.00  0.00    +0.092 C 
ATOM     27  C   UNL     1       1.891  -3.437  -3.132  0.00  0.00    +0.131 C 
ATOM     28  H   UNL     1       1.347   0.450  -2.376  0.00  0.00    +0.150 HD
BRANCH  20  30
ATOM     29  C   UNL     1       0.463   1.985  -0.566  0.00  0.00    +0.024 C 
ATOM     30  C   UNL     1       0.487   0.461  -0.435  0.00  0.00    +0.102 C 
ENDBRANCH  20  30
ENDBRANCH   1  26
TORSDOF 3
