REMARK  Name = CHEMBL399168
REMARK  4 active torsions:
REMARK  status: ('A' for Active; 'I' for Inactive)
REMARK    1  A    between atoms: C_1  and  N_2
REMARK    2  A    between atoms: C_7  and  C_9
REMARK    3  A    between atoms: C_9  and  C_10
REMARK    4  A    between atoms: C_9  and  C_12
REMARK                            x       y       z     vdW  Elec       q    Type
REMARK                         _______ _______ _______ _____ _____    ______ ____
ROOT
ATOM      1  C   UNL     1       1.170  -4.193  -2.010  0.00  0.00    +0.195 C 
ENDROOT
BRANCH   1   8
ATOM      2  C   UNL     1      -0.018   1.461   0.010  0.00  0.00    +0.128 C 
ATOM      3  N   UNL     1       0.002  -0.004   0.002  0.00  0.00    -0.317 N 
ATOM      4  C   UNL     1       0.601  -0.682  -1.045  0.00  0.00    +0.215 A 
ATOM      5  N   UNL     1       1.156   0.009  -2.030  0.00  0.00    -0.223 NA
ATOM      6  C   UNL     1       1.737  -0.608  -3.046  0.00  0.00    +0.116 A 
ATOM      7  C   UNL     1       1.760  -1.994  -3.071  0.00  0.00    +0.045 A 
ATOM      8  C   UNL     1       1.169  -2.686  -2.025  0.00  0.00    +0.070 A 
ATOM      9  N   UNL     1       0.610  -2.007  -1.037  0.00  0.00    -0.218 NA
ATOM     10  H   UNL     1      -0.404  -0.499   0.731  0.00  0.00    +0.149 HD
ENDBRANCH   1   8
BRANCH   1  11
ATOM     11  C   UNL     1       2.462  -4.689  -1.414  0.00  0.00    +0.102 A 
ATOM     12  N   UNL     1       3.673  -4.468  -1.838  0.00  0.00    -0.242 NA
ATOM     13  C   UNL     1       4.756  -4.971  -1.212  0.00  0.00    +0.079 A 
ATOM     14  C   UNL     1       6.125  -4.839  -1.524  0.00  0.00    +0.029 A 
ATOM     15  C   UNL     1       7.073  -5.437  -0.751  0.00  0.00    +0.002 A 
ATOM     16  C   UNL     1       6.732  -6.192   0.363  0.00  0.00    +0.001 A 
ATOM     17  C   UNL     1       5.401  -6.344   0.702  0.00  0.00    +0.017 A 
ATOM     18  C   UNL     1       4.437  -5.745  -0.072  0.00  0.00    +0.039 A 
ATOM     19  S   UNL     1       2.666  -5.646  -0.045  0.00  0.00    -0.070 S 
ENDBRANCH   1  11
BRANCH   1  20
ATOM     20  C   UNL     1       1.040  -4.697  -3.387  0.00  0.00    +0.079 C 
ATOM     21  N   UNL     1       0.940  -5.086  -4.450  0.00  0.00    -0.195 NA
ENDBRANCH   1  20
TORSDOF 3
