REMARK  Name = CHEMBL485323
REMARK  5 active torsions:
REMARK  status: ('A' for Active; 'I' for Inactive)
REMARK    1  A    between atoms: C_1  and  N_2
REMARK    2  A    between atoms: C_3  and  C_5
REMARK    3  A    between atoms: C_5  and  N_6
REMARK    4  A    between atoms: C_9  and  N_12
REMARK    5  A    between atoms: C_17  and  C_19
REMARK                            x       y       z     vdW  Elec       q    Type
REMARK                         _______ _______ _______ _____ _____    ______ ____
ROOT
ATOM      1  N   UNL     1       2.315  -4.621  -5.794  0.00  0.00    -0.311 N 
ATOM      2  C   UNL     1       2.163  -5.889  -6.329  0.00  0.00    +0.216 A 
ATOM      3  N   UNL     1       1.298  -6.725  -5.773  0.00  0.00    -0.223 NA
ATOM      4  C   UNL     1       1.121  -7.947  -6.254  0.00  0.00    +0.116 A 
ATOM      5  C   UNL     1       1.851  -8.353  -7.353  0.00  0.00    +0.050 A 
ATOM      6  C   UNL     1       2.760  -7.449  -7.923  0.00  0.00    +0.094 A 
ATOM      7  N   UNL     1       2.881  -6.232  -7.387  0.00  0.00    -0.213 NA
ATOM      8  H   UNL     1       2.942  -3.998  -6.194  0.00  0.00    +0.149 HD
ENDROOT
BRANCH   6   9
ATOM      9  C   UNL     1       3.562  -7.833  -9.096  0.00  0.00    +0.092 A 
ATOM     10  C   UNL     1       4.384  -7.011  -9.837  0.00  0.00    +0.141 A 
ATOM     11  N   UNL     1       4.929  -7.734 -10.809  0.00  0.00    -0.235 NA
ATOM     12  C   UNL     1       4.497  -8.988 -10.729  0.00  0.00    +0.138 A 
ATOM     13  N   UNL     1       3.644  -9.087  -9.664  0.00  0.00    -0.298 N 
ATOM     14  C   UNL     1       3.059 -10.277  -9.352  0.00  0.00    +0.093 A 
ATOM     15  C   UNL     1       3.313 -11.382 -10.087  0.00  0.00    +0.018 A 
ATOM     16  C   UNL     1       4.186 -11.315 -11.183  0.00  0.00    +0.005 A 
ATOM     17  C   UNL     1       4.769 -10.128 -11.509  0.00  0.00    +0.047 A 
ENDBRANCH   6   9
BRANCH   1  21
ATOM     18  N   UNL     1       1.381  -2.721  -2.150  0.00  0.00    +0.385 N 
ATOM     19  C   UNL     1       0.634  -2.280  -3.335  0.00  0.00    -0.076 C 
ATOM     20  C   UNL     1       1.386  -2.697  -4.601  0.00  0.00    +0.004 C 
ATOM     21  C   UNL     1       1.530  -4.221  -4.624  0.00  0.00    +0.070 C 
ATOM     22  C   UNL     1       2.245  -4.676  -3.348  0.00  0.00    +0.004 C 
ATOM     23  C   UNL     1       1.461  -4.186  -2.128  0.00  0.00    -0.076 C 
ATOM     24  H   UNL     1       2.312  -2.334  -2.180  0.00  0.00    -0.081 HD
BRANCH  18  25
ATOM     25  C   UNL     1       0.695  -2.251  -0.939  0.00  0.00    +0.019 C 
BRANCH  25  28
ATOM     26  C   UNL     1       0.171   1.376   0.167  0.00  0.00    +0.128 C 
ATOM     27  N   UNL     1       0.147  -0.088   0.129  0.00  0.00    -0.320 N 
ATOM     28  C   UNL     1       0.720  -0.745  -0.899  0.00  0.00    +0.196 C 
ATOM     29  O   UNL     1       1.256  -0.124  -1.792  0.00  0.00    -0.278 OA
ATOM     30  H   UNL     1      -0.282  -0.585   0.843  0.00  0.00    +0.148 HD
ENDBRANCH  25  28
ENDBRANCH  18  25
ENDBRANCH   1  21
TORSDOF 4
