REMARK  Name = CHEMBL197041
REMARK  9 active torsions:
REMARK  status: ('A' for Active; 'I' for Inactive)
REMARK    1  A    between atoms: C_1  and  C_2
REMARK    2  A    between atoms: C_2  and  C_4
REMARK    3  A    between atoms: C_2  and  N_10
REMARK    4  A    between atoms: C_15  and  C_17
REMARK    5  A    between atoms: C_19  and  C_33
REMARK    6  A    between atoms: C_22  and  C_23
REMARK    7  A    between atoms: C_27  and  C_29
REMARK    8  A    between atoms: C_39  and  C_41
REMARK    9  A    between atoms: C_41  and  C_43
REMARK                            x       y       z     vdW  Elec       q    Type
REMARK                         _______ _______ _______ _____ _____    ______ ____
ROOT
ATOM      1  C   UNL     1      -2.320   0.446  -9.790  0.00  0.00    +0.030 A 
ATOM      2  C   UNL     1      -3.574   0.029  -9.332  0.00  0.00    +0.037 A 
ATOM      3  C   UNL     1      -3.814   0.071  -7.969  0.00  0.00    +0.067 A 
ATOM      4  N   UNL     1      -2.876   0.494  -7.142  0.00  0.00    -0.153 NA
ATOM      5  N   UNL     1      -1.721   0.880  -7.547  0.00  0.00    -0.148 NA
ATOM      6  C   UNL     1      -1.384   0.875  -8.830  0.00  0.00    +0.102 A 
ENDROOT
BRANCH   1  12
ATOM      7  N   UNL     1       0.624  -0.740 -13.360  0.00  0.00    -0.307 N 
ATOM      8  C   UNL     1      -0.558  -0.147 -12.950  0.00  0.00    +0.216 A 
ATOM      9  N   UNL     1      -1.360   0.391 -13.858  0.00  0.00    -0.223 NA
ATOM     10  C   UNL     1      -2.498   0.967 -13.506  0.00  0.00    +0.116 A 
ATOM     11  C   UNL     1      -2.852   1.006 -12.168  0.00  0.00    +0.048 A 
ATOM     12  C   UNL     1      -1.986   0.430 -11.234  0.00  0.00    +0.078 A 
ATOM     13  N   UNL     1      -0.860  -0.137 -11.662  0.00  0.00    -0.214 NA
ATOM     14  H   UNL     1       1.218  -1.141 -12.707  0.00  0.00    +0.149 HD
BRANCH   7  16
ATOM     15  C   UNL     1       1.676   0.547 -15.154  0.00  0.00    +0.033 C 
ATOM     16  C   UNL     1       0.977  -0.762 -14.782  0.00  0.00    +0.100 C 
BRANCH  16  17
ATOM     17  C   UNL     1       1.903  -1.920 -15.052  0.00  0.00    -0.027 A 
ATOM     18  C   UNL     1       2.895  -2.238 -14.143  0.00  0.00    +0.005 A 
ATOM     19  C   UNL     1       3.744  -3.300 -14.391  0.00  0.00    +0.000 A 
ATOM     20  C   UNL     1       3.601  -4.045 -15.546  0.00  0.00    +0.000 A 
ATOM     21  C   UNL     1       2.608  -3.728 -16.455  0.00  0.00    +0.000 A 
ATOM     22  C   UNL     1       1.756  -2.668 -16.205  0.00  0.00    +0.005 A 
ENDBRANCH  16  17
ENDBRANCH   7  16
ENDBRANCH   1  12
BRANCH   3  23
ATOM     23  C   UNL     1      -5.151  -0.368  -7.427  0.00  0.00    +0.042 C 
ATOM     24  C   UNL     1      -5.684  -1.530  -8.267  0.00  0.00    +0.029 C 
ATOM     25  C   UNL     1      -7.026  -1.996  -7.693  0.00  0.00    +0.109 C 
ATOM     26  N   UNL     1      -7.933  -0.842  -7.614  0.00  0.00    -0.295 N 
ATOM     27  C   UNL     1      -7.481   0.363  -6.906  0.00  0.00    +0.109 C 
ATOM     28  C   UNL     1      -6.135   0.803  -7.489  0.00  0.00    +0.029 C 
ATOM     29  C   UNL     1      -9.155  -0.889  -8.180  0.00  0.00    +0.282 C 
ATOM     30  O   UNL     1      -9.554  -1.922  -8.677  0.00  0.00    -0.267 OA
BRANCH  29  31
ATOM     31  C   UNL     1     -10.016   0.328  -8.197  0.00  0.00    +0.214 C 
ATOM     32  O   UNL     1     -10.745   0.564  -7.263  0.00  0.00    -0.287 OA
ATOM     33  C   UNL     1      -9.977   1.262  -9.378  0.00  0.00    +0.096 C 
ENDBRANCH  29  31
ENDBRANCH   3  23
BRANCH   6  34
ATOM     34  C   UNL     1      -0.035   1.322  -9.251  0.00  0.00    +0.003 A 
ATOM     35  C   UNL     1       0.112   2.150 -10.364  0.00  0.00    +0.010 A 
ATOM     36  C   UNL     1       1.370   2.564 -10.750  0.00  0.00    +0.001 A 
ATOM     37  C   UNL     1       2.484   2.159 -10.036  0.00  0.00    +0.012 A 
ATOM     38  C   UNL     1       2.344   1.339  -8.931  0.00  0.00    +0.055 A 
ATOM     39  C   UNL     1       1.090   0.923  -8.531  0.00  0.00    +0.022 A 
BRANCH  38  40
ATOM     40  C   UNL     1       3.562   0.903  -8.159  0.00  0.00    +0.417 C 
ATOM     41  F   UNL     1       4.708   1.451  -8.746  0.00  0.00    -0.166 F 
ATOM     42  F   UNL     1       3.459   1.346  -6.836  0.00  0.00    -0.166 F 
ATOM     43  F   UNL     1       3.651  -0.493  -8.177  0.00  0.00    -0.166 F 
ENDBRANCH  38  40
ENDBRANCH   6  34
TORSDOF 7
