REMARK  Name = CHEMBL220227
REMARK  5 active torsions:
REMARK  status: ('A' for Active; 'I' for Inactive)
REMARK    1  A    between atoms: C_1  and  C_2
REMARK    2  A    between atoms: C_2  and  C_3
REMARK    3  A    between atoms: C_2  and  C_4
REMARK    4  A    between atoms: C_5  and  C_16
REMARK    5  A    between atoms: C_6  and  C_9
REMARK                            x       y       z     vdW  Elec       q    Type
REMARK                         _______ _______ _______ _____ _____    ______ ____
ROOT
ATOM      1  C   UNL     1       0.707  -0.490  -1.238  0.00  0.00    +0.148 A 
ATOM      2  C   UNL     1       1.824  -1.263  -1.266  0.00  0.00    +0.052 A 
ATOM      3  C   UNL     1       2.152  -1.488  -2.679  0.00  0.00    +0.121 A 
ATOM      4  N   UNL     1       1.247  -0.859  -3.387  0.00  0.00    -0.077 NA
ATOM      5  O   UNL     1       0.338  -0.238  -2.500  0.00  0.00    -0.358 OA
ENDROOT
BRANCH   3   6
ATOM      6  C   UNL     1       3.293  -2.277  -3.206  0.00  0.00    +0.004 A 
ATOM      7  C   UNL     1       4.509  -2.286  -2.526  0.00  0.00    +0.013 A 
ATOM      8  C   UNL     1       5.567  -3.022  -3.019  0.00  0.00    +0.039 A 
ATOM      9  C   UNL     1       5.421  -3.751  -4.188  0.00  0.00    +0.123 A 
ATOM     10  C   UNL     1       4.213  -3.745  -4.867  0.00  0.00    +0.039 A 
ATOM     11  C   UNL     1       3.149  -3.016  -4.379  0.00  0.00    +0.013 A 
ATOM     12  F   UNL     1       6.460  -4.469  -4.668  0.00  0.00    -0.205 F 
ENDBRANCH   3   6
BRANCH   2  13
ATOM     13  C   UNL     1       2.568  -1.782  -0.094  0.00  0.00    -0.010 A 
ATOM     14  C   UNL     1       3.214  -0.910   0.790  0.00  0.00    +0.028 A 
ATOM     15  C   UNL     1       3.895  -1.435   1.868  0.00  0.00    +0.111 A 
ATOM     16  N   UNL     1       3.943  -2.738   2.070  0.00  0.00    -0.263 NA
ATOM     17  C   UNL     1       3.348  -3.594   1.261  0.00  0.00    +0.111 A 
ATOM     18  C   UNL     1       2.640  -3.154   0.163  0.00  0.00    +0.028 A 
ENDBRANCH   2  13
BRANCH   1  20
ATOM     19  C   UNL     1      -0.019   1.526   0.010  0.00  0.00    +0.015 C 
ATOM     20  C   UNL     1       0.002  -0.004   0.002  0.00  0.00    +0.052 C 
ATOM     21  C   UNL     1      -1.433  -0.534   0.013  0.00  0.00    +0.015 C 
ENDBRANCH   1  20
TORSDOF 3
