REMARK  Name = CHEMBL198687
REMARK  8 active torsions:
REMARK  status: ('A' for Active; 'I' for Inactive)
REMARK    1  A    between atoms: C_5  and  N_7
REMARK    2  A    between atoms: N_7  and  C_8
REMARK    3  A    between atoms: C_17  and  C_18
REMARK    4  A    between atoms: C_22  and  C_24
REMARK    5  A    between atoms: N_26  and  C_27
REMARK    6  A    between atoms: C_27  and  C_28
REMARK    7  A    between atoms: C_28  and  C_29
REMARK    8  A    between atoms: C_29  and  N_30
REMARK                            x       y       z     vdW  Elec       q    Type
REMARK                         _______ _______ _______ _____ _____    ______ ____
ROOT
ATOM      1  C   UNL     1       0.091  -2.874   0.035  0.00  0.00    +0.033 A 
ATOM      2  C   UNL     1      -1.170  -2.274   0.019  0.00  0.00    +0.024 A 
ATOM      3  C   UNL     1      -2.300  -3.036   0.074  0.00  0.00    +0.014 A 
ATOM      4  C   UNL     1      -2.199  -4.428   0.147  0.00  0.00    +0.027 A 
ATOM      5  C   UNL     1      -0.932  -5.040   0.163  0.00  0.00    +0.068 A 
ATOM      6  C   UNL     1       0.212  -4.250   0.101  0.00  0.00    +0.051 A 
ATOM      7  N   UNL     1      -1.144  -6.394   0.238  0.00  0.00    -0.276 N 
ATOM      8  N   UNL     1      -2.519  -6.645   0.269  0.00  0.00    -0.173 NA
ATOM      9  H   UNL     1      -0.449  -7.070   0.265  0.00  0.00    +0.189 HD
ATOM     10  C   UNL     1      -3.182  -5.515   0.217  0.00  0.00    +0.100 A 
ENDROOT
BRANCH  10  11
ATOM     11  C   UNL     1      -4.656  -5.363   0.228  0.00  0.00    +0.003 A 
ATOM     12  C   UNL     1      -5.242  -4.269   0.866  0.00  0.00    +0.010 A 
ATOM     13  C   UNL     1      -6.615  -4.126   0.878  0.00  0.00    +0.001 A 
ATOM     14  C   UNL     1      -7.418  -5.063   0.259  0.00  0.00    +0.013 A 
ATOM     15  C   UNL     1      -6.845  -6.162  -0.384  0.00  0.00    +0.037 A 
ATOM     16  C   UNL     1      -5.459  -6.308  -0.404  0.00  0.00    +0.023 A 
BRANCH  15  17
ATOM     17  C   UNL     1      -7.706  -7.165  -1.046  0.00  0.00    +0.244 C 
ATOM     18  O   UNL     1      -7.205  -8.121  -1.605  0.00  0.00    -0.270 OA
ATOM     19  N   UNL     1      -9.046  -7.019  -1.030  0.00  0.00    -0.311 N 
ATOM     20  H   UNL     1      -9.445  -6.256  -0.584  0.00  0.00    +0.149 HD
BRANCH  19  21
ATOM     21  C   UNL     1      -9.898  -8.014  -1.686  0.00  0.00    +0.106 C 
BRANCH  21  22
ATOM     22  C   UNL     1     -11.366  -7.615  -1.522  0.00  0.00    +0.034 C 
BRANCH  22  23
ATOM     23  C   UNL     1     -12.257  -8.653  -2.207  0.00  0.00    +0.086 C 
BRANCH  23  24
ATOM     24  N   UNL     1     -13.666  -8.270  -2.049  0.00  0.00    -0.298 NA
ATOM     25  C   UNL     1     -14.077  -8.342  -0.640  0.00  0.00    +0.112 C 
ATOM     26  C   UNL     1     -15.531  -7.878  -0.513  0.00  0.00    +0.175 C 
ATOM     27  O   UNL     1     -16.357  -8.682  -1.360  0.00  0.00    -0.377 OA
ATOM     28  C   UNL     1     -15.986  -8.634  -2.740  0.00  0.00    +0.175 C 
ATOM     29  C   UNL     1     -14.537  -9.105  -2.889  0.00  0.00    +0.112 C 
ENDBRANCH  23  24
ENDBRANCH  22  23
ENDBRANCH  21  22
ENDBRANCH  19  21
ENDBRANCH  15  17
ENDBRANCH  10  11
BRANCH   1  30
ATOM     30  N   UNL     1       1.238  -2.078  -0.022  0.00  0.00    -0.313 N 
ATOM     31  H   UNL     1       1.982  -2.340  -0.587  0.00  0.00    +0.152 HD
BRANCH  30  36
ATOM     32  C   UNL     1       0.398   0.551   2.405  0.00  0.00    +0.002 A 
ATOM     33  C   UNL     1       1.461   1.418   2.230  0.00  0.00    +0.002 A 
ATOM     34  C   UNL     1       2.451   1.127   1.310  0.00  0.00    +0.022 A 
ATOM     35  C   UNL     1       2.380  -0.032   0.560  0.00  0.00    +0.062 A 
ATOM     36  C   UNL     1       1.313  -0.905   0.734  0.00  0.00    +0.050 A 
ATOM     37  C   UNL     1       0.321  -0.609   1.660  0.00  0.00    +0.025 A 
ATOM     38 CL   UNL     1       3.622  -0.396  -0.597  0.00  0.00    -0.082 Cl
ENDBRANCH  30  36
ENDBRANCH   1  30
TORSDOF 8
