REMARK  Name = CHEMBL252761
REMARK  0 active torsions:
REMARK  status: ('A' for Active; 'I' for Inactive)
REMARK                            x       y       z     vdW  Elec       q    Type
REMARK                         _______ _______ _______ _____ _____    ______ ____
ROOT
ATOM      1  C   UNL     1      -0.017   1.375   0.010  0.00  0.00    +0.001 A 
ATOM      2  C   UNL     1       1.164   2.105   0.002  0.00  0.00    +0.001 A 
ATOM      3  C   UNL     1       2.387   1.462  -0.012  0.00  0.00    +0.010 A 
ATOM      4  C   UNL     1       2.429   0.077  -0.019  0.00  0.00    +0.009 A 
ATOM      5  C   UNL     1       1.223  -0.675  -0.013  0.00  0.00    +0.027 A 
ATOM      6  C   UNL     1       0.002  -0.004   0.002  0.00  0.00    +0.012 A 
ATOM      7  C   UNL     1       1.312  -2.137  -0.021  0.00  0.00    +0.172 C 
ATOM      8  O   UNL     1       0.382  -2.773  -0.469  0.00  0.00    -0.291 OA
ATOM      9  C   UNL     1       2.495  -2.874   0.496  0.00  0.00    +0.097 C 
ATOM     10  C   UNL     1       2.639  -4.257  -0.022  0.00  0.00    -0.015 C 
ATOM     11  C   UNL     1       3.735  -4.749  -0.583  0.00  0.00    -0.002 C 
ATOM     12  C   UNL     1       4.919  -3.893  -0.776  0.00  0.00    +0.020 C 
ATOM     13  C   UNL     1       4.872  -2.662  -0.293  0.00  0.00    +0.036 C 
ATOM     14  C   UNL     1       3.768  -2.091   0.584  0.00  0.00    +0.100 C 
ATOM     15  C   UNL     1       3.663  -0.705  -0.032  0.00  0.00    +0.077 C 
ATOM     16  N   UNL     1       4.821  -0.454  -0.565  0.00  0.00    -0.186 NA
ATOM     17  N   UNL     1       5.699  -1.556  -0.395  0.00  0.00    -0.241 N 
ATOM     18  H   UNL     1       6.668  -1.539  -0.358  0.00  0.00    +0.174 HD
ENDROOT
TORSDOF 0
