REMARK  Name = CHEMBL375795
REMARK  9 active torsions:
REMARK  status: ('A' for Active; 'I' for Inactive)
REMARK    1  A    between atoms: C_1  and  S_2
REMARK    2  A    between atoms: S_2  and  C_5
REMARK    3  A    between atoms: C_8  and  C_11
REMARK    4  A    between atoms: C_11  and  N_12
REMARK    5  A    between atoms: C_13  and  C_15
REMARK    6  A    between atoms: C_17  and  N_29
REMARK    7  A    between atoms: C_18  and  C_27
REMARK    8  A    between atoms: C_19  and  N_21
REMARK    9  A    between atoms: N_21  and  C_22
REMARK                            x       y       z     vdW  Elec       q    Type
REMARK                         _______ _______ _______ _____ _____    ______ ____
ROOT
ATOM      1  C   UNL     1       4.348   0.875  -7.685  0.00  0.00    +0.129 A 
ATOM      2  C   UNL     1       5.026   0.771  -8.893  0.00  0.00    +0.057 A 
ATOM      3  C   UNL     1       5.401   1.933  -9.567  0.00  0.00    +0.048 A 
ATOM      4  C   UNL     1       5.072   3.173  -8.990  0.00  0.00    +0.112 A 
ATOM      5  C   UNL     1       4.385   3.190  -7.763  0.00  0.00    +0.139 A 
ATOM      6  N   UNL     1       4.048   2.061  -7.166  0.00  0.00    -0.226 NA
ENDROOT
BRANCH   1   8
ATOM      7  N   UNL     1       3.285  -0.270  -5.795  0.00  0.00    -0.306 N 
ATOM      8  C   UNL     1       3.948  -0.358  -6.965  0.00  0.00    +0.263 C 
ATOM      9  O   UNL     1       4.218  -1.448  -7.430  0.00  0.00    -0.269 OA
ATOM     10  H   UNL     1       3.070   0.600  -5.424  0.00  0.00    +0.149 HD
BRANCH   7  11
ATOM     11  C   UNL     1       2.890  -1.488  -5.084  0.00  0.00    +0.140 C 
BRANCH  11  15
ATOM     12  C   UNL     1       0.845  -0.437  -1.483  0.00  0.00    +0.088 A 
ATOM     13  C   UNL     1       0.135  -0.613  -2.656  0.00  0.00    +0.027 A 
ATOM     14  C   UNL     1       0.796  -0.953  -3.821  0.00  0.00    +0.007 A 
ATOM     15  C   UNL     1       2.169  -1.117  -3.814  0.00  0.00    -0.030 A 
ATOM     16  C   UNL     1       2.880  -0.941  -2.641  0.00  0.00    +0.007 A 
ATOM     17  C   UNL     1       2.219  -0.596  -1.477  0.00  0.00    +0.027 A 
BRANCH  12  19
ATOM     18  C   UNL     1      -0.022   1.810   0.012  0.00  0.00    +0.200 C 
ATOM     19  S   UNL     1       0.002  -0.004   0.002  0.00  0.00    -0.006 S 
ATOM     20  O   UNL     1       0.835  -0.488   1.046  0.00  0.00    -0.170 OA
ATOM     21  O   UNL     1      -1.315  -0.510  -0.168  0.00  0.00    -0.170 OA
ENDBRANCH  12  19
ENDBRANCH  11  15
ENDBRANCH   7  11
ENDBRANCH   1   8
BRANCH   3  22
ATOM     22  N   UNL     1       6.078   1.867 -10.775  0.00  0.00    -0.357 N 
ATOM     23  H   UNL     1       6.298   1.005 -11.161  0.00  0.00    +0.142 HD
ATOM     24  H   UNL     1       6.333   2.683 -11.233  0.00  0.00    +0.142 HD
ENDBRANCH   3  22
BRANCH   5  25
ATOM     25  N   UNL     1       4.053   4.401  -7.179  0.00  0.00    -0.325 N 
ATOM     26  H   UNL     1       4.296   5.232  -7.616  0.00  0.00    +0.148 HD
BRANCH  25  27
ATOM     27  C   UNL     1       3.337   4.426  -5.902  0.00  0.00    +0.072 C 
ATOM     28  C   UNL     1       1.815   4.377  -6.148  0.00  0.00    +0.022 C 
ATOM     29  C   UNL     1       1.223   5.305  -5.059  0.00  0.00    +0.002 C 
ATOM     30  C   UNL     1       2.260   6.454  -4.989  0.00  0.00    +0.002 C 
ATOM     31  C   UNL     1       3.620   5.747  -5.164  0.00  0.00    +0.022 C 
ENDBRANCH  25  27
ENDBRANCH   5  25
BRANCH   4  32
ATOM     32  C   UNL     1       5.433   4.397  -9.640  0.00  0.00    +0.104 C 
ATOM     33  N   UNL     1       5.720   5.368 -10.155  0.00  0.00    -0.191 NA
ENDBRANCH   4  32
TORSDOF 8
