REMARK  Name = CHEMBL252761
REMARK  0 active torsions:
REMARK  status: ('A' for Active; 'I' for Inactive)
REMARK                            x       y       z     vdW  Elec       q    Type
REMARK                         _______ _______ _______ _____ _____    ______ ____
ROOT
ATOM      1  C   UNL     1      -0.017   1.375   0.010  0.00  0.00    +0.001 A 
ATOM      2  C   UNL     1       1.165   2.102   0.002  0.00  0.00    +0.001 A 
ATOM      3  C   UNL     1       2.386   1.457  -0.007  0.00  0.00    +0.010 A 
ATOM      4  C   UNL     1       2.431   0.069  -0.010  0.00  0.00    +0.009 A 
ATOM      5  C   UNL     1       1.221  -0.680  -0.013  0.00  0.00    +0.027 A 
ATOM      6  C   UNL     1       0.002  -0.004   0.002  0.00  0.00    +0.012 A 
ATOM      7  C   UNL     1       1.264  -2.158  -0.044  0.00  0.00    +0.172 C 
ATOM      8  O   UNL     1       0.287  -2.823   0.235  0.00  0.00    -0.291 OA
ATOM      9  C   UNL     1       2.559  -2.803  -0.433  0.00  0.00    +0.097 C 
ATOM     10  C   UNL     1       2.677  -4.281  -0.253  0.00  0.00    -0.015 C 
ATOM     11  C   UNL     1       3.904  -4.829  -0.236  0.00  0.00    -0.002 C 
ATOM     12  C   UNL     1       5.111  -3.987  -0.380  0.00  0.00    +0.020 C 
ATOM     13  C   UNL     1       4.981  -2.678  -0.151  0.00  0.00    +0.036 C 
ATOM     14  C   UNL     1       3.667  -2.149   0.418  0.00  0.00    +0.100 C 
ATOM     15  C   UNL     1       3.691  -0.681  -0.004  0.00  0.00    +0.077 C 
ATOM     16  N   UNL     1       4.914  -0.413  -0.276  0.00  0.00    -0.186 NA
ATOM     17  N   UNL     1       5.743  -1.552  -0.258  0.00  0.00    -0.241 N 
ATOM     18  H   UNL     1       6.712  -1.538  -0.312  0.00  0.00    +0.174 HD
ENDROOT
TORSDOF 0
