REMARK  Name = CHEMBL1087421
REMARK  3 active torsions:
REMARK  status: ('A' for Active; 'I' for Inactive)
REMARK    1  A    between atoms: C_1  and  O_2
REMARK    2  A    between atoms: O_2  and  C_3
REMARK    3  A    between atoms: C_10  and  C_14
REMARK                            x       y       z     vdW  Elec       q    Type
REMARK                         _______ _______ _______ _____ _____    ______ ____
ROOT
ATOM      1  C   UNL     1      -1.164  -0.760  -0.408  0.00  0.00    +0.139 A 
ATOM      2  C   UNL     1      -2.304   0.021  -0.257  0.00  0.00    +0.051 A 
ATOM      3  C   UNL     1      -3.531  -0.580  -0.114  0.00  0.00    -0.033 A 
ATOM      4  C   UNL     1      -3.633  -1.975  -0.121  0.00  0.00    +0.003 A 
ATOM      5  C   UNL     1      -2.491  -2.757  -0.272  0.00  0.00    +0.034 A 
ATOM      6  C   UNL     1      -1.262  -2.147  -0.420  0.00  0.00    +0.083 A 
ATOM      7 CL   UNL     1       0.167  -3.115  -0.617  0.00  0.00    -0.080 Cl
ATOM      8  C   UNL     1      -4.970  -2.588   0.036  0.00  0.00    +0.050 C 
ATOM      9  N   UNL     1      -6.035  -1.874  -0.188  0.00  0.00    -0.383 N 
ATOM     10  C   UNL     1      -5.956  -0.482  -0.618  0.00  0.00    +0.117 C 
ATOM     11  C   UNL     1      -4.786   0.238   0.051  0.00  0.00    +0.057 C 
ATOM     12  H   UNL     1      -6.908  -2.279  -0.065  0.00  0.00    +0.160 HD
ENDROOT
BRANCH   8  13
ATOM     13  C   UNL     1      -5.096  -4.006   0.445  0.00  0.00    +0.000 A 
ATOM     14  C   UNL     1      -6.163  -4.776  -0.019  0.00  0.00    +0.011 A 
ATOM     15  C   UNL     1      -6.276  -6.096   0.364  0.00  0.00    +0.022 A 
ATOM     16  C   UNL     1      -5.333  -6.659   1.207  0.00  0.00    +0.059 A 
ATOM     17  C   UNL     1      -4.271  -5.899   1.671  0.00  0.00    +0.060 A 
ATOM     18  C   UNL     1      -4.145  -4.578   1.289  0.00  0.00    +0.031 A 
ATOM     19 CL   UNL     1      -3.092  -6.612   2.728  0.00  0.00    -0.082 Cl
ATOM     20 CL   UNL     1      -5.481  -8.321   1.685  0.00  0.00    -0.082 Cl
ENDBRANCH   8  13
BRANCH   1  22
ATOM     21  C   UNL     1       0.079   1.262  -0.527  0.00  0.00    +0.277 C 
ATOM     22  O   UNL     1       0.050  -0.167  -0.549  0.00  0.00    -0.494 OA
ENDBRANCH   1  22
TORSDOF 2
