REMARK  Name = CHEMBL259060
REMARK  8 active torsions:
REMARK  status: ('A' for Active; 'I' for Inactive)
REMARK    1  A    between atoms: C_1  and  O_2
REMARK    2  A    between atoms: O_2  and  C_3
REMARK    3  A    between atoms: C_3  and  C_5
REMARK    4  A    between atoms: C_6  and  C_28
REMARK    5  A    between atoms: N_15  and  C_16
REMARK    6  A    between atoms: C_16  and  C_17
REMARK    7  A    between atoms: C_20  and  S_23
REMARK    8  A    between atoms: S_23  and  C_26
REMARK                            x       y       z     vdW  Elec       q    Type
REMARK                         _______ _______ _______ _____ _____    ______ ____
ROOT
ATOM      1  C   UNL     1       0.685  -2.004  -1.108  0.00  0.00    +0.138 A 
ATOM      2  C   UNL     1       1.218  -2.567  -2.250  0.00  0.00    +0.021 A 
ATOM      3  C   UNL     1       1.257  -4.032  -2.374  0.00  0.00    -0.002 A 
ATOM      4  C   UNL     1       1.784  -4.658  -3.501  0.00  0.00    +0.024 A 
ATOM      5  C   UNL     1       1.798  -6.036  -3.571  0.00  0.00    +0.018 A 
ATOM      6  C   UNL     1       1.294  -6.802  -2.528  0.00  0.00    +0.016 A 
ATOM      7  C   UNL     1       0.768  -6.202  -1.404  0.00  0.00    +0.015 A 
ATOM      8  C   UNL     1       0.744  -4.811  -1.313  0.00  0.00    +0.047 A 
ATOM      9  C   UNL     1       0.194  -4.126  -0.135  0.00  0.00    +0.260 A 
ATOM     10  O   UNL     1      -0.254  -4.773   0.793  0.00  0.00    -0.267 OA
ATOM     11  N   UNL     1       0.193  -2.780  -0.081  0.00  0.00    -0.297 N 
ATOM     12 BR   UNL     1       2.512  -6.889  -5.100  0.00  0.00    -0.050 Br
ENDROOT
BRANCH   2  13
ATOM     13  C   UNL     1       1.743  -1.708  -3.334  0.00  0.00    -0.015 A 
ATOM     14  C   UNL     1       0.882  -0.869  -4.043  0.00  0.00    +0.008 A 
ATOM     15  C   UNL     1       1.379  -0.071  -5.053  0.00  0.00    +0.001 A 
ATOM     16  C   UNL     1       2.727  -0.101  -5.364  0.00  0.00    +0.000 A 
ATOM     17  C   UNL     1       3.586  -0.931  -4.665  0.00  0.00    +0.001 A 
ATOM     18  C   UNL     1       3.103  -1.730  -3.649  0.00  0.00    +0.008 A 
ENDBRANCH   2  13
BRANCH   1  19
ATOM     19  C   UNL     1       0.645  -0.540  -0.982  0.00  0.00    +0.356 C 
ATOM     20  O   UNL     1       1.206   0.156  -1.806  0.00  0.00    -0.243 OA
BRANCH  19  22
ATOM     21  C   UNL     1      -0.010   1.458   0.108  0.00  0.00    +0.280 C 
ATOM     22  O   UNL     1      -0.013   0.030   0.048  0.00  0.00    -0.463 OA
ENDBRANCH  19  22
ENDBRANCH   1  19
BRANCH  11  23
ATOM     23  C   UNL     1      -0.355  -2.120   1.106  0.00  0.00    +0.160 C 
BRANCH  23  24
ATOM     24  C   UNL     1      -1.852  -2.012   0.975  0.00  0.00    -0.028 A 
ATOM     25  C   UNL     1      -2.410  -0.971   0.256  0.00  0.00    +0.007 A 
ATOM     26  C   UNL     1      -3.783  -0.872   0.135  0.00  0.00    +0.027 A 
ATOM     27  C   UNL     1      -4.599  -1.814   0.734  0.00  0.00    +0.088 A 
ATOM     28  C   UNL     1      -4.042  -2.855   1.452  0.00  0.00    +0.027 A 
ATOM     29  C   UNL     1      -2.668  -2.957   1.569  0.00  0.00    +0.007 A 
BRANCH  27  30
ATOM     30  S   UNL     1      -6.350  -1.687   0.581  0.00  0.00    -0.006 S 
ATOM     31  O   UNL     1      -6.863  -2.348   1.729  0.00  0.00    -0.170 OA
ATOM     32  O   UNL     1      -6.596  -0.303   0.372  0.00  0.00    -0.170 OA
ATOM     33  C   UNL     1      -6.757  -2.627  -0.916  0.00  0.00    +0.200 C 
ENDBRANCH  27  30
ENDBRANCH  23  24
ENDBRANCH  11  23
TORSDOF 6
