REMARK  Name = CHEMBL252967
REMARK  8 active torsions:
REMARK  status: ('A' for Active; 'I' for Inactive)
REMARK    1  A    between atoms: C_1  and  C_2
REMARK    2  A    between atoms: C_2  and  C_3
REMARK    3  A    between atoms: C_3  and  N_4
REMARK    4  A    between atoms: C_5  and  C_24
REMARK    5  A    between atoms: C_6  and  C_16
REMARK    6  A    between atoms: C_8  and  C_9
REMARK    7  A    between atoms: N_12  and  C_15
REMARK    8  A    between atoms: N_30  and  C_31
REMARK                            x       y       z     vdW  Elec       q    Type
REMARK                         _______ _______ _______ _____ _____    ______ ____
ROOT
ATOM      1  N   UNL     1      -1.355  -1.994  -0.113  0.00  0.00    -0.327 N 
ATOM      2  C   UNL     1      -1.348  -2.708  -1.291  0.00  0.00    +0.093 A 
ATOM      3  C   UNL     1      -1.419  -4.043  -0.932  0.00  0.00    +0.074 A 
ATOM      4  N   UNL     1      -1.466  -4.095   0.411  0.00  0.00    -0.342 N 
ATOM      5  C   UNL     1      -1.423  -2.885   0.897  0.00  0.00    +0.091 A 
ATOM      6  H   UNL     1      -1.520  -4.908   0.938  0.00  0.00    +0.167 HD
ENDROOT
BRANCH   5   7
ATOM      7  C   UNL     1      -1.449  -2.537   2.363  0.00  0.00    +0.050 C 
ATOM      8  C   UNL     1      -0.029  -2.614   2.933  0.00  0.00    -0.008 C 
ATOM      9  C   UNL     1      -0.073  -2.337   4.437  0.00  0.00    -0.079 C 
ATOM     10  N   UNL     1      -0.922  -3.336   5.097  0.00  0.00    +0.378 N 
ATOM     11  C   UNL     1      -2.301  -3.220   4.608  0.00  0.00    -0.079 C 
ATOM     12  C   UNL     1      -2.342  -3.531   3.110  0.00  0.00    -0.008 C 
ATOM     13  C   UNL     1      -0.899  -3.113   6.549  0.00  0.00    -0.096 C 
ATOM     14  H   UNL     1      -0.571  -4.260   4.895  0.00  0.00    -0.082 HD
ENDBRANCH   5   7
BRANCH   3  15
ATOM     15  C   UNL     1      -1.441  -5.200  -1.857  0.00  0.00    +0.002 A 
ATOM     16  C   UNL     1      -2.253  -5.176  -2.990  0.00  0.00    +0.011 A 
ATOM     17  C   UNL     1      -2.269  -6.256  -3.848  0.00  0.00    +0.022 A 
ATOM     18  C   UNL     1      -1.482  -7.364  -3.586  0.00  0.00    +0.059 A 
ATOM     19  C   UNL     1      -0.673  -7.394  -2.461  0.00  0.00    +0.060 A 
ATOM     20  C   UNL     1      -0.645  -6.316  -1.599  0.00  0.00    +0.031 A 
ATOM     21 CL   UNL     1       0.311  -8.788  -2.139  0.00  0.00    -0.082 Cl
ATOM     22 CL   UNL     1      -1.508  -8.720  -4.670  0.00  0.00    -0.082 Cl
ENDBRANCH   3  15
BRANCH   2  23
ATOM     23  C   UNL     1      -1.279  -2.161  -2.658  0.00  0.00    +0.094 A 
ATOM     24  C   UNL     1      -0.671  -0.921  -2.899  0.00  0.00    +0.050 A 
ATOM     25  C   UNL     1      -0.630  -0.450  -4.197  0.00  0.00    +0.116 A 
ATOM     26  N   UNL     1      -1.163  -1.177  -5.168  0.00  0.00    -0.223 NA
ATOM     27  C   UNL     1      -1.732  -2.346  -4.913  0.00  0.00    +0.216 A 
ATOM     28  N   UNL     1      -1.790  -2.840  -3.687  0.00  0.00    -0.213 NA
ATOM     29  N   UNL     1      -2.276  -3.073  -5.958  0.00  0.00    -0.311 N 
ATOM     30  H   UNL     1      -2.696  -3.930  -5.786  0.00  0.00    +0.149 HD
BRANCH  29  31
ATOM     31  C   UNL     1      -2.218  -2.547  -7.324  0.00  0.00    +0.073 C 
ATOM     32  C   UNL     1      -1.836  -3.522  -8.441  0.00  0.00    +0.024 C 
ATOM     33  C   UNL     1      -3.280  -3.031  -8.314  0.00  0.00    +0.024 C 
ENDBRANCH  29  31
ENDBRANCH   2  23
BRANCH   1  34
ATOM     34  C   UNL     1      -1.294  -0.536   0.019  0.00  0.00    +0.123 C 
BRANCH  34  36
ATOM     35  C   UNL     1       0.231   1.424   0.287  0.00  0.00    +0.005 C 
ATOM     36  C   UNL     1       0.158  -0.103   0.225  0.00  0.00    +0.018 C 
ENDBRANCH  34  36
ENDBRANCH   1  34
TORSDOF 6
