REMARK  Name = CHEMBL392615
REMARK  5 active torsions:
REMARK  status: ('A' for Active; 'I' for Inactive)
REMARK    1  A    between atoms: C_1  and  N_2
REMARK    2  A    between atoms: C_3  and  C_5
REMARK    3  A    between atoms: C_5  and  N_6
REMARK    4  A    between atoms: C_10  and  N_13
REMARK    5  A    between atoms: C_18  and  C_20
REMARK                            x       y       z     vdW  Elec       q    Type
REMARK                         _______ _______ _______ _____ _____    ______ ____
ROOT
ATOM      1  N   UNL     1       3.480  -3.856  -3.670  0.00  0.00    -0.312 N 
ATOM      2  C   UNL     1       4.558  -4.560  -4.179  0.00  0.00    +0.216 A 
ATOM      3  N   UNL     1       4.360  -5.774  -4.672  0.00  0.00    -0.221 NA
ATOM      4  C   UNL     1       5.364  -6.481  -5.169  0.00  0.00    +0.136 A 
ATOM      5  C   UNL     1       6.637  -5.941  -5.170  0.00  0.00    +0.085 A 
ATOM      6  C   UNL     1       6.816  -4.656  -4.642  0.00  0.00    +0.096 A 
ATOM      7  N   UNL     1       5.757  -4.002  -4.164  0.00  0.00    -0.213 NA
ATOM      8 CL   UNL     1       7.981  -6.833  -5.811  0.00  0.00    -0.080 Cl
ATOM      9  H   UNL     1       3.609  -2.965  -3.309  0.00  0.00    +0.149 HD
ENDROOT
BRANCH   6  10
ATOM     10  C   UNL     1       8.157  -4.033  -4.621  0.00  0.00    +0.027 A 
ATOM     11  C   UNL     1       9.038  -3.968  -5.652  0.00  0.00    +0.093 A 
ATOM     12  N   UNL     1      10.166  -3.318  -5.253  0.00  0.00    -0.360 N 
ATOM     13  H   UNL     1      10.937  -3.149  -5.817  0.00  0.00    +0.165 HD
ATOM     14  C   UNL     1      10.055  -2.934  -3.934  0.00  0.00    +0.047 A 
ATOM     15  C   UNL     1       8.794  -3.356  -3.479  0.00  0.00    +0.009 A 
ATOM     16  C   UNL     1       8.402  -3.095  -2.167  0.00  0.00    +0.010 A 
ATOM     17  C   UNL     1       9.255  -2.419  -1.323  0.00  0.00    +0.001 A 
ATOM     18  C   UNL     1      10.498  -1.999  -1.772  0.00  0.00    +0.002 A 
ATOM     19  C   UNL     1      10.903  -2.258  -3.063  0.00  0.00    +0.026 A 
ENDBRANCH   6  10
BRANCH   1  24
ATOM     20  N   UNL     1       1.179  -2.379  -2.805  0.00  0.00    +0.387 N 
ATOM     21  C   UNL     1       0.477  -2.132  -4.071  0.00  0.00    -0.078 C 
ATOM     22  C   UNL     1       1.296  -2.700  -5.232  0.00  0.00    -0.017 C 
ATOM     23  C   UNL     1       1.477  -4.207  -5.032  0.00  0.00    +0.018 C 
ATOM     24  C   UNL     1       2.143  -4.456  -3.676  0.00  0.00    +0.057 C 
ATOM     25  C   UNL     1       1.293  -3.823  -2.573  0.00  0.00    -0.056 C 
ATOM     26  H   UNL     1       2.101  -1.972  -2.850  0.00  0.00    -0.081 HD
BRANCH  20  27
ATOM     27  C   UNL     1       0.427  -1.764  -1.703  0.00  0.00    +0.019 C 
BRANCH  27  30
ATOM     28  C   UNL     1      -0.234   1.965  -1.146  0.00  0.00    +0.128 C 
ATOM     29  N   UNL     1      -0.221   0.510  -0.977  0.00  0.00    -0.320 N 
ATOM     30  C   UNL     1       0.414  -0.267  -1.876  0.00  0.00    +0.196 C 
ATOM     31  O   UNL     1       0.976   0.238  -2.825  0.00  0.00    -0.278 OA
ATOM     32  H   UNL     1      -0.670   0.106  -0.218  0.00  0.00    +0.148 HD
ENDBRANCH  27  30
ENDBRANCH  20  27
ENDBRANCH   1  24
TORSDOF 4
