REMARK  Name = CHEMBL380724
REMARK  3 active torsions:
REMARK  status: ('A' for Active; 'I' for Inactive)
REMARK    1  A    between atoms: C_4  and  N_7
REMARK    2  A    between atoms: C_10  and  C_14
REMARK    3  A    between atoms: C_21  and  C_23
REMARK                            x       y       z     vdW  Elec       q    Type
REMARK                         _______ _______ _______ _____ _____    ______ ____
ROOT
ATOM      1  C   UNL     1       1.224  -4.907  -0.508  0.00  0.00    -0.013 A 
ATOM      2  C   UNL     1      -0.024  -4.273  -0.494  0.00  0.00    +0.028 A 
ATOM      3  C   UNL     1      -1.167  -5.039  -0.579  0.00  0.00    +0.113 A 
ATOM      4  N   UNL     1      -1.099  -6.353  -0.672  0.00  0.00    -0.240 NA
ATOM      5  C   UNL     1       0.059  -6.995  -0.689  0.00  0.00    +0.126 A 
ATOM      6  C   UNL     1       1.257  -6.297  -0.613  0.00  0.00    +0.052 A 
ATOM      7  N   UNL     1       0.076  -8.384  -0.789  0.00  0.00    -0.264 N 
ATOM      8  C   UNL     1      -1.074  -9.060  -0.983  0.00  0.00    +0.285 C 
ATOM      9  O   UNL     1      -2.137  -8.467  -0.975  0.00  0.00    -0.266 OA
ATOM     10  H   UNL     1       0.915  -8.865  -0.718  0.00  0.00    +0.157 HD
ENDROOT
BRANCH   1  14
ATOM     11  N   UNL     1       3.627  -0.644  -0.127  0.00  0.00    -0.299 N 
ATOM     12  C   UNL     1       3.644  -2.031  -0.232  0.00  0.00    +0.123 A 
ATOM     13  C   UNL     1       2.445  -2.729  -0.314  0.00  0.00    +0.052 A 
ATOM     14  C   UNL     1       2.479  -4.119  -0.419  0.00  0.00    -0.013 A 
ATOM     15  C   UNL     1       3.727  -4.752  -0.438  0.00  0.00    +0.028 A 
ATOM     16  C   UNL     1       4.870  -3.987  -0.353  0.00  0.00    +0.113 A 
ATOM     17  N   UNL     1       4.802  -2.672  -0.260  0.00  0.00    -0.240 NA
ATOM     18  H   UNL     1       2.788  -0.163  -0.196  0.00  0.00    +0.154 HD
BRANCH  11  22
ATOM     19  C   UNL     1       7.179   1.441   0.488  0.00  0.00    +0.000 A 
ATOM     20  C   UNL     1       6.200   1.973  -0.331  0.00  0.00    +0.002 A 
ATOM     21  C   UNL     1       5.021   1.284  -0.537  0.00  0.00    +0.023 A 
ATOM     22  C   UNL     1       4.819   0.055   0.079  0.00  0.00    +0.032 A 
ATOM     23  C   UNL     1       5.805  -0.476   0.901  0.00  0.00    +0.023 A 
ATOM     24  C   UNL     1       6.982   0.218   1.103  0.00  0.00    +0.002 A 
ENDBRANCH  11  22
ENDBRANCH   1  14
BRANCH   8  25
ATOM     25  C   UNL     1      -1.045 -10.508  -1.205  0.00  0.00    +0.189 A 
ATOM     26  C   UNL     1      -2.130 -11.310  -1.420  0.00  0.00    +0.054 A 
ATOM     27  C   UNL     1      -1.641 -12.616  -1.582  0.00  0.00    +0.042 A 
ATOM     28  C   UNL     1      -0.296 -12.555  -1.461  0.00  0.00    +0.196 A 
ATOM     29  O   UNL     1       0.060 -11.283  -1.239  0.00  0.00    -0.458 OA
ENDBRANCH   8  25
TORSDOF 3
