REMARK  Name = CHEMBL570554
REMARK  6 active torsions:
REMARK  status: ('A' for Active; 'I' for Inactive)
REMARK    1  A    between atoms: C_1  and  C_2
REMARK    2  A    between atoms: N_5  and  C_7
REMARK    3  A    between atoms: C_10  and  N_13
REMARK    4  A    between atoms: C_18  and  C_20
REMARK    5  A    between atoms: C_22  and  C_32
REMARK    6  A    between atoms: C_24  and  N_26
REMARK                            x       y       z     vdW  Elec       q    Type
REMARK                         _______ _______ _______ _____ _____    ______ ____
ROOT
ATOM      1  N   UNL     1       0.029  -6.712   3.739  0.00  0.00    -0.284 N 
ATOM      2  C   UNL     1       0.149  -6.612   5.115  0.00  0.00    +0.220 A 
ATOM      3  N   UNL     1       0.122  -5.413   5.680  0.00  0.00    -0.223 NA
ATOM      4  C   UNL     1       0.233  -5.276   6.991  0.00  0.00    +0.116 A 
ATOM      5  C   UNL     1       0.378  -6.403   7.780  0.00  0.00    +0.048 A 
ATOM      6  C   UNL     1       0.402  -7.653   7.157  0.00  0.00    +0.076 A 
ATOM      7  N   UNL     1       0.281  -7.716   5.833  0.00  0.00    -0.214 NA
ATOM      8  H   UNL     1      -0.037  -7.585   3.320  0.00  0.00    +0.155 HD
ENDROOT
BRANCH   1  12
ATOM      9  C   UNL     1      -0.042  -3.266   1.396  0.00  0.00    +0.067 A 
ATOM     10  C   UNL     1       0.722  -3.301   2.555  0.00  0.00    +0.029 A 
ATOM     11  C   UNL     1       0.746  -4.442   3.331  0.00  0.00    +0.025 A 
ATOM     12  C   UNL     1       0.005  -5.555   2.952  0.00  0.00    +0.034 A 
ATOM     13  C   UNL     1      -0.759  -5.519   1.793  0.00  0.00    +0.025 A 
ATOM     14  C   UNL     1      -0.787  -4.376   1.020  0.00  0.00    +0.029 A 
BRANCH   9  19
ATOM     15  C   UNL     1      -1.084  -0.048  -2.229  0.00  0.00    +0.090 C 
ATOM     16  C   UNL     1      -0.526  -0.695  -0.988  0.00  0.00    +0.148 A 
ATOM     17  N   UNL     1       0.312  -0.121  -0.126  0.00  0.00    -0.219 NA
ATOM     18  C   UNL     1       0.598  -0.957   0.840  0.00  0.00    +0.225 A 
ATOM     19  N   UNL     1      -0.066  -2.106   0.607  0.00  0.00    -0.220 N 
ATOM     20  N   UNL     1      -0.791  -1.909  -0.580  0.00  0.00    -0.150 NA
ENDBRANCH   9  19
ENDBRANCH   1  12
BRANCH   6  21
ATOM     21  C   UNL     1       0.556  -8.892   7.959  0.00  0.00    +0.003 A 
ATOM     22  C   UNL     1       0.672  -8.815   9.343  0.00  0.00    +0.029 A 
ATOM     23  C   UNL     1       0.817  -9.980  10.094  0.00  0.00    +0.054 A 
ATOM     24  C   UNL     1       0.845 -11.221   9.454  0.00  0.00    +0.042 A 
ATOM     25  C   UNL     1       0.729 -11.293   8.074  0.00  0.00    +0.032 A 
ATOM     26  C   UNL     1       0.579 -10.133   7.326  0.00  0.00    +0.033 A 
BRANCH  25  27
ATOM     27  N   UNL     1       0.757 -12.535   7.436  0.00  0.00    -0.325 N 
ATOM     28  C   UNL     1       0.769 -12.633   5.967  0.00  0.00    +0.133 C 
ATOM     29  C   UNL     1       1.914 -13.565   5.554  0.00  0.00    +0.178 C 
ATOM     30  O   UNL     1       1.800 -14.796   6.271  0.00  0.00    -0.377 OA
ATOM     31  C   UNL     1       1.921 -14.662   7.689  0.00  0.00    +0.178 C 
ATOM     32  C   UNL     1       0.782 -13.785   8.212  0.00  0.00    +0.133 C 
ENDBRANCH  25  27
BRANCH  23  33
ATOM     33  C   UNL     1       0.936  -9.906  11.519  0.00  0.00    +0.099 C 
ATOM     34  N   UNL     1       1.032  -9.846  12.649  0.00  0.00    -0.191 NA
ENDBRANCH  23  33
ENDBRANCH   6  21
TORSDOF 5
