REMARK  Name = CHEMBL252761
REMARK  0 active torsions:
REMARK  status: ('A' for Active; 'I' for Inactive)
REMARK                            x       y       z     vdW  Elec       q    Type
REMARK                         _______ _______ _______ _____ _____    ______ ____
ROOT
ATOM      1  C   UNL     1      -0.017   1.375   0.010  0.00  0.00    +0.001 A 
ATOM      2  C   UNL     1       1.164   2.105   0.002  0.00  0.00    +0.001 A 
ATOM      3  C   UNL     1       2.387   1.463  -0.013  0.00  0.00    +0.010 A 
ATOM      4  C   UNL     1       2.429   0.077  -0.021  0.00  0.00    +0.009 A 
ATOM      5  C   UNL     1       1.223  -0.676  -0.013  0.00  0.00    +0.027 A 
ATOM      6  C   UNL     1       0.002  -0.004   0.002  0.00  0.00    +0.012 A 
ATOM      7  C   UNL     1       1.312  -2.137  -0.022  0.00  0.00    +0.172 C 
ATOM      8  O   UNL     1       0.387  -2.777   0.432  0.00  0.00    -0.291 OA
ATOM      9  C   UNL     1       2.487  -2.870  -0.563  0.00  0.00    +0.097 C 
ATOM     10  C   UNL     1       2.638  -4.256  -0.056  0.00  0.00    -0.015 C 
ATOM     11  C   UNL     1       3.743  -4.752   0.483  0.00  0.00    -0.002 C 
ATOM     12  C   UNL     1       4.930  -3.897   0.663  0.00  0.00    +0.020 C 
ATOM     13  C   UNL     1       4.876  -2.663   0.188  0.00  0.00    +0.036 C 
ATOM     14  C   UNL     1       3.757  -2.086  -0.666  0.00  0.00    +0.100 C 
ATOM     15  C   UNL     1       3.663  -0.705  -0.037  0.00  0.00    +0.077 C 
ATOM     16  N   UNL     1       4.831  -0.456   0.475  0.00  0.00    -0.186 NA
ATOM     17  N   UNL     1       5.705  -1.558   0.282  0.00  0.00    -0.241 N 
ATOM     18  H   UNL     1       6.673  -1.540   0.228  0.00  0.00    +0.174 HD
ENDROOT
TORSDOF 0
