REMARK  Name = CHEMBL117120
REMARK  4 active torsions:
REMARK  status: ('A' for Active; 'I' for Inactive)
REMARK    1  A    between atoms: C_4  and  N_7
REMARK    2  A    between atoms: N_7  and  C_8
REMARK    3  A    between atoms: C_9  and  C_16
REMARK    4  A    between atoms: N_18  and  C_19
REMARK                            x       y       z     vdW  Elec       q    Type
REMARK                         _______ _______ _______ _____ _____    ______ ____
ROOT
ATOM      1  C   UNL     1       3.638  -2.280  -0.888  0.00  0.00    +0.122 A 
ATOM      2  C   UNL     1       4.766  -2.902  -0.341  0.00  0.00    +0.139 A 
ATOM      3  C   UNL     1       4.628  -4.217   0.182  0.00  0.00    +0.268 A 
ATOM      4  N   UNL     1       3.424  -4.821   0.135  0.00  0.00    -0.274 N 
ATOM      5  C   UNL     1       2.359  -4.198  -0.398  0.00  0.00    +0.328 A 
ATOM      6  N   UNL     1       2.447  -2.953  -0.897  0.00  0.00    -0.295 N 
ATOM      7  O   UNL     1       1.289  -4.773  -0.424  0.00  0.00    -0.247 OA
ATOM      8  O   UNL     1       5.586  -4.790   0.666  0.00  0.00    -0.267 OA
ATOM      9  H   UNL     1       3.325  -5.718   0.490  0.00  0.00    +0.173 HD
ATOM     10  H   UNL     1       1.658  -2.529  -1.271  0.00  0.00    +0.172 HD
ENDROOT
BRANCH   2  11
ATOM     11  C   UNL     1       6.058  -2.214  -0.307  0.00  0.00    +0.257 C 
ATOM     12  O   UNL     1       6.134  -1.044  -0.634  0.00  0.00    -0.270 OA
ATOM     13  N   UNL     1       7.164  -2.877   0.087  0.00  0.00    -0.281 N 
ATOM     14  H   UNL     1       7.091  -3.782   0.428  0.00  0.00    +0.155 HD
BRANCH  13  15
ATOM     15  C   UNL     1       8.416  -2.260   0.002  0.00  0.00    +0.034 A 
ATOM     16  C   UNL     1       8.515  -0.875   0.058  0.00  0.00    +0.023 A 
ATOM     17  C   UNL     1       9.753  -0.269  -0.026  0.00  0.00    +0.002 A 
ATOM     18  C   UNL     1      10.894  -1.038  -0.166  0.00  0.00    +0.000 A 
ATOM     19  C   UNL     1      10.799  -2.417  -0.222  0.00  0.00    +0.002 A 
ATOM     20  C   UNL     1       9.564  -3.030  -0.132  0.00  0.00    +0.023 A 
ENDBRANCH  13  15
ENDBRANCH   2  11
BRANCH   1  21
ATOM     21  N   UNL     1       3.723  -1.019  -1.401  0.00  0.00    -0.300 N 
ATOM     22  H   UNL     1       3.875  -0.264  -0.810  0.00  0.00    +0.154 HD
BRANCH  21  26
ATOM     23  C   UNL     1       3.334  -0.406  -5.502  0.00  0.00    +0.000 A 
ATOM     24  C   UNL     1       3.364   0.677  -4.643  0.00  0.00    +0.002 A 
ATOM     25  C   UNL     1       3.493   0.477  -3.282  0.00  0.00    +0.023 A 
ATOM     26  C   UNL     1       3.592  -0.813  -2.778  0.00  0.00    +0.032 A 
ATOM     27  C   UNL     1       3.562  -1.898  -3.644  0.00  0.00    +0.023 A 
ATOM     28  C   UNL     1       3.432  -1.692  -5.003  0.00  0.00    +0.002 A 
ENDBRANCH  21  26
ENDBRANCH   1  21
TORSDOF 4
