REMARK  Name = CHEMBL364757
REMARK  2 active torsions:
REMARK  status: ('A' for Active; 'I' for Inactive)
REMARK    1  A    between atoms: C_9  and  C_10
REMARK    2  A    between atoms: C_9  and  C_12
REMARK                            x       y       z     vdW  Elec       q    Type
REMARK                         _______ _______ _______ _____ _____    ______ ____
ROOT
ATOM      1  C   UNL     1      -0.017   1.370   0.010  0.00  0.00    +0.002 A 
ATOM      2  C   UNL     1       1.157   2.104   0.002  0.00  0.00    +0.001 A 
ATOM      3  C   UNL     1       2.369   1.437  -0.013  0.00  0.00    +0.017 A 
ATOM      4  C   UNL     1       2.389   0.063  -0.020  0.00  0.00    +0.035 A 
ATOM      5  C   UNL     1       1.218  -0.710  -0.013  0.00  0.00    +0.046 A 
ATOM      6  C   UNL     1       0.002  -0.004   0.002  0.00  0.00    +0.024 A 
ATOM      7  N   UNL     1       1.395  -2.081  -0.022  0.00  0.00    -0.307 N 
ATOM      8  C   UNL     1       2.655  -2.611  -0.037  0.00  0.00    +0.090 C 
ATOM      9  C   UNL     1       3.039  -3.953  -0.047  0.00  0.00    +0.105 C 
ATOM     10  S   UNL     1       3.684  -1.153  -0.039  0.00  0.00    -0.071 S 
ATOM     11  H   UNL     1       0.624  -2.668  -0.018  0.00  0.00    +0.153 HD
ENDROOT
BRANCH   9  12
ATOM     12  C   UNL     1       4.468  -4.310  -0.062  0.00  0.00    +0.088 A 
ATOM     13  C   UNL     1       4.867  -5.655  -0.079  0.00  0.00    +0.049 A 
ATOM     14  C   UNL     1       6.207  -5.937  -0.093  0.00  0.00    +0.116 A 
ATOM     15  N   UNL     1       7.082  -4.940  -0.089  0.00  0.00    -0.226 NA
ATOM     16  C   UNL     1       6.684  -3.682  -0.074  0.00  0.00    +0.223 A 
ATOM     17  N   UNL     1       5.406  -3.360  -0.066  0.00  0.00    -0.217 NA
ATOM     18 CL   UNL     1       7.875  -2.418  -0.070  0.00  0.00    -0.041 Cl
ENDBRANCH   9  12
BRANCH   9  19
ATOM     19  C   UNL     1       2.043  -4.983  -0.044  0.00  0.00    +0.104 C 
ATOM     20  N   UNL     1       1.254  -5.800  -0.041  0.00  0.00    -0.191 NA
ENDBRANCH   9  19
TORSDOF 2
