REMARK  Name = CHEMBL374269
REMARK  10 active torsions:
REMARK  status: ('A' for Active; 'I' for Inactive)
REMARK    1  A    between atoms: C_1  and  S_2
REMARK    2  A    between atoms: S_2  and  C_5
REMARK    3  A    between atoms: C_8  and  C_11
REMARK    4  A    between atoms: C_11  and  N_12
REMARK    5  A    between atoms: C_13  and  C_15
REMARK    6  A    between atoms: C_17  and  N_28
REMARK    7  A    between atoms: C_18  and  C_26
REMARK    8  A    between atoms: C_19  and  O_21
REMARK    9  A    between atoms: O_21  and  C_22
REMARK   10  A    between atoms: C_22  and  C_23
REMARK                            x       y       z     vdW  Elec       q    Type
REMARK                         _______ _______ _______ _____ _____    ______ ____
ROOT
ATOM      1  C   UNL     1       4.348   0.875  -7.685  0.00  0.00    +0.131 A 
ATOM      2  C   UNL     1       5.026   0.771  -8.893  0.00  0.00    +0.057 A 
ATOM      3  C   UNL     1       5.400   1.934  -9.566  0.00  0.00    +0.050 A 
ATOM      4  C   UNL     1       5.072   3.173  -8.987  0.00  0.00    +0.134 A 
ATOM      5  C   UNL     1       4.385   3.189  -7.762  0.00  0.00    +0.235 A 
ATOM      6  N   UNL     1       4.048   2.061  -7.166  0.00  0.00    -0.207 NA
ENDROOT
BRANCH   1   8
ATOM      7  N   UNL     1       3.285  -0.270  -5.795  0.00  0.00    -0.306 N 
ATOM      8  C   UNL     1       3.948  -0.358  -6.965  0.00  0.00    +0.263 C 
ATOM      9  O   UNL     1       4.218  -1.448  -7.430  0.00  0.00    -0.269 OA
ATOM     10  H   UNL     1       3.070   0.600  -5.424  0.00  0.00    +0.149 HD
BRANCH   7  11
ATOM     11  C   UNL     1       2.890  -1.488  -5.084  0.00  0.00    +0.140 C 
BRANCH  11  15
ATOM     12  C   UNL     1       0.845  -0.437  -1.483  0.00  0.00    +0.088 A 
ATOM     13  C   UNL     1       0.135  -0.613  -2.656  0.00  0.00    +0.027 A 
ATOM     14  C   UNL     1       0.796  -0.953  -3.821  0.00  0.00    +0.007 A 
ATOM     15  C   UNL     1       2.169  -1.117  -3.814  0.00  0.00    -0.030 A 
ATOM     16  C   UNL     1       2.880  -0.941  -2.641  0.00  0.00    +0.007 A 
ATOM     17  C   UNL     1       2.219  -0.596  -1.477  0.00  0.00    +0.027 A 
BRANCH  12  19
ATOM     18  C   UNL     1      -0.022   1.810   0.012  0.00  0.00    +0.200 C 
ATOM     19  S   UNL     1       0.002  -0.004   0.002  0.00  0.00    -0.006 S 
ATOM     20  O   UNL     1       0.835  -0.488   1.046  0.00  0.00    -0.170 OA
ATOM     21  O   UNL     1      -1.315  -0.510  -0.168  0.00  0.00    -0.170 OA
ENDBRANCH  12  19
ENDBRANCH  11  15
ENDBRANCH   7  11
ENDBRANCH   1   8
BRANCH   3  22
ATOM     22  N   UNL     1       6.078   1.870 -10.773  0.00  0.00    -0.357 N 
ATOM     23  H   UNL     1       6.299   1.008 -11.161  0.00  0.00    +0.142 HD
ATOM     24  H   UNL     1       6.332   2.687 -11.231  0.00  0.00    +0.142 HD
ENDBRANCH   3  22
BRANCH   4  25
ATOM     25  C   UNL     1       5.432   4.398  -9.635  0.00  0.00    +0.106 C 
ATOM     26  N   UNL     1       5.718   5.370 -10.149  0.00  0.00    -0.191 NA
ENDBRANCH   4  25
BRANCH   5  27
ATOM     27  O   UNL     1       4.061   4.373  -7.189  0.00  0.00    -0.475 OA
BRANCH  27  28
ATOM     28  C   UNL     1       3.362   4.322  -5.944  0.00  0.00    +0.234 C 
BRANCH  28  29
ATOM     29  C   UNL     1       3.085   5.745  -5.456  0.00  0.00    +0.027 C 
ATOM     30  C   UNL     1       3.743   6.184  -4.146  0.00  0.00    +0.007 C 
ATOM     31  C   UNL     1       2.239   5.906  -4.191  0.00  0.00    +0.007 C 
ENDBRANCH  28  29
ENDBRANCH  27  28
ENDBRANCH   5  27
TORSDOF 9
