REMARK  Name = CHEMBL220320
REMARK  5 active torsions:
REMARK  status: ('A' for Active; 'I' for Inactive)
REMARK    1  A    between atoms: C_4  and  C_7
REMARK    2  A    between atoms: C_7  and  N_8
REMARK    3  A    between atoms: C_9  and  C_11
REMARK    4  A    between atoms: C_13  and  C_17
REMARK    5  A    between atoms: C_18  and  C_23
REMARK                            x       y       z     vdW  Elec       q    Type
REMARK                         _______ _______ _______ _____ _____    ______ ____
ROOT
ATOM      1  C   UNL     1       5.752  -1.846   2.946  0.00  0.00    +0.102 A 
ATOM      2  C   UNL     1       6.902  -2.483   3.320  0.00  0.00    +0.042 A 
ATOM      3  C   UNL     1       6.927  -2.498   4.728  0.00  0.00    +0.021 A 
ATOM      4  C   UNL     1       5.794  -1.871   5.164  0.00  0.00    +0.093 A 
ATOM      5  N   UNL     1       5.083  -1.471   4.090  0.00  0.00    -0.356 N 
ATOM      6  H   UNL     1       4.237  -0.997   4.118  0.00  0.00    +0.165 HD
ENDROOT
BRANCH   3   7
ATOM      7  C   UNL     1       7.989  -3.086   5.582  0.00  0.00    +0.102 A 
ATOM      8  C   UNL     1       8.428  -2.585   6.833  0.00  0.00    +0.027 A 
ATOM      9  C   UNL     1       9.412  -3.414   7.284  0.00  0.00    +0.114 A 
ATOM     10  N   UNL     1       9.584  -4.387   6.366  0.00  0.00    -0.284 N 
ATOM     11  N   UNL     1       8.685  -4.169   5.315  0.00  0.00    -0.173 NA
ATOM     12  H   UNL     1      10.221  -5.116   6.426  0.00  0.00    +0.188 HD
BRANCH   8  13
ATOM     13  C   UNL     1       7.912  -1.378   7.524  0.00  0.00    -0.013 A 
ATOM     14  C   UNL     1       7.801  -0.171   6.836  0.00  0.00    +0.009 A 
ATOM     15  C   UNL     1       7.320   0.949   7.484  0.00  0.00    +0.002 A 
ATOM     16  C   UNL     1       6.949   0.875   8.814  0.00  0.00    +0.020 A 
ATOM     17  C   UNL     1       7.057  -0.320   9.503  0.00  0.00    +0.042 A 
ATOM     18  C   UNL     1       7.532  -1.448   8.863  0.00  0.00    +0.028 A 
ATOM     19 CL   UNL     1       6.590  -0.403  11.173  0.00  0.00    -0.084 Cl
ENDBRANCH   8  13
ENDBRANCH   3   7
BRANCH   1  21
ATOM     20  N   UNL     1       4.152  -0.952   1.338  0.00  0.00    -0.306 N 
ATOM     21  C   UNL     1       5.311  -1.601   1.569  0.00  0.00    +0.261 C 
ATOM     22  O   UNL     1       5.991  -1.982   0.635  0.00  0.00    -0.269 OA
ATOM     23  H   UNL     1       3.610  -0.648   2.082  0.00  0.00    +0.149 HD
BRANCH  20  24
ATOM     24  C   UNL     1       3.711  -0.707  -0.038  0.00  0.00    +0.140 C 
BRANCH  24  28
ATOM     25  C   UNL     1      -0.017   1.378   0.010  0.00  0.00    +0.000 A 
ATOM     26  C   UNL     1       1.171   2.086   0.002  0.00  0.00    +0.000 A 
ATOM     27  C   UNL     1       2.377   1.411  -0.013  0.00  0.00    +0.005 A 
ATOM     28  C   UNL     1       2.396   0.029  -0.020  0.00  0.00    -0.030 A 
ATOM     29  C   UNL     1       1.208  -0.679  -0.012  0.00  0.00    +0.005 A 
ATOM     30  C   UNL     1       0.002  -0.004   0.002  0.00  0.00    +0.000 A 
ENDBRANCH  24  28
ENDBRANCH  20  24
ENDBRANCH   1  21
TORSDOF 5
