REMARK  Name = CHEMBL383678
REMARK  4 active torsions:
REMARK  status: ('A' for Active; 'I' for Inactive)
REMARK    1  A    between atoms: C_1  and  C_2
REMARK    2  A    between atoms: C_9  and  C_10
REMARK    3  A    between atoms: C_15  and  C_19
REMARK    4  A    between atoms: N_25  and  C_26
REMARK                            x       y       z     vdW  Elec       q    Type
REMARK                         _______ _______ _______ _____ _____    ______ ____
ROOT
ATOM      1  C   UNL     1       0.686  -4.890  -0.518  0.00  0.00    +0.239 C 
ATOM      2  O   UNL     1       1.026  -6.026  -0.265  0.00  0.00    -0.273 OA
ATOM      3  N   UNL     1       0.194  -4.100   0.456  0.00  0.00    -0.269 N 
ATOM      4  C   UNL     1      -0.021  -4.619   1.733  0.00  0.00    +0.125 A 
ATOM      5  C   UNL     1      -0.632  -3.833   2.700  0.00  0.00    +0.052 A 
ATOM      6  C   UNL     1      -0.840  -4.366   3.972  0.00  0.00    -0.013 A 
ATOM      7  C   UNL     1      -0.419  -5.678   4.217  0.00  0.00    +0.028 A 
ATOM      8  C   UNL     1       0.181  -6.392   3.201  0.00  0.00    +0.113 A 
ATOM      9  N   UNL     1       0.357  -5.858   2.007  0.00  0.00    -0.240 NA
ATOM     10  H   UNL     1      -0.012  -3.170   0.270  0.00  0.00    +0.156 HD
ENDROOT
BRANCH   1  19
ATOM     11  C   UNL     1      -1.035  -7.388  -3.381  0.00  0.00    +0.109 C 
ATOM     12  C   UNL     1      -0.505  -6.365  -2.410  0.00  0.00    +0.213 C 
ATOM     13  O   UNL     1      -0.699  -6.500  -1.220  0.00  0.00    -0.276 OA
ATOM     14  N   UNL     1       0.186  -5.300  -2.863  0.00  0.00    -0.290 N 
ATOM     15  C   UNL     1       0.318  -5.052  -4.305  0.00  0.00    +0.108 C 
ATOM     16  C   UNL     1       1.805  -4.904  -4.645  0.00  0.00    +0.019 C 
ATOM     17  C   UNL     1       2.421  -3.818  -3.761  0.00  0.00    +0.004 C 
ATOM     18  C   UNL     1       2.300  -4.224  -2.291  0.00  0.00    +0.032 C 
ATOM     19  C   UNL     1       0.815  -4.361  -1.924  0.00  0.00    +0.162 C 
ENDBRANCH   1  19
BRANCH   6  20
ATOM     20  C   UNL     1      -1.489  -3.563   5.038  0.00  0.00    -0.013 A 
ATOM     21  C   UNL     1      -1.915  -2.253   4.791  0.00  0.00    +0.028 A 
ATOM     22  C   UNL     1      -2.514  -1.539   5.806  0.00  0.00    +0.113 A 
ATOM     23  N   UNL     1      -2.691  -2.072   7.000  0.00  0.00    -0.240 NA
ATOM     24  C   UNL     1      -2.304  -3.308   7.279  0.00  0.00    +0.123 A 
ATOM     25  C   UNL     1      -1.696  -4.096   6.309  0.00  0.00    +0.052 A 
ATOM     26  N   UNL     1      -2.513  -3.824   8.554  0.00  0.00    -0.299 N 
ATOM     27  H   UNL     1      -2.149  -4.691   8.792  0.00  0.00    +0.154 HD
BRANCH  26  28
ATOM     28  C   UNL     1      -3.246  -3.092   9.492  0.00  0.00    +0.032 A 
ATOM     29  C   UNL     1      -4.297  -2.284   9.077  0.00  0.00    +0.023 A 
ATOM     30  C   UNL     1      -5.020  -1.563  10.007  0.00  0.00    +0.002 A 
ATOM     31  C   UNL     1      -4.700  -1.645  11.349  0.00  0.00    +0.000 A 
ATOM     32  C   UNL     1      -3.654  -2.449  11.766  0.00  0.00    +0.002 A 
ATOM     33  C   UNL     1      -2.930  -3.177  10.842  0.00  0.00    +0.023 A 
ENDBRANCH  26  28
ENDBRANCH   6  20
TORSDOF 3
