REMARK  Name = CHEMBL198756
REMARK  7 active torsions:
REMARK  status: ('A' for Active; 'I' for Inactive)
REMARK    1  A    between atoms: C_1  and  C_2
REMARK    2  A    between atoms: C_2  and  C_3
REMARK    3  A    between atoms: C_3  and  N_4
REMARK    4  A    between atoms: C_9  and  C_11
REMARK    5  A    between atoms: C_12  and  C_22
REMARK    6  A    between atoms: C_16  and  C_20
REMARK    7  A    between atoms: C_20  and  O_21
REMARK                            x       y       z     vdW  Elec       q    Type
REMARK                         _______ _______ _______ _____ _____    ______ ____
ROOT
ATOM      1  C   UNL     1      -3.651  -6.214   0.016  0.00  0.00    +0.096 A 
ATOM      2  C   UNL     1      -2.627  -7.015  -0.455  0.00  0.00    +0.099 A 
ATOM      3  N   UNL     1      -2.997  -8.292  -0.264  0.00  0.00    -0.232 NA
ATOM      4  C   UNL     1      -4.181  -8.330   0.294  0.00  0.00    +0.111 A 
ATOM      5  N   UNL     1      -4.624  -7.072   0.488  0.00  0.00    -0.321 N 
ATOM      6  C   UNL     1      -5.954  -7.066   1.115  0.00  0.00    +0.115 C 
ATOM      7  C   UNL     1      -6.138  -8.480   1.707  0.00  0.00    +0.035 C 
ATOM      8  C   UNL     1      -5.213  -9.323   0.796  0.00  0.00    +0.076 C 
ENDROOT
BRANCH   1  14
ATOM      9  N   UNL     1      -1.413  -1.998   0.005  0.00  0.00    -0.313 N 
ATOM     10  C   UNL     1      -2.603  -2.707   0.012  0.00  0.00    +0.216 A 
ATOM     11  N   UNL     1      -3.750  -2.042   0.021  0.00  0.00    -0.223 NA
ATOM     12  C   UNL     1      -4.910  -2.682   0.029  0.00  0.00    +0.116 A 
ATOM     13  C   UNL     1      -4.921  -4.063   0.027  0.00  0.00    +0.050 A 
ATOM     14  C   UNL     1      -3.694  -4.740   0.017  0.00  0.00    +0.094 A 
ATOM     15  N   UNL     1      -2.565  -4.029   0.005  0.00  0.00    -0.213 NA
ATOM     16  H   UNL     1      -0.567  -2.472  -0.006  0.00  0.00    +0.149 HD
BRANCH   9  17
ATOM     17  C   UNL     1      -1.433  -0.534   0.013  0.00  0.00    +0.104 C 
BRANCH  17  19
ATOM     18  C   UNL     1      -0.019   1.526   0.010  0.00  0.00    +0.005 C 
ATOM     19  C   UNL     1       0.002  -0.004   0.002  0.00  0.00    +0.015 C 
ENDBRANCH  17  19
ENDBRANCH   9  17
ENDBRANCH   1  14
BRANCH   2  20
ATOM     20  C   UNL     1      -1.356  -6.550  -1.057  0.00  0.00    +0.003 A 
ATOM     21  C   UNL     1      -1.334  -5.398  -1.842  0.00  0.00    +0.013 A 
ATOM     22  C   UNL     1      -0.148  -4.969  -2.401  0.00  0.00    +0.039 A 
ATOM     23  C   UNL     1       1.020  -5.682  -2.184  0.00  0.00    +0.123 A 
ATOM     24  C   UNL     1       1.004  -6.828  -1.405  0.00  0.00    +0.039 A 
ATOM     25  C   UNL     1      -0.176  -7.261  -0.837  0.00  0.00    +0.013 A 
ATOM     26  F   UNL     1       2.180  -5.258  -2.734  0.00  0.00    -0.205 F 
ENDBRANCH   2  20
BRANCH   6  27
ATOM     27  C   UNL     1      -6.012  -6.015   2.225  0.00  0.00    +0.181 C 
BRANCH  27  28
ATOM     28  O   UNL     1      -7.341  -5.941   2.744  0.00  0.00    -0.393 OA
ATOM     29  H   UNL     1      -7.452  -5.293   3.453  0.00  0.00    +0.209 HD
ENDBRANCH  27  28
ENDBRANCH   6  27
TORSDOF 6
