REMARK  Name = CHEMBL584899
REMARK  6 active torsions:
REMARK  status: ('A' for Active; 'I' for Inactive)
REMARK    1  A    between atoms: C_5  and  C_7
REMARK    2  A    between atoms: N_10  and  C_12
REMARK    3  A    between atoms: C_15  and  N_18
REMARK    4  A    between atoms: C_23  and  C_25
REMARK    5  A    between atoms: C_27  and  C_37
REMARK    6  A    between atoms: C_29  and  N_31
REMARK                            x       y       z     vdW  Elec       q    Type
REMARK                         _______ _______ _______ _____ _____    ______ ____
ROOT
ATOM      1  N   UNL     1       5.195  -8.751  -0.002  0.00  0.00    -0.284 N 
ATOM      2  C   UNL     1       6.568  -8.612  -0.122  0.00  0.00    +0.220 A 
ATOM      3  N   UNL     1       7.099  -7.398  -0.105  0.00  0.00    -0.223 NA
ATOM      4  C   UNL     1       8.406  -7.224  -0.217  0.00  0.00    +0.116 A 
ATOM      5  C   UNL     1       9.226  -8.330  -0.354  0.00  0.00    +0.048 A 
ATOM      6  C   UNL     1       8.638  -9.597  -0.369  0.00  0.00    +0.076 A 
ATOM      7  N   UNL     1       7.317  -9.697  -0.246  0.00  0.00    -0.214 NA
ATOM      8  H   UNL     1       4.801  -9.634   0.072  0.00  0.00    +0.155 HD
ENDROOT
BRANCH   1  12
ATOM      9  C   UNL     1       2.756  -5.371   0.044  0.00  0.00    +0.067 A 
ATOM     10  C   UNL     1       3.916  -5.380  -0.719  0.00  0.00    +0.029 A 
ATOM     11  C   UNL     1       4.723  -6.499  -0.735  0.00  0.00    +0.025 A 
ATOM     12  C   UNL     1       4.377  -7.616   0.014  0.00  0.00    +0.034 A 
ATOM     13  C   UNL     1       3.216  -7.607   0.778  0.00  0.00    +0.025 A 
ATOM     14  C   UNL     1       2.412  -6.486   0.797  0.00  0.00    +0.029 A 
BRANCH   9  18
ATOM     15  C   UNL     1       0.299  -2.860   0.509  0.00  0.00    +0.200 A 
ATOM     16  N   UNL     1       1.153  -2.269  -0.338  0.00  0.00    -0.213 NA
ATOM     17  C   UNL     1       2.137  -3.084  -0.614  0.00  0.00    +0.225 A 
ATOM     18  N   UNL     1       1.935  -4.234   0.060  0.00  0.00    -0.220 N 
ATOM     19  N   UNL     1       0.744  -4.067   0.785  0.00  0.00    -0.143 NA
BRANCH  15  24
ATOM     20  C   UNL     1      -2.454  -0.401   1.190  0.00  0.00    +0.004 A 
ATOM     21  C   UNL     1      -3.219  -1.159   2.066  0.00  0.00    +0.020 A 
ATOM     22  C   UNL     1      -2.807  -2.436   2.396  0.00  0.00    +0.111 A 
ATOM     23  N   UNL     1      -1.699  -2.941   1.891  0.00  0.00    -0.252 NA
ATOM     24  C   UNL     1      -0.940  -2.250   1.052  0.00  0.00    +0.110 A 
ATOM     25  C   UNL     1      -1.296  -0.957   0.675  0.00  0.00    +0.031 A 
ENDBRANCH  15  24
ENDBRANCH   9  18
ENDBRANCH   1  12
BRANCH   6  26
ATOM     26  C   UNL     1       9.475 -10.814  -0.513  0.00  0.00    +0.003 A 
ATOM     27  C   UNL     1      10.857 -10.699  -0.629  0.00  0.00    +0.029 A 
ATOM     28  C   UNL     1      11.640 -11.844  -0.764  0.00  0.00    +0.054 A 
ATOM     29  C   UNL     1      11.036 -13.103  -0.782  0.00  0.00    +0.042 A 
ATOM     30  C   UNL     1       9.658 -13.212  -0.667  0.00  0.00    +0.032 A 
ATOM     31  C   UNL     1       8.877 -12.073  -0.526  0.00  0.00    +0.033 A 
BRANCH  30  32
ATOM     32  N   UNL     1       9.055 -14.473  -0.686  0.00  0.00    -0.325 N 
ATOM     33  C   UNL     1       7.590 -14.611  -0.698  0.00  0.00    +0.133 C 
ATOM     34  C   UNL     1       7.203 -15.563  -1.836  0.00  0.00    +0.178 C 
ATOM     35  O   UNL     1       7.954 -16.773  -1.712  0.00  0.00    -0.377 OA
ATOM     36  C   UNL     1       9.368 -16.599  -1.833  0.00  0.00    +0.178 C 
ATOM     37  C   UNL     1       9.865 -15.700  -0.701  0.00  0.00    +0.133 C 
ENDBRANCH  30  32
BRANCH  28  38
ATOM     38  C   UNL     1      13.062 -11.730  -0.885  0.00  0.00    +0.099 C 
ATOM     39  N   UNL     1      14.191 -11.640  -0.980  0.00  0.00    -0.191 NA
ENDBRANCH  28  38
ENDBRANCH   6  26
TORSDOF 6
