REMARK  Name = CHEMBL400054
REMARK  3 active torsions:
REMARK  status: ('A' for Active; 'I' for Inactive)
REMARK    1  A    between atoms: C_8  and  C_10
REMARK    2  A    between atoms: C_13  and  N_20
REMARK    3  A    between atoms: C_21  and  C_23
REMARK                            x       y       z     vdW  Elec       q    Type
REMARK                         _______ _______ _______ _____ _____    ______ ____
ROOT
ATOM      1  C   UNL     1       2.992  -4.097  -0.342  0.00  0.00    +0.107 A 
ATOM      2  C   UNL     1       4.261  -4.584  -0.896  0.00  0.00    +0.030 A 
ATOM      3  C   UNL     1       5.258  -4.005  -1.683  0.00  0.00    +0.035 A 
ATOM      4  C   UNL     1       6.360  -4.756  -2.045  0.00  0.00    +0.034 A 
ATOM      5  C   UNL     1       6.476  -6.082  -1.627  0.00  0.00    +0.025 A 
ATOM      6  C   UNL     1       5.508  -6.658  -0.858  0.00  0.00    +0.029 A 
ATOM      7  C   UNL     1       4.386  -5.922  -0.480  0.00  0.00    +0.066 A 
ATOM      8  N   UNL     1       3.273  -6.213   0.269  0.00  0.00    -0.276 N 
ATOM      9  H   UNL     1       3.087  -7.068   0.689  0.00  0.00    +0.189 HD
ATOM     10  N   UNL     1       2.452  -5.083   0.337  0.00  0.00    -0.172 NA
ENDROOT
BRANCH   1  18
ATOM     11  C   UNL     1      -0.611   0.964  -1.062  0.00  0.00    +0.001 A 
ATOM     12  C   UNL     1       0.498   1.799  -1.079  0.00  0.00    +0.001 A 
ATOM     13  C   UNL     1       1.762   1.257  -0.950  0.00  0.00    +0.015 A 
ATOM     14  C   UNL     1       1.904  -0.106  -0.805  0.00  0.00    +0.020 A 
ATOM     15  C   UNL     1       0.793  -0.979  -0.785  0.00  0.00    -0.010 A 
ATOM     16  C   UNL     1      -0.484  -0.382  -0.920  0.00  0.00    +0.009 A 
ATOM     17  C   UNL     1       1.125  -2.384  -0.625  0.00  0.00    +0.026 A 
ATOM     18  C   UNL     1       2.428  -2.743  -0.511  0.00  0.00    +0.041 A 
ATOM     19  S   UNL     1       3.296  -1.190  -0.614  0.00  0.00    -0.087 S 
ENDBRANCH   1  18
BRANCH   4  20
ATOM     20  N   UNL     1       7.365  -4.182  -2.835  0.00  0.00    -0.285 N 
ATOM     21  C   UNL     1       7.661  -2.874  -2.705  0.00  0.00    +0.223 C 
ATOM     22  O   UNL     1       7.125  -2.214  -1.839  0.00  0.00    -0.275 OA
ATOM     23  H   UNL     1       7.849  -4.727  -3.475  0.00  0.00    +0.155 HD
BRANCH  21  24
ATOM     24  C   UNL     1       8.657  -2.230  -3.635  0.00  0.00    +0.103 C 
ATOM     25  C   UNL     1       8.944  -0.764  -3.209  0.00  0.00    +0.043 C 
ATOM     26  C   UNL     1      10.385  -0.579  -3.746  0.00  0.00    +0.160 C 
ATOM     27  O   UNL     1      11.027  -1.848  -3.545  0.00  0.00    -0.379 OA
ATOM     28  C   UNL     1      10.046  -2.890  -3.494  0.00  0.00    +0.172 C 
ENDBRANCH  21  24
ENDBRANCH   4  20
TORSDOF 3
