REMARK  Name = CHEMBL190742
REMARK  4 active torsions:
REMARK  status: ('A' for Active; 'I' for Inactive)
REMARK    1  A    between atoms: C_9  and  C_10
REMARK    2  A    between atoms: C_9  and  C_12
REMARK    3  A    between atoms: N_18  and  C_19
REMARK    4  A    between atoms: C_19  and  C_20
REMARK                            x       y       z     vdW  Elec       q    Type
REMARK                         _______ _______ _______ _____ _____    ______ ____
ROOT
ATOM      1  C   UNL     1       4.468  -4.310  -0.064  0.00  0.00    +0.089 A 
ATOM      2  C   UNL     1       4.867  -5.655  -0.082  0.00  0.00    +0.049 A 
ATOM      3  C   UNL     1       6.206  -5.941  -0.095  0.00  0.00    +0.116 A 
ATOM      4  N   UNL     1       7.085  -4.948  -0.092  0.00  0.00    -0.223 NA
ATOM      5  C   UNL     1       6.689  -3.684  -0.076  0.00  0.00    +0.216 A 
ATOM      6  N   UNL     1       5.405  -3.359  -0.068  0.00  0.00    -0.214 NA
ATOM      7  N   UNL     1       7.639  -2.678  -0.073  0.00  0.00    -0.309 N 
ATOM      8  H   UNL     1       7.362  -1.748  -0.061  0.00  0.00    +0.149 HD
ENDROOT
BRANCH   1  17
ATOM      9  C   UNL     1      -0.017   1.370   0.010  0.00  0.00    +0.002 A 
ATOM     10  C   UNL     1       1.157   2.104   0.002  0.00  0.00    +0.001 A 
ATOM     11  C   UNL     1       2.369   1.437  -0.013  0.00  0.00    +0.017 A 
ATOM     12  C   UNL     1       2.389   0.063  -0.021  0.00  0.00    +0.035 A 
ATOM     13  C   UNL     1       1.218  -0.710  -0.013  0.00  0.00    +0.046 A 
ATOM     14  C   UNL     1       0.002  -0.004   0.002  0.00  0.00    +0.024 A 
ATOM     15  N   UNL     1       1.395  -2.081  -0.022  0.00  0.00    -0.307 N 
ATOM     16  C   UNL     1       2.655  -2.611  -0.037  0.00  0.00    +0.090 C 
ATOM     17  C   UNL     1       3.038  -3.953  -0.049  0.00  0.00    +0.105 C 
ATOM     18  S   UNL     1       3.684  -1.153  -0.039  0.00  0.00    -0.071 S 
ATOM     19  H   UNL     1       0.624  -2.669  -0.018  0.00  0.00    +0.153 HD
BRANCH  17  20
ATOM     20  C   UNL     1       2.043  -4.983  -0.045  0.00  0.00    +0.104 C 
ATOM     21  N   UNL     1       1.254  -5.800  -0.042  0.00  0.00    -0.191 NA
ENDBRANCH  17  20
ENDBRANCH   1  17
BRANCH   7  22
ATOM     22  C   UNL     1       9.065  -3.017  -0.087  0.00  0.00    +0.141 C 
BRANCH  22  23
ATOM     23  C   UNL     1       9.882  -1.751  -0.081  0.00  0.00    -0.012 A 
ATOM     24  C   UNL     1      10.249  -1.146  -1.273  0.00  0.00    +0.008 A 
ATOM     25  C   UNL     1      11.002   0.017  -1.218  0.00  0.00    +0.020 A 
ATOM     26  C   UNL     1      11.359   0.531   0.014  0.00  0.00    +0.111 A 
ATOM     27  N   UNL     1      10.992  -0.072   1.128  0.00  0.00    -0.263 NA
ATOM     28  C   UNL     1      10.271  -1.176   1.114  0.00  0.00    +0.115 A 
ENDBRANCH  22  23
ENDBRANCH   7  22
TORSDOF 4
