REMARK  Name = CHEMBL253174
REMARK  1 active torsions:
REMARK  status: ('A' for Active; 'I' for Inactive)
REMARK    1  A    between atoms: C_13  and  N_18
REMARK                            x       y       z     vdW  Elec       q    Type
REMARK                         _______ _______ _______ _____ _____    ______ ____
ROOT
ATOM      1  C   UNL     1       0.203   1.382  -1.756  0.00  0.00    +0.001 A 
ATOM      2  C   UNL     1       1.411   2.064  -1.763  0.00  0.00    +0.001 A 
ATOM      3  C   UNL     1       2.590   1.422  -1.450  0.00  0.00    +0.012 A 
ATOM      4  C   UNL     1       2.570   0.066  -1.118  0.00  0.00    +0.027 A 
ATOM      5  C   UNL     1       1.331  -0.624  -1.101  0.00  0.00    +0.008 A 
ATOM      6  C   UNL     1       0.155   0.041  -1.427  0.00  0.00    +0.010 A 
ATOM      7  C   UNL     1       1.332  -2.055  -0.716  0.00  0.00    +0.067 C 
ATOM      8  N   UNL     1       0.363  -2.897  -0.931  0.00  0.00    -0.214 NA
ATOM      9  S   UNL     1       0.830  -4.412  -0.374  0.00  0.00    +0.008 S 
ATOM     10  C   UNL     1       2.554  -4.128  -0.146  0.00  0.00    +0.018 C 
ATOM     11  C   UNL     1       3.646  -4.868  -0.091  0.00  0.00    +0.014 C 
ATOM     12  C   UNL     1       4.924  -4.133   0.086  0.00  0.00    +0.020 C 
ATOM     13  C   UNL     1       4.995  -2.833  -0.277  0.00  0.00    +0.013 C 
ATOM     14  C   UNL     1       3.789  -2.149  -0.839  0.00  0.00    +0.118 C 
ATOM     15  C   UNL     1       2.561  -2.611  -0.028  0.00  0.00    +0.093 C 
ATOM     16  C   UNL     1       3.820  -0.648  -0.794  0.00  0.00    +0.173 C 
ATOM     17  O   UNL     1       4.832  -0.046  -0.501  0.00  0.00    -0.291 OA
ENDROOT
BRANCH  13  18
ATOM     18  N   UNL     1       6.184  -2.134  -0.127  0.00  0.00    -0.361 N 
ATOM     19  H   UNL     1       6.326  -1.308  -0.617  0.00  0.00    +0.142 HD
ATOM     20  H   UNL     1       6.873  -2.470   0.468  0.00  0.00    +0.142 HD
ENDBRANCH  13  18
TORSDOF 1
