REMARK  Name = CHEMBL365963
REMARK  5 active torsions:
REMARK  status: ('A' for Active; 'I' for Inactive)
REMARK    1  A    between atoms: N_9  and  C_10
REMARK    2  A    between atoms: C_10  and  C_11
REMARK    3  A    between atoms: C_11  and  N_12
REMARK    4  A    between atoms: C_17  and  C_19
REMARK    5  A    between atoms: C_19  and  C_29
REMARK                            x       y       z     vdW  Elec       q    Type
REMARK                         _______ _______ _______ _____ _____    ______ ____
ROOT
ATOM      1  N   UNL     1       6.790   0.028   1.374  0.00  0.00    -0.312 N 
ATOM      2  C   UNL     1       7.451   0.280   2.563  0.00  0.00    +0.216 A 
ATOM      3  N   UNL     1       6.779   0.210   3.703  0.00  0.00    -0.223 NA
ATOM      4  C   UNL     1       7.375   0.445   4.864  0.00  0.00    +0.116 A 
ATOM      5  C   UNL     1       8.716   0.766   4.883  0.00  0.00    +0.049 A 
ATOM      6  C   UNL     1       9.404   0.834   3.663  0.00  0.00    +0.089 A 
ATOM      7  N   UNL     1       8.740   0.581   2.532  0.00  0.00    -0.214 NA
ATOM      8  H   UNL     1       7.270   0.071   0.532  0.00  0.00    +0.149 HD
ENDROOT
BRANCH   6   9
ATOM      9  C   UNL     1      10.837   1.174   3.629  0.00  0.00    +0.105 C 
ATOM     10  C   UNL     1      11.511   1.238   2.408  0.00  0.00    +0.090 C 
ATOM     11  N   UNL     1      11.023   1.027   1.149  0.00  0.00    -0.307 N 
ATOM     12  C   UNL     1      11.857   1.138   0.051  0.00  0.00    +0.046 A 
ATOM     13  C   UNL     1      11.521   0.955  -1.301  0.00  0.00    +0.024 A 
ATOM     14  C   UNL     1      12.466   1.100  -2.289  0.00  0.00    +0.002 A 
ATOM     15  C   UNL     1      13.776   1.430  -1.987  0.00  0.00    +0.001 A 
ATOM     16  C   UNL     1      14.136   1.617  -0.664  0.00  0.00    +0.017 A 
ATOM     17  C   UNL     1      13.192   1.472   0.325  0.00  0.00    +0.035 A 
ATOM     18  S   UNL     1      13.225   1.624   2.094  0.00  0.00    -0.071 S 
ATOM     19  H   UNL     1      10.089   0.798   1.024  0.00  0.00    +0.153 HD
BRANCH   9  20
ATOM     20  C   UNL     1      11.539   1.439   4.848  0.00  0.00    +0.104 C 
ATOM     21  N   UNL     1      12.096   1.649   5.816  0.00  0.00    -0.191 NA
ENDBRANCH   9  20
ENDBRANCH   6   9
BRANCH   1  22
ATOM     22  C   UNL     1       5.363  -0.307   1.386  0.00  0.00    +0.126 C 
BRANCH  22  23
ATOM     23  C   UNL     1       4.881  -0.537  -0.048  0.00  0.00    +0.140 C 
BRANCH  23  32
ATOM     24  C   UNL     1      -0.017   1.362   0.009  0.00  0.00    +0.001 A 
ATOM     25  C   UNL     1       1.170   2.083   0.002  0.00  0.00    +0.002 A 
ATOM     26  C   UNL     1       2.386   1.436  -0.013  0.00  0.00    +0.026 A 
ATOM     27  C   UNL     1       2.428   0.046  -0.021  0.00  0.00    +0.049 A 
ATOM     28  C   UNL     1       1.223  -0.681  -0.013  0.00  0.00    -0.000 A 
ATOM     29  C   UNL     1       0.002  -0.004   0.002  0.00  0.00    +0.010 A 
ATOM     30  C   UNL     1       1.604  -2.095  -0.025  0.00  0.00    +0.027 A 
ATOM     31  C   UNL     1       2.945  -2.141  -0.038  0.00  0.00    +0.087 A 
ATOM     32  N   UNL     1       3.455  -0.871  -0.036  0.00  0.00    -0.345 N 
ENDBRANCH  23  32
ENDBRANCH  22  23
ENDBRANCH   1  22
TORSDOF 5
