REMARK  Name = CHEMBL383955
REMARK  6 active torsions:
REMARK  status: ('A' for Active; 'I' for Inactive)
REMARK    1  A    between atoms: N_9  and  C_10
REMARK    2  A    between atoms: N_13  and  S_16
REMARK    3  A    between atoms: S_16  and  C_19
REMARK    4  A    between atoms: C_22  and  C_24
REMARK    5  A    between atoms: C_24  and  N_25
REMARK    6  A    between atoms: C_26  and  C_28
REMARK                            x       y       z     vdW  Elec       q    Type
REMARK                         _______ _______ _______ _____ _____    ______ ____
ROOT
ATOM      1  S   UNL     1       8.927  -2.319  -0.101  0.00  0.00    +0.067 S 
ATOM      2  O   UNL     1       8.929  -3.010   1.140  0.00  0.00    -0.152 OA
ATOM      3  O   UNL     1       8.903  -2.997  -1.350  0.00  0.00    -0.152 OA
ENDROOT
BRANCH   1   7
ATOM      4  C   UNL     1       4.879  -0.581  -0.050  0.00  0.00    +0.112 C 
ATOM      5  C   UNL     1       5.506  -1.183  -1.310  0.00  0.00    +0.044 C 
ATOM      6  C   UNL     1       7.002  -0.855  -1.338  0.00  0.00    +0.111 C 
ATOM      7  N   UNL     1       7.610  -1.315  -0.082  0.00  0.00    -0.176 NA
ATOM      8  C   UNL     1       7.028  -0.869   1.191  0.00  0.00    +0.111 C 
ATOM      9  C   UNL     1       5.532  -1.196   1.190  0.00  0.00    +0.044 C 
BRANCH   4  18
ATOM     10  C   UNL     1      -0.016   1.360   0.009  0.00  0.00    +0.002 A 
ATOM     11  C   UNL     1       1.167   2.086   0.002  0.00  0.00    +0.002 A 
ATOM     12  C   UNL     1       2.375   1.447  -0.013  0.00  0.00    +0.029 A 
ATOM     13  C   UNL     1       2.422   0.057  -0.021  0.00  0.00    +0.089 A 
ATOM     14  C   UNL     1       1.227  -0.684  -0.013  0.00  0.00    +0.113 A 
ATOM     15  C   UNL     1       0.002  -0.004   0.002  0.00  0.00    +0.032 A 
ATOM     16  N   UNL     1       1.557  -1.991  -0.024  0.00  0.00    -0.129 NA
ATOM     17  N   UNL     1       2.836  -2.129  -0.037  0.00  0.00    -0.064 NA
ATOM     18  N   UNL     1       3.442  -0.864  -0.036  0.00  0.00    -0.241 N 
ENDBRANCH   4  18
ENDBRANCH   1   7
BRANCH   1  19
ATOM     19  C   UNL     1      10.362  -1.297  -0.111  0.00  0.00    +0.143 A 
ATOM     20  C   UNL     1      11.071  -0.811   0.937  0.00  0.00    +0.037 A 
ATOM     21  C   UNL     1      12.177  -0.020   0.689  0.00  0.00    +0.015 A 
ATOM     22  C   UNL     1      12.519   0.248  -0.595  0.00  0.00    +0.009 A 
ATOM     23  S   UNL     1      11.263  -0.637  -1.504  0.00  0.00    -0.072 S 
BRANCH  22  24
ATOM     24  C   UNL     1      13.665   1.074  -1.119  0.00  0.00    +0.147 C 
BRANCH  24  25
ATOM     25  N   UNL     1      14.838   0.217  -1.310  0.00  0.00    -0.307 N 
ATOM     26  C   UNL     1      15.988   0.742  -1.775  0.00  0.00    +0.244 C 
ATOM     27  O   UNL     1      16.053   1.928  -2.036  0.00  0.00    -0.270 OA
ATOM     28  H   UNL     1      14.786  -0.729  -1.102  0.00  0.00    +0.149 HD
BRANCH  26  29
ATOM     29  C   UNL     1      17.171  -0.123  -1.968  0.00  0.00    +0.037 A 
ATOM     30  C   UNL     1      17.098  -1.486  -1.675  0.00  0.00    +0.014 A 
ATOM     31  C   UNL     1      18.204  -2.288  -1.857  0.00  0.00    +0.021 A 
ATOM     32  C   UNL     1      19.387  -1.744  -2.329  0.00  0.00    +0.041 A 
ATOM     33  C   UNL     1      19.466  -0.392  -2.622  0.00  0.00    +0.021 A 
ATOM     34  C   UNL     1      18.364   0.419  -2.449  0.00  0.00    +0.014 A 
ATOM     35 CL   UNL     1      20.777  -2.760  -2.555  0.00  0.00    -0.084 Cl
ENDBRANCH  26  29
ENDBRANCH  24  25
ENDBRANCH  22  24
ENDBRANCH   1  19
TORSDOF 6
