REMARK  Name = ZINC20836265
REMARK  11 active torsions:
REMARK  status: ('A' for Active; 'I' for Inactive)
REMARK    1  A    between atoms: C_1  and  C_2
REMARK    2  A    between atoms: C_2  and  O_3
REMARK    3  A    between atoms: O_3  and  C_4
REMARK    4  A    between atoms: C_6  and  C_11
REMARK    5  A    between atoms: C_9  and  O_10
REMARK    6  A    between atoms: N_12  and  N_13
REMARK    7  A    between atoms: C_16  and  S_19
REMARK    8  A    between atoms: S_19  and  C_20
REMARK    9  A    between atoms: C_20  and  C_21
REMARK   10  A    between atoms: N_23  and  N_24
REMARK   11  A    between atoms: C_25  and  C_27
REMARK                            x       y       z     vdW  Elec       q    Type
REMARK                         _______ _______ _______ _____ _____    ______ ____
ROOT
ATOM      1  N   UNL     1      -0.632  -7.119   1.252  0.00  0.00    -0.205 N 
ATOM      2  C   UNL     1      -0.521  -8.492   1.081  0.00  0.00    +0.232 A 
ATOM      3  N   UNL     1      -0.994  -9.449   1.935  0.00  0.00    -0.186 NA
ATOM      4  C   UNL     1      -0.686 -10.672   1.411  0.00  0.00    +0.211 A 
ATOM      5  N   UNL     1      -0.050 -10.480   0.280  0.00  0.00    -0.144 NA
ATOM      6  N   UNL     1       0.050  -9.099   0.069  0.00  0.00    -0.245 N 
ATOM      7  H   UNL     1      -1.138  -6.715   2.141  0.00  0.00    +0.177 HD
ATOM      8  H   UNL     1       0.496  -8.509  -0.746  0.00  0.00    +0.192 HD
ENDROOT
BRANCH   1  10
ATOM      9  C   UNL     1      -0.202  -4.964   0.453  0.00  0.00    +0.138 C 
ATOM     10  N   UNL     1      -0.098  -6.249   0.292  0.00  0.00    -0.188 NA
BRANCH   9  13
ATOM     11  C   UNL     1       0.777  -1.811  -1.336  0.00  0.00    +0.162 A 
ATOM     12  C   UNL     1       0.249  -2.666  -0.386  0.00  0.00    +0.059 A 
ATOM     13  C   UNL     1       0.359  -4.048  -0.557  0.00  0.00    -0.002 A 
ATOM     14  C   UNL     1       1.002  -4.560  -1.687  0.00  0.00    +0.013 A 
ATOM     15  C   UNL     1       1.526  -3.701  -2.630  0.00  0.00    +0.050 A 
ATOM     16  C   UNL     1       1.412  -2.329  -2.463  0.00  0.00    +0.158 A 
BRANCH  16  17
ATOM     17  O   UNL     1       1.925  -1.486  -3.399  0.00  0.00    -0.503 OA
ATOM     18  H   UNL     1       2.427  -1.893  -4.289  0.00  0.00    +0.292 HD
ENDBRANCH  16  17
BRANCH  11  19
ATOM     19  O   UNL     1       0.671  -0.465  -1.174  0.00  0.00    -0.489 OA
BRANCH  19  21
ATOM     20  C   UNL     1      -0.019   1.526   0.010  0.00  0.00    +0.048 C 
ATOM     21  C   UNL     1       0.002  -0.004   0.002  0.00  0.00    +0.226 C 
ENDBRANCH  19  21
ENDBRANCH  11  19
ENDBRANCH   9  13
ENDBRANCH   1  10
BRANCH   4  22
ATOM     22  S   UNL     1      -1.077 -12.234   2.127  0.00  0.00    -0.075 S 
BRANCH  22  23
ATOM     23  C   UNL     1      -0.400 -13.438   0.951  0.00  0.00    +0.174 C 
BRANCH  23  24
ATOM     24  C   UNL     1      -0.669 -14.834   1.450  0.00  0.00    +0.239 C 
ATOM     25  O   UNL     1      -1.259 -15.000   2.497  0.00  0.00    -0.273 OA
ATOM     26  N   UNL     1      -0.254 -15.897   0.734  0.00  0.00    -0.233 N 
ATOM     27  H   UNL     1       0.281 -15.746  -0.215  0.00  0.00    +0.173 HD
BRANCH  26  28
ATOM     28  N   UNL     1      -0.505 -17.195   1.198  0.00  0.00    -0.227 N 
ATOM     29  C   UNL     1      -0.090 -18.259   0.482  0.00  0.00    +0.333 C 
ATOM     30  O   UNL     1       0.500 -18.092  -0.565  0.00  0.00    -0.264 OA
ATOM     31  H   UNL     1      -1.040 -17.346   2.147  0.00  0.00    +0.173 HD
BRANCH  29  32
ATOM     32  C   UNL     1      -0.359 -19.655   0.981  0.00  0.00    +0.471 C 
ATOM     33  F   UNL     1       0.163 -20.583   0.074  0.00  0.00    -0.162 F 
ATOM     34  F   UNL     1       0.250 -19.829   2.229  0.00  0.00    -0.162 F 
ATOM     35  F   UNL     1      -1.739 -19.848   1.104  0.00  0.00    -0.162 F 
ENDBRANCH  29  32
ENDBRANCH  26  28
ENDBRANCH  23  24
ENDBRANCH  22  23
ENDBRANCH   4  22
TORSDOF 10
