REMARK  Name = ZINC20206406
REMARK  6 active torsions:
REMARK  status: ('A' for Active; 'I' for Inactive)
REMARK    1  A    between atoms: C_1  and  C_2
REMARK    2  A    between atoms: C_4  and  C_16
REMARK    3  A    between atoms: C_5  and  C_15
REMARK    4  A    between atoms: N_6  and  C_7
REMARK    5  A    between atoms: C_27  and  S_28
REMARK    6  A    between atoms: S_28  and  C_31
REMARK                            x       y       z     vdW  Elec       q    Type
REMARK                         _______ _______ _______ _____ _____    ______ ____
ROOT
ATOM      1  C   UNL     1       0.098  -3.237  -1.056  0.00  0.00    +0.026 C 
ATOM      2  C   UNL     1      -0.512  -3.296  -2.292  0.00  0.00    +0.078 C 
ATOM      3  C   UNL     1      -0.504  -4.538  -3.115  0.00  0.00    +0.117 C 
ATOM      4  N   UNL     1      -0.517  -5.740  -2.603  0.00  0.00    -0.386 N 
ATOM      5  N   UNL     1      -0.481  -4.286  -4.501  0.00  0.00    -0.203 N 
ATOM      6  C   UNL     1      -0.947  -3.069  -4.954  0.00  0.00    +0.183 C 
ATOM      7  N   UNL     1      -1.330  -2.053  -4.215  0.00  0.00    -0.152 NA
ATOM      8  C   UNL     1      -1.217  -2.128  -2.873  0.00  0.00    +0.273 C 
ATOM      9  O   UNL     1      -1.679  -1.257  -2.155  0.00  0.00    -0.268 OA
ATOM     10  S   UNL     1      -0.875  -3.227  -6.612  0.00  0.00    +0.049 S 
ATOM     11  N   UNL     1      -0.173  -4.746  -6.711  0.00  0.00    -0.174 NA
ATOM     12  C   UNL     1      -0.051  -5.122  -5.475  0.00  0.00    +0.257 C 
ATOM     13  H   UNL     1      -0.435  -5.860  -1.644  0.00  0.00    +0.157 HD
ATOM     14  H   UNL     1      -0.610  -6.513  -3.182  0.00  0.00    +0.157 HD
ENDROOT
BRANCH   1  18
ATOM     15  C   UNL     1       0.800   1.718  -0.109  0.00  0.00    +0.064 C 
ATOM     16  C   UNL     1       0.540   0.240   0.036  0.00  0.00    +0.022 A 
ATOM     17  C   UNL     1       0.514  -0.648  -0.971  0.00  0.00    +0.031 A 
ATOM     18  C   UNL     1       0.227  -1.956  -0.365  0.00  0.00    -0.003 A 
ATOM     19  C   UNL     1       0.104  -1.725   0.995  0.00  0.00    +0.028 A 
ATOM     20  N   UNL     1       0.300  -0.410   1.216  0.00  0.00    -0.316 N 
ATOM     21  C   UNL     1      -0.192  -2.764   2.046  0.00  0.00    +0.064 C 
BRANCH  20  22
ATOM     22  C   UNL     1       0.259   0.206   2.474  0.00  0.00    +0.065 A 
ATOM     23  C   UNL     1      -0.941   0.699   2.969  0.00  0.00    +0.029 A 
ATOM     24  C   UNL     1      -0.978   1.305   4.209  0.00  0.00    +0.022 A 
ATOM     25  C   UNL     1       0.178   1.421   4.960  0.00  0.00    +0.042 A 
ATOM     26  C   UNL     1       1.376   0.930   4.471  0.00  0.00    +0.042 A 
ATOM     27  C   UNL     1       1.418   0.317   3.232  0.00  0.00    +0.066 A 
ATOM     28 CL   UNL     1       2.919  -0.306   2.622  0.00  0.00    -0.081 Cl
ATOM     29 CL   UNL     1       0.127   2.183   6.519  0.00  0.00    -0.083 Cl
ENDBRANCH  20  22
ENDBRANCH   1  18
BRANCH  12  30
ATOM     30  S   UNL     1       0.657  -6.684  -5.074  0.00  0.00    +0.026 S 
ATOM     31  O   UNL     1       1.425  -7.039  -6.217  0.00  0.00    -0.167 OA
ATOM     32  O   UNL     1       1.284  -6.486  -3.814  0.00  0.00    -0.167 OA
ATOM     33  C   UNL     1      -0.757  -7.807  -4.899  0.00  0.00    +0.203 C 
ENDBRANCH  12  30
TORSDOF 3
