REMARK  Name = ZINC67294984
REMARK  4 active torsions:
REMARK  status: ('A' for Active; 'I' for Inactive)
REMARK    1  A    between atoms: C_1  and  C_2
REMARK    2  A    between atoms: C_5  and  N_9
REMARK    3  A    between atoms: C_7  and  C_8
REMARK    4  A    between atoms: C_11  and  C_21
REMARK                            x       y       z     vdW  Elec       q    Type
REMARK                         _______ _______ _______ _____ _____    ______ ____
ROOT
ATOM      1  N   UNL     1      -0.309  -4.582   0.668  0.00  0.00    -0.325 N 
ATOM      2  C   UNL     1      -0.848  -4.871  -0.496  0.00  0.00    +0.212 A 
ATOM      3  C   UNL     1      -0.572  -6.158  -1.164  0.00  0.00    +0.098 A 
ATOM      4  C   UNL     1      -1.542  -6.641  -2.033  0.00  0.00    +0.030 A 
ATOM      5  C   UNL     1      -2.751  -5.832  -2.209  0.00  0.00    +0.019 A 
ATOM      6  C   UNL     1      -3.880  -6.360  -2.846  0.00  0.00    +0.026 A 
ATOM      7  C   UNL     1      -5.005  -5.579  -2.995  0.00  0.00    +0.019 A 
ATOM      8  C   UNL     1      -5.022  -4.275  -2.518  0.00  0.00    +0.019 A 
ATOM      9  C   UNL     1      -3.916  -3.741  -1.889  0.00  0.00    +0.048 A 
ATOM     10  C   UNL     1      -2.772  -4.508  -1.730  0.00  0.00    +0.137 A 
ATOM     11  O   UNL     1      -1.680  -3.996  -1.118  0.00  0.00    -0.439 OA
ATOM     12 BR   UNL     1      -6.533  -6.286  -3.855  0.00  0.00    -0.050 Br
ATOM     13  H   UNL     1       0.197  -5.256   1.149  0.00  0.00    +0.169 HD
ENDROOT
BRANCH   3  14
ATOM     14  C   UNL     1       0.677  -6.898  -0.920  0.00  0.00    +0.254 C 
ATOM     15  O   UNL     1       0.825  -8.012  -1.386  0.00  0.00    -0.270 OA
ATOM     16  N   UNL     1       1.657  -6.341  -0.181  0.00  0.00    -0.266 N 
ATOM     17  C   UNL     1       2.866  -7.010  -0.010  0.00  0.00    +0.125 A 
ATOM     18  C   UNL     1       2.930  -8.383  -0.221  0.00  0.00    +0.044 A 
ATOM     19  C   UNL     1       4.138  -9.036  -0.048  0.00  0.00    +0.005 A 
ATOM     20  C   UNL     1       5.245  -8.290   0.333  0.00  0.00    +0.020 A 
ATOM     21  C   UNL     1       5.109  -6.929   0.526  0.00  0.00    +0.113 A 
ATOM     22  N   UNL     1       3.946  -6.333   0.347  0.00  0.00    -0.240 NA
ATOM     23  H   UNL     1       1.520  -5.474   0.231  0.00  0.00    +0.157 HD
ENDBRANCH   3  14
BRANCH   1  28
ATOM     24  C   UNL     1      -0.941   0.577   2.869  0.00  0.00    +0.044 C 
ATOM     25  C   UNL     1      -0.773  -0.801   2.282  0.00  0.00    -0.047 A 
ATOM     26  C   UNL     1      -0.443  -0.944   0.945  0.00  0.00    +0.005 A 
ATOM     27  C   UNL     1      -0.286  -2.201   0.401  0.00  0.00    +0.026 A 
ATOM     28  C   UNL     1      -0.462  -3.332   1.202  0.00  0.00    +0.042 A 
ATOM     29  C   UNL     1      -0.795  -3.180   2.550  0.00  0.00    +0.029 A 
ATOM     30  C   UNL     1      -0.943  -1.916   3.082  0.00  0.00    -0.046 A 
ATOM     31  C   UNL     1      -1.297  -1.750   4.537  0.00  0.00    +0.044 C 
ENDBRANCH   1  28
TORSDOF 2
