REMARK  Name = ZINC02931197
REMARK  6 active torsions:
REMARK  status: ('A' for Active; 'I' for Inactive)
REMARK    1  A    between atoms: C_1  and  C_2
REMARK    2  A    between atoms: C_10  and  C_11
REMARK    3  A    between atoms: N_13  and  C_14
REMARK    4  A    between atoms: C_17  and  O_21
REMARK    5  A    between atoms: O_21  and  C_22
REMARK    6  A    between atoms: N_26  and  C_29
REMARK                            x       y       z     vdW  Elec       q    Type
REMARK                         _______ _______ _______ _____ _____    ______ ____
ROOT
ATOM      1  C   UNL     1      -1.444  -5.074  -0.355  0.00  0.00    +0.046 C 
ATOM      2  C   UNL     1      -2.632  -4.147  -0.319  0.00  0.00    -0.019 A 
ATOM      3  C   UNL     1      -3.930  -4.665  -0.408  0.00  0.00    +0.051 A 
ATOM      4  C   UNL     1      -4.354  -6.022  -0.536  0.00  0.00    +0.133 A 
ATOM      5  N   UNL     1      -5.648  -6.289  -0.603  0.00  0.00    -0.220 NA
ATOM      6  C   UNL     1      -6.568  -5.342  -0.556  0.00  0.00    +0.224 A 
ATOM      7  N   UNL     1      -6.240  -4.070  -0.439  0.00  0.00    -0.228 NA
ATOM      8  C   UNL     1      -4.976  -3.710  -0.365  0.00  0.00    +0.114 A 
ATOM      9  S   UNL     1      -4.113  -2.168  -0.198  0.00  0.00    -0.064 S 
ATOM     10  C   UNL     1      -2.445  -2.803  -0.200  0.00  0.00    +0.080 A 
ATOM     11  N   UNL     1      -3.426  -7.042  -0.589  0.00  0.00    -0.312 N 
ATOM     12  C   UNL     1      -3.557  -7.809  -1.836  0.00  0.00    +0.125 C 
ATOM     13  C   UNL     1      -2.462  -8.877  -1.892  0.00  0.00    +0.124 C 
ATOM     14  N   UNL     1      -2.579  -9.757  -0.721  0.00  0.00    -0.325 N 
ATOM     15  C   UNL     1      -2.449  -8.990   0.526  0.00  0.00    +0.124 C 
ATOM     16  C   UNL     1      -3.544  -7.922   0.582  0.00  0.00    +0.125 C 
ENDROOT
BRANCH  14  17
ATOM     17  C   UNL     1      -1.639 -10.790  -0.775  0.00  0.00    +0.065 A 
ATOM     18  C   UNL     1      -1.632 -11.776   0.203  0.00  0.00    +0.026 A 
ATOM     19  C   UNL     1      -0.704 -12.798   0.145  0.00  0.00    +0.002 A 
ATOM     20  C   UNL     1       0.223 -12.836  -0.880  0.00  0.00    +0.003 A 
ATOM     21  C   UNL     1       0.223 -11.854  -1.854  0.00  0.00    +0.040 A 
ATOM     22  C   UNL     1      -0.705 -10.830  -1.805  0.00  0.00    +0.144 A 
ATOM     23  F   UNL     1      -0.705  -9.870  -2.756  0.00  0.00    -0.204 F 
ENDBRANCH  14  17
BRANCH  10  24
ATOM     24  C   UNL     1      -1.183  -2.061  -0.094  0.00  0.00    +0.255 C 
ATOM     25  O   UNL     1      -0.123  -2.658  -0.107  0.00  0.00    -0.269 OA
ATOM     26  N   UNL     1      -1.199  -0.718   0.018  0.00  0.00    -0.281 N 
ATOM     27  H   UNL     1      -2.044  -0.247   0.095  0.00  0.00    +0.155 HD
BRANCH  26  28
ATOM     28  C   UNL     1       0.004  -0.001   0.023  0.00  0.00    +0.035 A 
ATOM     29  C   UNL     1       0.068   1.253  -0.571  0.00  0.00    +0.027 A 
ATOM     30  C   UNL     1       1.254   1.959  -0.566  0.00  0.00    +0.049 A 
ATOM     31  C   UNL     1       2.382   1.417   0.033  0.00  0.00    +0.138 A 
ATOM     32  C   UNL     1       2.320   0.164   0.626  0.00  0.00    +0.084 A 
ATOM     33  C   UNL     1       1.133  -0.544   0.621  0.00  0.00    +0.047 A 
ATOM     34 CL   UNL     1       3.732  -0.514   1.375  0.00  0.00    -0.080 Cl
BRANCH  31  35
ATOM     35  O   UNL     1       3.550   2.114   0.038  0.00  0.00    -0.494 OA
ATOM     36  C   UNL     1       3.543   3.397  -0.591  0.00  0.00    +0.277 C 
ENDBRANCH  31  35
ENDBRANCH  26  28
ENDBRANCH  10  24
TORSDOF 4
