REMARK  Name = ZINC11751542
REMARK  3 active torsions:
REMARK  status: ('A' for Active; 'I' for Inactive)
REMARK    1  A    between atoms: C_6  and  S_7
REMARK    2  A    between atoms: S_7  and  N_10
REMARK    3  A    between atoms: C_13  and  C_16
REMARK                            x       y       z     vdW  Elec       q    Type
REMARK                         _______ _______ _______ _____ _____    ______ ____
ROOT
ATOM      1  N   UNL     1      -3.548  -5.283   1.088  0.00  0.00    -0.177 NA
ATOM      2  C   UNL     1      -2.656  -5.588  -0.038  0.00  0.00    +0.110 C 
ATOM      3  C   UNL     1      -1.474  -4.614  -0.009  0.00  0.00    +0.030 C 
ATOM      4  C   UNL     1      -2.001  -3.178   0.003  0.00  0.00    +0.078 C 
ATOM      5  C   UNL     1      -2.843  -2.953   1.261  0.00  0.00    +0.030 C 
ATOM      6  C   UNL     1      -4.041  -3.908   1.246  0.00  0.00    +0.110 C 
ENDROOT
BRANCH   4   7
ATOM      7  C   UNL     1      -0.840  -2.217  -0.002  0.00  0.00    +0.222 C 
ATOM      8  O   UNL     1       0.296  -2.639  -0.015  0.00  0.00    -0.275 OA
ATOM      9  N   UNL     1      -1.066  -0.888   0.007  0.00  0.00    -0.264 N 
ATOM     10  C   UNL     1       0.002  -0.004   0.002  0.00  0.00    +0.165 A 
ATOM     11  N   UNL     1       1.288  -0.266  -0.012  0.00  0.00    -0.224 NA
ATOM     12  C   UNL     1       2.228   0.705  -0.015  0.00  0.00    +0.084 A 
ATOM     13  C   UNL     1       3.634   0.557  -0.028  0.00  0.00    +0.078 A 
ATOM     14  C   UNL     1       4.463   1.656  -0.028  0.00  0.00    +0.164 A 
ATOM     15  C   UNL     1       3.938   2.949  -0.018  0.00  0.00    +0.163 A 
ATOM     16  C   UNL     1       2.564   3.126  -0.006  0.00  0.00    +0.066 A 
ATOM     17  C   UNL     1       1.737   2.030  -0.004  0.00  0.00    +0.044 A 
ATOM     18  S   UNL     1      -0.022   1.783   0.012  0.00  0.00    -0.052 S 
ATOM     19  O   UNL     1       4.753   4.038  -0.025  0.00  0.00    -0.485 OA
ATOM     20  C   UNL     1       6.121   3.820   0.338  0.00  0.00    +0.270 C 
ATOM     21  C   UNL     1       6.623   2.580  -0.414  0.00  0.00    +0.270 C 
ATOM     22  O   UNL     1       5.814   1.464  -0.031  0.00  0.00    -0.485 OA
ATOM     23  H   UNL     1      -1.975  -0.550   0.017  0.00  0.00    +0.157 HD
ENDBRANCH   4   7
BRANCH   1  24
ATOM     24  S   UNL     1      -3.990  -6.466   2.159  0.00  0.00    +0.061 S 
ATOM     25  O   UNL     1      -5.217  -6.049   2.742  0.00  0.00    -0.153 OA
ATOM     26  O   UNL     1      -3.853  -7.704   1.476  0.00  0.00    -0.153 OA
BRANCH  24  32
ATOM     27  C   UNL     1      -1.672  -7.272   3.354  0.00  0.00    +0.031 A 
ATOM     28  C   UNL     1      -0.730  -7.272   4.366  0.00  0.00    +0.043 A 
ATOM     29  C   UNL     1      -0.914  -6.478   5.484  0.00  0.00    +0.159 A 
ATOM     30  C   UNL     1      -2.043  -5.678   5.586  0.00  0.00    +0.160 A 
ATOM     31  C   UNL     1      -2.981  -5.676   4.569  0.00  0.00    +0.069 A 
ATOM     32  C   UNL     1      -2.794  -6.470   3.454  0.00  0.00    +0.108 A 
ATOM     33  F   UNL     1      -2.225  -4.902   6.676  0.00  0.00    -0.202 F 
ATOM     34  F   UNL     1       0.004  -6.482   6.475  0.00  0.00    -0.202 F 
ENDBRANCH  24  32
ENDBRANCH   1  24
TORSDOF 3
