REMARK  Name = ZINC23968440
REMARK  6 active torsions:
REMARK  status: ('A' for Active; 'I' for Inactive)
REMARK    1  A    between atoms: C_1  and  C_2
REMARK    2  A    between atoms: C_2  and  C_4
REMARK    3  A    between atoms: C_2  and  N_23
REMARK    4  A    between atoms: N_6  and  C_7
REMARK    5  A    between atoms: C_10  and  C_13
REMARK    6  A    between atoms: C_13  and  C_14
REMARK                            x       y       z     vdW  Elec       q    Type
REMARK                         _______ _______ _______ _____ _____    ______ ____
ROOT
ATOM      1  C   UNL     1       0.709  -0.401   1.243  0.00  0.00    +0.234 C 
ATOM      2  O   UNL     1       1.802  -0.916   1.139  0.00  0.00    -0.274 OA
ATOM      3  N   UNL     1       0.140  -0.266   2.457  0.00  0.00    -0.284 N 
ATOM      4  H   UNL     1      -0.698   0.214   2.550  0.00  0.00    +0.155 HD
ENDROOT
BRANCH   3   5
ATOM      5  C   UNL     1       0.759  -0.817   3.585  0.00  0.00    +0.033 A 
ATOM      6  C   UNL     1       0.648  -0.188   4.817  0.00  0.00    +0.023 A 
ATOM      7  C   UNL     1       1.260  -0.734   5.928  0.00  0.00    +0.006 A 
ATOM      8  C   UNL     1       1.983  -1.907   5.814  0.00  0.00    -0.041 A 
ATOM      9  C   UNL     1       2.096  -2.537   4.588  0.00  0.00    +0.006 A 
ATOM     10  C   UNL     1       1.482  -1.998   3.474  0.00  0.00    +0.023 A 
BRANCH   8  11
ATOM     11  C   UNL     1       2.650  -2.501   7.028  0.00  0.00    +0.098 C 
BRANCH  11  12
ATOM     12  C   UNL     1       1.698  -3.450   7.710  0.00  0.00    +0.084 A 
ATOM     13  N   UNL     1       1.557  -4.726   7.500  0.00  0.00    -0.244 NA
ATOM     14  C   UNL     1       0.663  -5.472   8.181  0.00  0.00    +0.078 A 
ATOM     15  C   UNL     1       0.376  -6.850   8.088  0.00  0.00    +0.029 A 
ATOM     16  C   UNL     1      -0.579  -7.413   8.878  0.00  0.00    +0.002 A 
ATOM     17  C   UNL     1      -1.299  -6.662   9.797  0.00  0.00    +0.001 A 
ATOM     18  C   UNL     1      -1.045  -5.308   9.918  0.00  0.00    +0.017 A 
ATOM     19  C   UNL     1      -0.084  -4.730   9.125  0.00  0.00    +0.039 A 
ATOM     20  S   UNL     1       0.582  -3.099   8.921  0.00  0.00    -0.072 S 
ENDBRANCH  11  12
ENDBRANCH   8  11
ENDBRANCH   3   5
BRANCH   1  22
ATOM     21  C   UNL     1      -0.270   1.591   0.137  0.00  0.00    +0.034 C 
ATOM     22  C   UNL     1      -0.014   0.087   0.014  0.00  0.00    +0.140 C 
BRANCH  22  23
ATOM     23  N   UNL     1       0.809  -0.174  -1.175  0.00  0.00    -0.289 NA
ATOM     24  C   UNL     1       2.095   0.531  -1.090  0.00  0.00    +0.104 C 
ATOM     25  C   UNL     1       2.992   0.092  -2.252  0.00  0.00    +0.122 C 
ATOM     26  N   UNL     1       2.256   0.290  -3.510  0.00  0.00    -0.314 N 
ATOM     27  C   UNL     1       0.901  -0.272  -3.620  0.00  0.00    +0.122 C 
ATOM     28  C   UNL     1       0.087   0.181  -2.403  0.00  0.00    +0.104 C 
ATOM     29  C   UNL     1       2.826   0.989  -4.568  0.00  0.00    +0.099 A 
ATOM     30  C   UNL     1       4.155   1.393  -4.490  0.00  0.00    +0.042 A 
ATOM     31  C   UNL     1       4.710   2.088  -5.550  0.00  0.00    +0.005 A 
ATOM     32  C   UNL     1       3.914   2.356  -6.656  0.00  0.00    +0.018 A 
ATOM     33  C   UNL     1       2.603   1.925  -6.666  0.00  0.00    +0.084 A 
ATOM     34  N   UNL     1       2.101   1.259  -5.642  0.00  0.00    -0.350 N 
ATOM     35  H   UNL     1       1.178   0.964  -5.676  0.00  0.00    +0.166 HD
ENDBRANCH  22  23
ENDBRANCH   1  22
TORSDOF 5
