REMARK  Name = ZINC13253084
REMARK  9 active torsions:
REMARK  status: ('A' for Active; 'I' for Inactive)
REMARK    1  A    between atoms: C_1  and  C_2
REMARK    2  A    between atoms: C_2  and  O_3
REMARK    3  A    between atoms: O_3  and  C_4
REMARK    4  A    between atoms: C_7  and  N_10
REMARK    5  A    between atoms: N_10  and  S_11
REMARK    6  A    between atoms: S_11  and  C_14
REMARK    7  A    between atoms: C_17  and  N_20
REMARK    8  A    between atoms: C_21  and  C_23
REMARK    9  A    between atoms: C_29  and  C_31
REMARK                            x       y       z     vdW  Elec       q    Type
REMARK                         _______ _______ _______ _____ _____    ______ ____
ROOT
ATOM      1  C   UNL     1       3.627   3.304  -0.336  0.00  0.00    +0.109 A 
ATOM      2  C   UNL     1       3.820   1.953  -0.112  0.00  0.00    +0.030 A 
ATOM      3  C   UNL     1       2.739   1.093  -0.091  0.00  0.00    +0.025 A 
ATOM      4  C   UNL     1       1.457   1.587  -0.294  0.00  0.00    +0.034 A 
ATOM      5  C   UNL     1       1.267   2.944  -0.524  0.00  0.00    +0.025 A 
ATOM      6  C   UNL     1       2.352   3.799  -0.539  0.00  0.00    +0.030 A 
ENDROOT
BRANCH   4   7
ATOM      7  N   UNL     1       0.360   0.719  -0.274  0.00  0.00    -0.285 N 
ATOM      8  C   UNL     1       0.366  -0.355   0.540  0.00  0.00    +0.221 C 
ATOM      9  O   UNL     1       1.281  -0.521   1.319  0.00  0.00    -0.275 OA
ATOM     10  H   UNL     1      -0.407   0.893  -0.842  0.00  0.00    +0.155 HD
BRANCH   8  11
ATOM     11  C   UNL     1      -0.764  -1.351   0.482  0.00  0.00    +0.093 C 
ATOM     12  C   UNL     1      -0.847  -1.954  -0.922  0.00  0.00    +0.040 C 
ATOM     13  C   UNL     1      -1.783  -3.127  -0.926  0.00  0.00    -0.030 C 
ATOM     14  C   UNL     1      -2.170  -3.750   0.141  0.00  0.00    -0.030 C 
ATOM     15  C   UNL     1      -1.745  -3.379   1.532  0.00  0.00    +0.042 C 
ATOM     16  C   UNL     1      -0.505  -2.484   1.483  0.00  0.00    +0.118 C 
BRANCH  16  17
ATOM     17  C   UNL     1      -0.245  -1.904   2.849  0.00  0.00    +0.360 C 
ATOM     18  O   UNL     1      -0.264  -0.707   3.011  0.00  0.00    -0.246 OA
ATOM     19  O   UNL     1       0.008  -2.717   3.887  0.00  0.00    -0.246 OA
ENDBRANCH  16  17
ENDBRANCH   8  11
ENDBRANCH   4   7
BRANCH   1  20
ATOM     20  S   UNL     1       5.008   4.397  -0.361  0.00  0.00    +0.072 S 
ATOM     21  O   UNL     1       4.533   5.663   0.076  0.00  0.00    -0.150 OA
ATOM     22  O   UNL     1       6.075   3.719   0.287  0.00  0.00    -0.150 OA
BRANCH  20  23
ATOM     23  N   UNL     1       5.458   4.582  -1.944  0.00  0.00    -0.216 N 
ATOM     24  H   UNL     1       5.408   5.455  -2.364  0.00  0.00    +0.174 HD
BRANCH  23  28
ATOM     25  C   UNL     1       6.801   1.293  -4.125  0.00  0.00    +0.121 A 
ATOM     26  C   UNL     1       5.885   2.170  -4.687  0.00  0.00    +0.047 A 
ATOM     27  C   UNL     1       5.440   3.260  -3.965  0.00  0.00    +0.028 A 
ATOM     28  C   UNL     1       5.909   3.478  -2.677  0.00  0.00    +0.048 A 
ATOM     29  C   UNL     1       6.830   2.602  -2.117  0.00  0.00    +0.028 A 
ATOM     30  C   UNL     1       7.270   1.510  -2.838  0.00  0.00    +0.047 A 
BRANCH  25  31
ATOM     31  O   UNL     1       7.239   0.220  -4.837  0.00  0.00    -0.492 OA
BRANCH  31  33
ATOM     32  C   UNL     1       8.555  -1.783  -5.145  0.00  0.00    +0.048 C 
ATOM     33  C   UNL     1       8.182  -0.642  -4.197  0.00  0.00    +0.225 C 
ENDBRANCH  31  33
ENDBRANCH  25  31
ENDBRANCH  23  28
ENDBRANCH  20  23
ENDBRANCH   1  20
TORSDOF 8
