REMARK  Name = ZINC39361047
REMARK  8 active torsions:
REMARK  status: ('A' for Active; 'I' for Inactive)
REMARK    1  A    between atoms: C_1  and  C_2
REMARK    2  A    between atoms: C_6  and  C_15
REMARK    3  A    between atoms: C_13  and  C_14
REMARK    4  A    between atoms: C_15  and  C_16
REMARK    5  A    between atoms: C_16  and  N_17
REMARK    6  A    between atoms: C_18  and  C_20
REMARK    7  A    between atoms: C_21  and  C_32
REMARK    8  A    between atoms: C_24  and  C_25
REMARK                            x       y       z     vdW  Elec       q    Type
REMARK                         _______ _______ _______ _____ _____    ______ ____
ROOT
ATOM      1  N   UNL     1       2.596  -6.842  -3.525  0.00  0.00    -0.311 N 
ATOM      2  C   UNL     1       2.866  -8.162  -3.571  0.00  0.00    +0.250 C 
ATOM      3  O   UNL     1       2.075  -8.960  -3.108  0.00  0.00    -0.270 OA
ATOM      4  H   UNL     1       3.228  -6.205  -3.895  0.00  0.00    +0.149 HD
ENDROOT
BRANCH   2   5
ATOM      5  C   UNL     1       4.119  -8.636  -4.182  0.00  0.00    +0.106 A 
ATOM      6  C   UNL     1       5.309  -8.836  -3.547  0.00  0.00    +0.147 A 
ATOM      7  O   UNL     1       6.197  -9.269  -4.447  0.00  0.00    -0.359 OA
ATOM      8  N   UNL     1       5.577  -9.360  -5.714  0.00  0.00    -0.077 NA
ATOM      9  C   UNL     1       4.326  -8.993  -5.594  0.00  0.00    +0.127 A 
ATOM     10  C   UNL     1       5.578  -8.607  -2.082  0.00  0.00    +0.090 C 
BRANCH   9  11
ATOM     11  C   UNL     1       3.313  -8.943  -6.676  0.00  0.00    +0.023 A 
ATOM     12  C   UNL     1       2.014  -8.520  -6.399  0.00  0.00    +0.011 A 
ATOM     13  C   UNL     1       1.075  -8.475  -7.409  0.00  0.00    +0.001 A 
ATOM     14  C   UNL     1       1.420  -8.849  -8.695  0.00  0.00    +0.001 A 
ATOM     15  C   UNL     1       2.707  -9.271  -8.977  0.00  0.00    +0.020 A 
ATOM     16  C   UNL     1       3.657  -9.313  -7.975  0.00  0.00    +0.050 A 
ATOM     17 CL   UNL     1       5.274  -9.835  -8.332  0.00  0.00    -0.083 Cl
ENDBRANCH   9  11
ENDBRANCH   2   5
BRANCH   1  18
ATOM     18  C   UNL     1       1.350  -6.369  -2.917  0.00  0.00    +0.105 C 
BRANCH  18  19
ATOM     19  C   UNL     1       1.292  -4.843  -2.994  0.00  0.00    +0.035 C 
BRANCH  19  25
ATOM     20  C   UNL     1      -5.354  -3.690  -5.344  0.00  0.00    +0.044 C 
ATOM     21  C   UNL     1      -4.106  -3.305  -4.592  0.00  0.00    -0.047 A 
ATOM     22  C   UNL     1      -3.259  -4.277  -4.167  0.00  0.00    +0.013 A 
ATOM     23  C   UNL     1      -2.050  -3.890  -3.437  0.00  0.00    -0.007 A 
ATOM     24  C   UNL     1      -1.171  -4.832  -2.992  0.00  0.00    -0.005 C 
ATOM     25  C   UNL     1       0.055  -4.341  -2.247  0.00  0.00    +0.100 C 
ATOM     26  C   UNL     1       0.202  -2.848  -2.058  0.00  0.00    +0.224 C 
ATOM     27  O   UNL     1       1.166  -2.399  -1.467  0.00  0.00    -0.275 OA
ATOM     28  N   UNL     1      -0.722  -2.032  -2.537  0.00  0.00    -0.284 N 
ATOM     29  C   UNL     1      -1.801  -2.459  -3.193  0.00  0.00    +0.041 A 
ATOM     30  C   UNL     1      -2.743  -1.532  -3.676  0.00  0.00    +0.027 A 
ATOM     31  C   UNL     1      -3.843  -1.956  -4.351  0.00  0.00    -0.046 A 
ATOM     32  C   UNL     1      -4.822  -0.927  -4.856  0.00  0.00    +0.044 C 
ATOM     33  H   UNL     1      -0.609  -1.078  -2.405  0.00  0.00    +0.155 HD
ENDBRANCH  19  25
ENDBRANCH  18  19
ENDBRANCH   1  18
TORSDOF 5
