REMARK  Name = ZINC20568229
REMARK  12 active torsions:
REMARK  status: ('A' for Active; 'I' for Inactive)
REMARK    1  A    between atoms: C_1  and  C_2
REMARK    2  A    between atoms: C_2  and  C_30
REMARK    3  A    between atoms: C_4  and  N_10
REMARK    4  A    between atoms: C_6  and  C_8
REMARK    5  A    between atoms: C_6  and  C_9
REMARK    6  A    between atoms: N_10  and  C_11
REMARK    7  A    between atoms: N_10  and  C_18
REMARK    8  A    between atoms: C_11  and  C_12
REMARK    9  A    between atoms: C_18  and  N_20
REMARK   10  A    between atoms: N_20  and  C_21
REMARK   11  A    between atoms: C_26  and  O_27
REMARK   12  A    between atoms: O_27  and  C_28
REMARK                            x       y       z     vdW  Elec       q    Type
REMARK                         _______ _______ _______ _____ _____    ______ ____
ROOT
ATOM      1  N   UNL     1       1.143   2.015   0.610  0.00  0.00    -0.305 N 
ENDROOT
BRANCH   1   5
ATOM      2  C   UNL     1       5.100   0.084   0.762  0.00  0.00    -0.010 C 
ATOM      3  C   UNL     1       3.824  -0.658   0.346  0.00  0.00    -0.072 C 
ATOM      4  C   UNL     1       2.604   0.077   0.893  0.00  0.00    +0.009 C 
ATOM      5  C   UNL     1       2.333   1.341   0.077  0.00  0.00    +0.073 C 
ATOM      6  C   UNL     1       2.074   0.935  -1.374  0.00  0.00    +0.009 C 
ATOM      7  C   UNL     1       3.289   0.212  -1.949  0.00  0.00    -0.072 C 
ATOM      8  N   UNL     1       3.775  -0.848  -1.089  0.00  0.00    +0.386 N 
ATOM      9  C   UNL     1       4.395   1.230  -2.252  0.00  0.00    -0.010 C 
ATOM     10  C   UNL     1       2.864  -0.416  -3.295  0.00  0.00    -0.010 C 
ATOM     11  C   UNL     1       3.867  -2.050   1.014  0.00  0.00    -0.010 C 
ATOM     12  H   UNL     1       4.787  -1.050  -1.468  0.00  0.00    -0.084 HD
ATOM     13  H   UNL     1       3.118  -1.698  -1.324  0.00  0.00    -0.084 HD
ENDBRANCH   1   5
BRANCH   1  14
ATOM     14  C   UNL     1      -0.014   1.337   0.742  0.00  0.00    +0.138 C 
ATOM     15  S   UNL     1      -1.446   2.164   1.186  0.00  0.00    -0.018 S 
BRANCH  14  16
ATOM     16  N   UNL     1      -0.045   0.008   0.519  0.00  0.00    -0.294 N 
ATOM     17  H   UNL     1       0.831  -0.498   0.086  0.00  0.00    +0.154 HD
BRANCH  16  18
ATOM     18  C   UNL     1      -1.194  -0.730   0.838  0.00  0.00    +0.075 A 
ATOM     19  C   UNL     1      -2.441  -0.125   0.799  0.00  0.00    +0.028 A 
ATOM     20  C   UNL     1      -3.573  -0.854   1.113  0.00  0.00    +0.022 A 
ATOM     21  C   UNL     1      -3.464  -2.187   1.467  0.00  0.00    +0.045 A 
ATOM     22  C   UNL     1      -2.223  -2.797   1.508  0.00  0.00    +0.067 A 
ATOM     23  C   UNL     1      -1.085  -2.073   1.189  0.00  0.00    +0.143 A 
ATOM     24 CL   UNL     1      -4.889  -3.097   1.860  0.00  0.00    -0.083 Cl
BRANCH  23  25
ATOM     25  O   UNL     1       0.135  -2.672   1.223  0.00  0.00    -0.493 OA
ATOM     26  C   UNL     1       0.170  -4.053   1.591  0.00  0.00    +0.277 C 
ENDBRANCH  23  25
ENDBRANCH  16  18
ENDBRANCH  14  16
ENDBRANCH   1  14
BRANCH   1  27
ATOM     27  C   UNL     1       1.213   3.426   0.999  0.00  0.00    +0.143 C 
BRANCH  27  28
ATOM     28  C   UNL     1       1.611   3.528   2.449  0.00  0.00    -0.012 A 
ATOM     29  C   UNL     1       2.949   3.606   2.806  0.00  0.00    +0.008 A 
ATOM     30  C   UNL     1       3.268   3.699   4.152  0.00  0.00    +0.020 A 
ATOM     31  C   UNL     1       2.250   3.710   5.087  0.00  0.00    +0.111 A 
ATOM     32  N   UNL     1       0.988   3.634   4.710  0.00  0.00    -0.263 NA
ATOM     33  C   UNL     1       0.647   3.551   3.439  0.00  0.00    +0.115 A 
ENDBRANCH  27  28
ENDBRANCH   1  27
TORSDOF 7
