REMARK  Name = ZINC35233041
REMARK  4 active torsions:
REMARK  status: ('A' for Active; 'I' for Inactive)
REMARK    1  A    between atoms: C_1  and  C_2
REMARK    2  A    between atoms: C_3  and  N_9
REMARK    3  A    between atoms: N_9  and  S_10
REMARK    4  A    between atoms: S_10  and  C_13
REMARK                            x       y       z     vdW  Elec       q    Type
REMARK                         _______ _______ _______ _____ _____    ______ ____
ROOT
ATOM      1  N   UNL     1      -0.010   0.010  -2.411  0.00  0.00    -0.097 NA
ENDROOT
BRANCH   1   4
ATOM      2  C   UNL     1      -0.018   1.503   0.010  0.00  0.00    +0.047 C 
ATOM      3  C   UNL     1       0.002  -0.004   0.002  0.00  0.00    -0.008 A 
ATOM      4  C   UNL     1       0.006  -0.693  -1.204  0.00  0.00    +0.079 A 
ATOM      5  C   UNL     1       0.025  -2.082  -1.208  0.00  0.00    +0.027 A 
ATOM      6  C   UNL     1       0.040  -2.774  -0.012  0.00  0.00    +0.003 A 
ATOM      7  C   UNL     1       0.035  -2.087   1.187  0.00  0.00    +0.020 A 
ATOM      8  C   UNL     1       0.023  -0.702   1.194  0.00  0.00    +0.046 A 
ATOM      9 CL   UNL     1       0.026   0.157   2.703  0.00  0.00    -0.083 Cl
ENDBRANCH   1   4
BRANCH   1  10
ATOM     10  S   UNL     1      -0.005  -0.813  -3.848  0.00  0.00    +0.099 S 
ATOM     11  O   UNL     1       1.249  -1.476  -3.933  0.00  0.00    -0.148 OA
ATOM     12  O   UNL     1      -1.242  -1.510  -3.921  0.00  0.00    -0.148 OA
BRANCH  10  13
ATOM     13  C   UNL     1      -0.028   0.388  -5.137  0.00  0.00    +0.168 A 
ATOM     14  C   UNL     1       1.005   0.990  -5.779  0.00  0.00    +0.149 A 
ATOM     15  N   UNL     1       0.698   1.863  -6.718  0.00  0.00    -0.234 NA
ATOM     16  C   UNL     1      -0.550   2.136  -7.014  0.00  0.00    +0.169 A 
ATOM     17  S   UNL     1      -1.417   1.146  -5.964  0.00  0.00    -0.036 S 
ATOM     18 CL   UNL     1      -1.160   3.243  -8.204  0.00  0.00    -0.054 Cl
ENDBRANCH  10  13
ENDBRANCH   1  10
TORSDOF 3
