REMARK  Name = ZINC13284065
REMARK  11 active torsions:
REMARK  status: ('A' for Active; 'I' for Inactive)
REMARK    1  A    between atoms: C_1  and  N_2
REMARK    2  A    between atoms: N_2  and  C_3
REMARK    3  A    between atoms: N_2  and  C_16
REMARK    4  A    between atoms: C_3  and  C_4
REMARK    5  A    between atoms: C_10  and  N_15
REMARK    6  A    between atoms: C_19  and  C_22
REMARK    7  A    between atoms: N_24  and  CA_25
REMARK    8  A    between atoms: CA_25  and  CB_27
REMARK    9  A    between atoms: CA_25  and  C_32
REMARK   10  A    between atoms: CB_27  and  CG_28
REMARK   11  A    between atoms: CG_28  and  CD_29
REMARK                            x       y       z     vdW  Elec       q    Type
REMARK                         _______ _______ _______ _____ _____    ______ ____
ROOT
ATOM      1  C   UNK A   0      -0.018   1.461   0.010  0.00  0.00    +0.129 C 
ATOM      2  N   UNK A   0       0.002  -0.004   0.002  0.00  0.00    -0.329 N 
ENDROOT
BRANCH   2   3
ATOM      3  C   UNK A   0       0.000  -0.693  -1.206  0.00  0.00    +0.030 A 
ATOM      4  C   UNK A   0       0.013  -2.085  -1.212  0.00  0.00    +0.024 A 
ATOM      5  C   UNK A   0       0.011  -2.769  -2.406  0.00  0.00    +0.015 A 
ATOM      6  C   UNK A   0      -0.004  -2.065  -3.613  0.00  0.00    +0.037 A 
ATOM      7  C   UNK A   0      -0.017  -0.667  -3.604  0.00  0.00    +0.015 A 
ATOM      8  C   UNK A   0      -0.021   0.011  -2.407  0.00  0.00    +0.024 A 
BRANCH   6   9
ATOM      9  C   UNK A   0      -0.006  -2.796  -4.895  0.00  0.00    +0.245 C 
ATOM     10  O   UNK A   0       0.006  -4.012  -4.902  0.00  0.00    -0.270 OA
ATOM     11  N   GLU A   1      -0.021  -2.116  -6.058  0.00  0.00    -0.298 N 
ATOM     12  H   GLU A   1      -0.030  -1.146  -6.053  0.00  0.00    +0.150 HD
BRANCH  11  13
ATOM     13  CA  GLU A   1      -0.022  -2.841  -7.331  0.00  0.00    +0.187 C 
BRANCH  13  14
ATOM     14  C   GLU A   1      -1.437  -3.212  -7.696  0.00  0.00    +0.376 C 
ATOM     15  O   GLU A   1      -2.371  -2.747  -7.065  0.00  0.00    -0.244 OA
ATOM     16  OXT GLU A   1      -1.647  -3.976  -8.623  0.00  0.00    -0.244 OA
ENDBRANCH  13  14
BRANCH  13  17
ATOM     17  CB  GLU A   1       0.571  -1.952  -8.426  0.00  0.00    +0.045 C 
BRANCH  17  18
ATOM     18  CG  GLU A   1       2.045  -1.679  -8.118  0.00  0.00    +0.127 C 
BRANCH  18  19
ATOM     19  CD  GLU A   1       2.629  -0.803  -9.196  0.00  0.00    +0.356 C 
ATOM     20  OE1 GLU A   1       1.932  -0.432 -10.125  0.00  0.00    -0.246 OA
ATOM     21  OE2 GLU A   1       3.799  -0.466  -9.140  0.00  0.00    -0.246 OA
ENDBRANCH  18  19
ENDBRANCH  17  18
ENDBRANCH  13  17
ENDBRANCH  11  13
ENDBRANCH   6   9
ENDBRANCH   2   3
BRANCH   2  22
ATOM     22  C   UNK A   0       0.024  -0.743   1.267  0.00  0.00    +0.140 C 
BRANCH  22  23
ATOM     23  C   UNK A   0      -1.389  -1.016   1.714  0.00  0.00    -0.029 A 
ATOM     24  C   UNK A   0      -2.043  -0.092   2.524  0.00  0.00    +0.007 A 
ATOM     25  C   UNK A   0      -3.321  -0.309   2.946  0.00  0.00    +0.027 A 
ATOM     26  C   UNK A   0      -3.989  -1.480   2.559  0.00  0.00    +0.052 A 
ATOM     27  C   UNK A   0      -3.321  -2.418   1.734  0.00  0.00    +0.038 A 
ATOM     28  C   UNK A   0      -2.011  -2.162   1.314  0.00  0.00    +0.018 A 
ATOM     29  C   UNK A   0      -4.016  -3.593   1.355  0.00  0.00    +0.129 A 
ATOM     30  N   UNK A   0      -5.257  -3.758   1.791  0.00  0.00    -0.201 NA
ATOM     31  C   UNK A   0      -5.846  -2.851   2.564  0.00  0.00    +0.192 A 
ATOM     32  N   UNK A   0      -5.246  -1.740   2.947  0.00  0.00    -0.327 N 
ATOM     33  N   UNK A   0      -7.143  -3.081   2.986  0.00  0.00    -0.329 N 
ATOM     34  H   UNK A   0      -7.604  -3.891   2.716  0.00  0.00    +0.145 HD
ATOM     35  H   UNK A   0      -7.593  -2.433   3.550  0.00  0.00    +0.145 HD
ATOM     36  H   UNK A   0      -5.717  -1.107   3.512  0.00  0.00    +0.169 HD
BRANCH  29  37
ATOM     37  N   UNK A   0      -3.417  -4.541   0.554  0.00  0.00    -0.343 N 
ATOM     38  H   UNK A   0      -2.509  -4.408   0.241  0.00  0.00    +0.144 HD
ATOM     39  H   UNK A   0      -3.904  -5.341   0.302  0.00  0.00    +0.144 HD
ENDBRANCH  29  37
ENDBRANCH  22  23
ENDBRANCH   2  22
TORSDOF 10
