REMARK  Name = ZINC14956696
REMARK  3 active torsions:
REMARK  status: ('A' for Active; 'I' for Inactive)
REMARK    1  A    between atoms: C_12  and  C_14
REMARK    2  A    between atoms: C_23  and  C_25
REMARK    3  A    between atoms: C_26  and  C_27
REMARK                            x       y       z     vdW  Elec       q    Type
REMARK                         _______ _______ _______ _____ _____    ______ ____
ROOT
ATOM      1  C   UNL     1      -6.082   5.952  -2.572  0.00  0.00    +0.082 C 
ATOM      2  C   UNL     1      -5.754   6.261  -4.034  0.00  0.00    +0.021 C 
ATOM      3  C   UNL     1      -6.896   6.998  -3.333  0.00  0.00    -0.015 C 
ATOM      4  C   UNL     1      -6.677   8.471  -2.974  0.00  0.00    +0.026 C 
ATOM      5  C   UNL     1      -7.144   9.340  -4.147  0.00  0.00    +0.108 C 
ATOM      6  N   UNL     1      -8.506   8.936  -4.522  0.00  0.00    -0.298 N 
ATOM      7  C   UNL     1      -8.763   7.538  -4.891  0.00  0.00    +0.108 C 
ATOM      8  C   UNL     1      -8.329   6.633  -3.733  0.00  0.00    +0.026 C 
ATOM      9  C   UNL     1      -9.507   9.838  -4.527  0.00  0.00    +0.239 C 
ATOM     10  O   UNL     1     -10.649   9.478  -4.743  0.00  0.00    -0.271 OA
ENDROOT
BRANCH   1  22
ATOM     11  C   UNL     1      -6.205   2.654   4.933  0.00  0.00    +0.005 A 
ATOM     12  C   UNL     1      -4.899   2.363   5.306  0.00  0.00    +0.018 A 
ATOM     13  C   UNL     1      -3.855   2.998   4.664  0.00  0.00    +0.084 A 
ATOM     14  C   UNL     1      -5.313   4.179   3.321  0.00  0.00    +0.099 A 
ATOM     15  C   UNL     1      -6.413   3.573   3.921  0.00  0.00    +0.042 A 
ATOM     16  N   UNL     1      -5.508   5.108   2.305  0.00  0.00    -0.314 N 
ATOM     17  C   UNL     1      -6.313   4.538   1.217  0.00  0.00    +0.125 C 
ATOM     18  C   UNL     1      -6.657   5.640   0.209  0.00  0.00    +0.126 C 
ATOM     19  N   UNL     1      -5.408   6.291  -0.216  0.00  0.00    -0.298 N 
ATOM     20  C   UNL     1      -4.483   6.767   0.824  0.00  0.00    +0.126 C 
ATOM     21  C   UNL     1      -4.225   5.621   1.807  0.00  0.00    +0.125 C 
ATOM     22  C   UNL     1      -5.120   6.447  -1.523  0.00  0.00    +0.219 C 
ATOM     23  O   UNL     1      -4.085   6.987  -1.855  0.00  0.00    -0.275 OA
ATOM     24  N   UNL     1      -4.022   3.910   3.669  0.00  0.00    -0.350 N 
ATOM     25  H   UNL     1      -3.226   4.367   3.209  0.00  0.00    +0.166 HD
ENDBRANCH   1  22
BRANCH   9  26
ATOM     26  C   UNL     1      -9.221  11.251  -4.273  0.00  0.00    +0.068 C 
ATOM     27  C   UNL     1     -10.233  12.137  -4.174  0.00  0.00    +0.013 C 
BRANCH  27  28
ATOM     28  C   UNL     1      -9.945  13.557  -3.918  0.00  0.00    -0.025 A 
ATOM     29  C   UNL     1      -8.623  13.991  -3.772  0.00  0.00    +0.009 A 
ATOM     30  C   UNL     1      -8.361  15.324  -3.537  0.00  0.00    +0.020 A 
ATOM     31  C   UNL     1      -9.403  16.231  -3.436  0.00  0.00    +0.041 A 
ATOM     32  C   UNL     1     -10.715  15.808  -3.575  0.00  0.00    +0.020 A 
ATOM     33  C   UNL     1     -10.992  14.479  -3.815  0.00  0.00    +0.009 A 
ATOM     34 CL   UNL     1      -9.063  17.907  -3.135  0.00  0.00    -0.084 Cl
ENDBRANCH  27  28
ENDBRANCH   9  26
TORSDOF 3
