REMARK  Name = ZINC34759160
REMARK  9 active torsions:
REMARK  status: ('A' for Active; 'I' for Inactive)
REMARK    1  A    between atoms: C_1  and  C_2
REMARK    2  A    between atoms: C_3  and  C_36
REMARK    3  A    between atoms: C_7  and  N_22
REMARK    4  A    between atoms: C_9  and  S_11
REMARK    5  A    between atoms: S_11  and  C_12
REMARK    6  A    between atoms: C_12  and  C_13
REMARK    7  A    between atoms: C_16  and  N_19
REMARK    8  A    between atoms: N_25  and  C_28
REMARK    9  A    between atoms: C_28  and  C_29
REMARK                            x       y       z     vdW  Elec       q    Type
REMARK                         _______ _______ _______ _____ _____    ______ ____
ROOT
ATOM      1  C   UNL     1       0.022   1.503   0.007  0.00  0.00    +0.045 C 
ATOM      2  C   UNL     1       0.039  -0.004  -0.001  0.00  0.00    -0.028 A 
ATOM      3  C   UNL     1      -0.044  -0.676  -1.158  0.00  0.00    -0.008 A 
ATOM      4  S   UNL     1       0.016  -2.385  -0.651  0.00  0.00    -0.073 S 
ATOM      5  C   UNL     1       0.150  -2.149   1.101  0.00  0.00    +0.115 A 
ATOM      6  C   UNL     1       0.151  -0.744   1.244  0.00  0.00    +0.051 A 
ATOM      7  C   UNL     1       0.255  -0.264   2.579  0.00  0.00    +0.134 A 
ATOM      8  N   UNL     1       0.347  -1.131   3.574  0.00  0.00    -0.206 NA
ATOM      9  C   UNL     1       0.346  -2.443   3.368  0.00  0.00    +0.191 A 
ATOM     10  N   UNL     1       0.241  -2.948   2.146  0.00  0.00    -0.215 NA
ATOM     11  C   UNL     1      -0.160  -0.121  -2.554  0.00  0.00    +0.052 C 
ENDROOT
BRANCH   7  12
ATOM     12  N   UNL     1       0.261   1.095   2.835  0.00  0.00    -0.318 N 
ATOM     13  C   UNL     1      -0.976   1.799   3.209  0.00  0.00    +0.088 C 
ATOM     14  C   UNL     1      -0.702   2.623   4.472  0.00  0.00    -0.059 C 
ATOM     15  N   UNL     1       0.451   3.502   4.242  0.00  0.00    +0.387 N 
ATOM     16  C   UNL     1       1.659   2.697   4.026  0.00  0.00    -0.059 C 
ATOM     17  C   UNL     1       1.504   1.876   2.747  0.00  0.00    +0.088 C 
ATOM     18  H   UNL     1       0.279   4.074   3.428  0.00  0.00    -0.081 HD
BRANCH  15  19
ATOM     19  C   UNL     1       0.644   4.369   5.412  0.00  0.00    +0.019 C 
BRANCH  19  20
ATOM     20  C   UNL     1       1.748   5.355   5.130  0.00  0.00    +0.199 C 
ATOM     21  O   UNL     1       2.317   5.338   4.059  0.00  0.00    -0.278 OA
ATOM     22  N   UNL     1       2.103   6.257   6.067  0.00  0.00    -0.303 N 
ATOM     23  C   UNL     1       1.503   6.384   7.403  0.00  0.00    +0.108 C 
ATOM     24  C   UNL     1       2.206   7.562   8.110  0.00  0.00    +0.020 C 
ATOM     25  C   UNL     1       2.770   8.392   6.926  0.00  0.00    +0.020 C 
ATOM     26  C   UNL     1       3.160   7.274   5.924  0.00  0.00    +0.108 C 
ENDBRANCH  19  20
ENDBRANCH  15  19
ENDBRANCH   7  12
BRANCH   9  27
ATOM     27  S   UNL     1       0.472  -3.534   4.746  0.00  0.00    -0.081 S 
BRANCH  27  28
ATOM     28  C   UNL     1       0.430  -5.188   4.002  0.00  0.00    +0.112 C 
BRANCH  28  29
ATOM     29  C   UNL     1       0.532  -6.229   5.086  0.00  0.00    -0.037 A 
ATOM     30  C   UNL     1       1.772  -6.689   5.489  0.00  0.00    +0.007 A 
ATOM     31  C   UNL     1       1.865  -7.644   6.484  0.00  0.00    +0.033 A 
ATOM     32  C   UNL     1       0.719  -8.140   7.076  0.00  0.00    +0.126 A 
ATOM     33  C   UNL     1      -0.521  -7.680   6.674  0.00  0.00    +0.033 A 
ATOM     34  C   UNL     1      -0.614  -6.721   5.682  0.00  0.00    +0.007 A 
BRANCH  32  35
ATOM     35  N   UNL     1       0.819  -9.164   8.140  0.00  0.00    +0.056 N 
ATOM     36  O   UNL     1       1.903  -9.566   8.492  0.00  0.00    -0.126 OA
ATOM     37  O   UNL     1      -0.184  -9.597   8.658  0.00  0.00    -0.126 OA
ENDBRANCH  32  35
ENDBRANCH  28  29
ENDBRANCH  27  28
ENDBRANCH   9  27
TORSDOF 7
