REMARK  Name = ZINC16039109
REMARK  3 active torsions:
REMARK  status: ('A' for Active; 'I' for Inactive)
REMARK    1  A    between atoms: C_6  and  N_7
REMARK    2  A    between atoms: C_8  and  C_10
REMARK    3  A    between atoms: N_25  and  C_28
REMARK                            x       y       z     vdW  Elec       q    Type
REMARK                         _______ _______ _______ _____ _____    ______ ____
ROOT
ATOM      1  C   UNL     1      -2.481  -2.807  -0.193  0.00  0.00    +0.192 C 
ATOM      2  C   UNL     1      -3.097  -2.991   1.201  0.00  0.00    +0.121 C 
ATOM      3  C   UNL     1      -2.691  -4.439   1.615  0.00  0.00    +0.116 C 
ATOM      4  C   UNL     1      -2.482  -5.153   0.274  0.00  0.00    +0.129 C 
ATOM      5  N   UNL     1      -2.233  -4.131  -0.748  0.00  0.00    -0.235 N 
ATOM      6  N   UNL     1      -1.739  -4.470  -2.021  0.00  0.00    -0.191 NA
ATOM      7  C   UNL     1      -0.935  -5.505  -2.057  0.00  0.00    +0.130 C 
ATOM      8  C   UNL     1      -0.584  -6.209  -0.819  0.00  0.00    +0.019 C 
ATOM      9  C   UNL     1      -1.286  -6.072   0.320  0.00  0.00    -0.001 C 
ATOM     10  C   UNL     1      -3.978  -4.939   2.254  0.00  0.00    +0.232 C 
ATOM     11  O   UNL     1      -4.072  -5.866   3.029  0.00  0.00    -0.274 OA
ATOM     12  N   UNL     1      -4.991  -4.177   1.813  0.00  0.00    -0.210 N 
ATOM     13  C   UNL     1      -4.605  -3.086   1.105  0.00  0.00    +0.232 C 
ATOM     14  O   UNL     1      -5.328  -2.326   0.498  0.00  0.00    -0.274 OA
ENDROOT
BRANCH  12  15
ATOM     15  C   UNL     1      -6.337  -4.476   2.069  0.00  0.00    +0.044 A 
ATOM     16  C   UNL     1      -7.341  -3.720   1.480  0.00  0.00    +0.025 A 
ATOM     17  C   UNL     1      -8.666  -4.016   1.735  0.00  0.00    +0.017 A 
ATOM     18  C   UNL     1      -8.992  -5.065   2.576  0.00  0.00    +0.018 A 
ATOM     19  C   UNL     1      -7.993  -5.820   3.164  0.00  0.00    +0.017 A 
ATOM     20  C   UNL     1      -6.667  -5.531   2.908  0.00  0.00    +0.025 A 
ATOM     21 BR   UNL     1     -10.807  -5.467   2.922  0.00  0.00    -0.050 Br
ENDBRANCH  12  15
BRANCH   1  23
ATOM     22  N   UNL     1      -1.196  -0.707   0.045  0.00  0.00    -0.284 N 
ATOM     23  C   UNL     1      -1.184  -2.049  -0.082  0.00  0.00    +0.240 C 
ATOM     24  O   UNL     1      -0.128  -2.646  -0.107  0.00  0.00    -0.273 OA
ATOM     25  H   UNL     1      -2.039  -0.237   0.143  0.00  0.00    +0.155 HD
BRANCH  22  31
ATOM     26  C   UNL     1       1.074  -0.435  -0.733  0.00  0.00    +0.025 A 
ATOM     27  C   UNL     1       2.260   0.272  -0.740  0.00  0.00    +0.022 A 
ATOM     28  C   UNL     1       2.386   1.422   0.021  0.00  0.00    +0.041 A 
ATOM     29  C   UNL     1       1.324   1.865   0.790  0.00  0.00    +0.022 A 
ATOM     30  C   UNL     1       0.136   1.161   0.800  0.00  0.00    +0.025 A 
ATOM     31  C   UNL     1       0.007   0.008   0.037  0.00  0.00    +0.034 A 
ATOM     32 CL   UNL     1       3.878   2.308   0.011  0.00  0.00    -0.084 Cl
ENDBRANCH  22  31
ENDBRANCH   1  23
TORSDOF 3
