REMARK  Name = ZINC40010753
REMARK  7 active torsions:
REMARK  status: ('A' for Active; 'I' for Inactive)
REMARK    1  A    between atoms: C_1  and  C_2
REMARK    2  A    between atoms: C_9  and  C_14
REMARK    3  A    between atoms: C_18  and  O_35
REMARK    4  A    between atoms: C_19  and  O_33
REMARK    5  A    between atoms: C_25  and  C_27
REMARK    6  A    between atoms: O_33  and  C_34
REMARK    7  A    between atoms: O_35  and  C_36
REMARK                            x       y       z     vdW  Elec       q    Type
REMARK                         _______ _______ _______ _____ _____    ______ ____
ROOT
ATOM      1  C   UNL     1      -0.502  -4.828   3.038  0.00  0.00    +0.122 C 
ATOM      2  C   UNL     1      -1.199  -4.356   1.786  0.00  0.00    -0.019 A 
ATOM      3  C   UNL     1      -1.565  -3.019   1.716  0.00  0.00    +0.055 A 
ATOM      4  C   UNL     1      -2.198  -2.521   0.592  0.00  0.00    +0.162 A 
ATOM      5  C   UNL     1      -2.467  -3.371  -0.478  0.00  0.00    +0.162 A 
ATOM      6  C   UNL     1      -2.104  -4.702  -0.402  0.00  0.00    +0.053 A 
ATOM      7  C   UNL     1      -1.473  -5.200   0.733  0.00  0.00    -0.037 A 
ATOM      8  C   UNL     1      -1.133  -6.668   0.752  0.00  0.00    +0.054 C 
ATOM      9  C   UNL     1      -0.056  -6.963   1.794  0.00  0.00    +0.113 C 
ATOM     10  N   UNL     1      -0.442  -6.294   3.046  0.00  0.00    -0.293 N 
ATOM     11  C   UNL     1      -0.729  -7.000   4.158  0.00  0.00    +0.219 C 
ATOM     12  O   UNL     1      -1.135  -6.433   5.149  0.00  0.00    -0.275 OA
ENDROOT
BRANCH   1  21
ATOM     13  C   UNL     1       5.284  -6.659  -0.727  0.00  0.00    +0.044 C 
ATOM     14  C   UNL     1       4.561  -6.321   0.552  0.00  0.00    -0.050 A 
ATOM     15  C   UNL     1       5.084  -6.761   1.768  0.00  0.00    +0.005 A 
ATOM     16  C   UNL     1       4.489  -6.495   2.961  0.00  0.00    +0.024 A 
ATOM     17  C   UNL     1       3.297  -5.750   3.013  0.00  0.00    +0.040 A 
ATOM     18  N   UNL     1       2.722  -5.495   4.189  0.00  0.00    -0.284 N 
ATOM     19  C   UNL     1       1.602  -4.802   4.309  0.00  0.00    +0.226 C 
ATOM     20  O   UNL     1       1.124  -4.601   5.410  0.00  0.00    -0.275 OA
ATOM     21  C   UNL     1       0.918  -4.260   3.075  0.00  0.00    +0.123 C 
ATOM     22  C   UNL     1       1.568  -4.548   1.735  0.00  0.00    -0.003 C 
ATOM     23  C   UNL     1       2.722  -5.273   1.743  0.00  0.00    -0.007 A 
ATOM     24  C   UNL     1       3.418  -5.591   0.496  0.00  0.00    +0.012 A 
ATOM     25  H   UNL     1       3.145  -5.833   4.993  0.00  0.00    +0.155 HD
ENDBRANCH   1  21
BRANCH  11  26
ATOM     26  C   UNL     1      -0.544  -8.496   4.168  0.00  0.00    +0.075 C 
ATOM     27  C   UNL     1      -1.808  -9.170   3.630  0.00  0.00    +0.013 C 
ATOM     28  C   UNL     1      -1.621 -10.688   3.641  0.00  0.00    +0.001 C 
ATOM     29  C   UNL     1      -1.361 -11.160   5.073  0.00  0.00    +0.000 C 
ATOM     30  C   UNL     1      -0.098 -10.486   5.611  0.00  0.00    +0.001 C 
ATOM     31  C   UNL     1      -0.285  -8.968   5.600  0.00  0.00    +0.013 C 
ENDBRANCH  11  26
BRANCH   5  32
ATOM     32  O   UNL     1      -3.084  -2.893  -1.591  0.00  0.00    -0.491 OA
ATOM     33  C   UNL     1      -3.327  -3.825  -2.648  0.00  0.00    +0.277 C 
ENDBRANCH   5  32
BRANCH   4  34
ATOM     34  O   UNL     1      -2.555  -1.210   0.531  0.00  0.00    -0.491 OA
ATOM     35  C   UNL     1      -2.247  -0.401   1.667  0.00  0.00    +0.277 C 
ENDBRANCH   4  34
TORSDOF 4
