REMARK  Name = ZINC20582608
REMARK  7 active torsions:
REMARK  status: ('A' for Active; 'I' for Inactive)
REMARK    1  A    between atoms: C_1  and  C_2
REMARK    2  A    between atoms: C_7  and  N_8
REMARK    3  A    between atoms: C_9  and  C_11
REMARK    4  A    between atoms: C_11  and  S_12
REMARK    5  A    between atoms: S_12  and  C_13
REMARK    6  A    between atoms: N_25  and  C_29
REMARK    7  A    between atoms: C_29  and  C_30
REMARK                            x       y       z     vdW  Elec       q    Type
REMARK                         _______ _______ _______ _____ _____    ______ ____
ROOT
ATOM      1  C   UNL     1      -2.511   2.670  -3.428  0.00  0.00    +0.189 A 
ATOM      2  N   UNL     1      -1.204   2.535  -3.606  0.00  0.00    -0.228 NA
ATOM      3  C   UNL     1      -0.419   2.143  -2.610  0.00  0.00    +0.144 A 
ATOM      4  C   UNL     1      -0.991   1.878  -1.388  0.00  0.00    +0.153 A 
ATOM      5  C   UNL     1      -2.369   2.024  -1.220  0.00  0.00    +0.104 A 
ATOM      6  N   UNL     1      -3.095   2.422  -2.264  0.00  0.00    -0.220 NA
ATOM      7  C   UNL     1      -3.015   1.743   0.081  0.00  0.00    +0.025 A 
ATOM      8  C   UNL     1      -4.404   1.563   0.103  0.00  0.00    +0.012 A 
ATOM      9  C   UNL     1      -5.053   1.302   1.289  0.00  0.00    +0.001 A 
ATOM     10  C   UNL     1      -4.338   1.214   2.472  0.00  0.00    +0.002 A 
ATOM     11  C   UNL     1      -2.969   1.387   2.467  0.00  0.00    +0.025 A 
ATOM     12  C   UNL     1      -2.299   1.652   1.276  0.00  0.00    +0.061 A 
ATOM     13  N   UNL     1      -0.910   1.817   1.323  0.00  0.00    -0.198 N 
ATOM     14  S   UNL     1      -0.024   1.353  -0.009  0.00  0.00    +0.079 S 
ATOM     15  O   UNL     1      -0.012  -0.068  -0.025  0.00  0.00    -0.150 OA
ATOM     16  O   UNL     1       1.164   2.133  -0.011  0.00  0.00    -0.150 OA
ENDROOT
BRANCH   1  17
ATOM     17  S   UNL     1      -3.505   3.194  -4.785  0.00  0.00    -0.077 S 
BRANCH  17  18
ATOM     18  C   UNL     1      -2.231   3.373  -6.057  0.00  0.00    +0.173 C 
BRANCH  18  20
ATOM     19  N   UNL     1      -2.107   4.029  -8.439  0.00  0.00    -0.285 N 
ATOM     20  C   UNL     1      -2.868   3.828  -7.345  0.00  0.00    +0.227 C 
ATOM     21  O   UNL     1      -4.066   4.012  -7.398  0.00  0.00    -0.275 OA
ATOM     22  H   UNL     1      -1.012   3.951  -8.369  0.00  0.00    +0.155 HD
BRANCH  19  29
ATOM     23  C   UNL     1      -0.573   5.445 -10.373  0.00  0.00    +0.045 C 
ATOM     24  C   UNL     1      -1.997   5.029 -10.635  0.00  0.00    -0.029 A 
ATOM     25  C   UNL     1      -2.595   5.332 -11.843  0.00  0.00    +0.005 A 
ATOM     26  C   UNL     1      -3.901   4.949 -12.085  0.00  0.00    +0.000 A 
ATOM     27  C   UNL     1      -4.613   4.262 -11.119  0.00  0.00    +0.002 A 
ATOM     28  C   UNL     1      -4.020   3.951  -9.912  0.00  0.00    +0.023 A 
ATOM     29  C   UNL     1      -2.709   4.339  -9.664  0.00  0.00    +0.036 A 
ENDBRANCH  19  29
ENDBRANCH  18  20
ENDBRANCH  17  18
ENDBRANCH   1  17
BRANCH  13  30
ATOM     30  C   UNL     1      -0.254   2.383   2.505  0.00  0.00    +0.166 C 
BRANCH  30  31
ATOM     31  C   UNL     1      -0.278   3.887   2.421  0.00  0.00    -0.026 A 
ATOM     32  C   UNL     1       0.765   4.562   1.813  0.00  0.00    +0.005 A 
ATOM     33  C   UNL     1       0.743   5.941   1.731  0.00  0.00    +0.003 A 
ATOM     34  C   UNL     1      -0.317   6.649   2.266  0.00  0.00    +0.038 A 
ATOM     35  C   UNL     1      -1.359   5.975   2.881  0.00  0.00    +0.124 A 
ATOM     36  C   UNL     1      -1.338   4.593   2.957  0.00  0.00    +0.043 A 
ATOM     37  F   UNL     1      -2.395   6.666   3.405  0.00  0.00    -0.205 F 
ENDBRANCH  30  31
ENDBRANCH  13  30
TORSDOF 6
