REMARK  Name = ZINC08747713
REMARK  6 active torsions:
REMARK  status: ('A' for Active; 'I' for Inactive)
REMARK    1  A    between atoms: C_1  and  C_2
REMARK    2  A    between atoms: C_2  and  C_4
REMARK    3  A    between atoms: C_2  and  N_46
REMARK    4  A    between atoms: C_11  and  C_12
REMARK    5  A    between atoms: C_11  and  N_46
REMARK    6  A    between atoms: N_17  and  C_18
REMARK                            x       y       z     vdW  Elec       q    Type
REMARK                         _______ _______ _______ _____ _____    ______ ____
ROOT
ATOM      1  C   UNL     1       4.832  -4.006   0.226  0.00  0.00    +0.203 C 
ATOM      2  O   UNL     1       3.790  -4.627   0.235  0.00  0.00    -0.277 OA
ATOM      3  N   UNL     1       4.814  -2.662   0.133  0.00  0.00    -0.241 N 
ATOM      4  C   UNL     1       3.639  -2.008   0.049  0.00  0.00    +0.310 C 
ATOM      5  O   UNL     1       2.595  -2.630   0.058  0.00  0.00    -0.252 OA
ATOM      6  N   UNL     1       3.622  -0.663  -0.045  0.00  0.00    -0.269 N 
ATOM      7  H   UNL     1       5.647  -2.166   0.125  0.00  0.00    +0.159 HD
ATOM      8  H   UNL     1       4.454  -0.172  -0.130  0.00  0.00    +0.156 HD
ENDROOT
BRANCH   6   9
ATOM      9  C   UNL     1       2.401   0.025  -0.019  0.00  0.00    +0.038 A 
ATOM     10  C   UNL     1       1.346  -0.460   0.741  0.00  0.00    +0.027 A 
ATOM     11  C   UNL     1       0.142   0.218   0.766  0.00  0.00    +0.051 A 
ATOM     12  C   UNL     1      -0.016   1.384   0.032  0.00  0.00    +0.162 A 
ATOM     13  C   UNL     1       1.040   1.873  -0.728  0.00  0.00    +0.164 A 
ATOM     14  C   UNL     1       2.247   1.192  -0.754  0.00  0.00    +0.072 A 
ATOM     15  O   UNL     1       0.906   3.021  -1.448  0.00  0.00    -0.485 OA
ATOM     16  C   UNL     1      -0.429   3.474  -1.696  0.00  0.00    +0.270 C 
ATOM     17  C   UNL     1      -1.215   3.396  -0.380  0.00  0.00    +0.270 C 
ATOM     18  O   UNL     1      -1.212   2.034   0.062  0.00  0.00    -0.485 OA
ENDBRANCH   6   9
BRANCH   1  19
ATOM     19  C   UNL     1       6.146  -4.738   0.320  0.00  0.00    +0.016 C 
BRANCH  19  20
ATOM     20  N   UNL     1       5.886  -6.188   0.412  0.00  0.00    +0.389 N 
ATOM     21  H   UNL     1       5.321  -6.378   1.247  0.00  0.00    -0.084 HD
ATOM     22  H   UNL     1       5.375  -6.494  -0.424  0.00  0.00    -0.084 HD
BRANCH  20  24
ATOM     23  C   UNL     1       7.613  -6.983   1.964  0.00  0.00    -0.009 C 
ATOM     24  C   UNL     1       7.157  -6.930   0.504  0.00  0.00    -0.043 C 
BRANCH  24  25
ATOM     25  C   UNL     1       6.949  -8.332  -0.007  0.00  0.00    -0.062 A 
ATOM     26  C   UNL     1       5.787  -9.015   0.300  0.00  0.00    +0.003 A 
ATOM     27  C   UNL     1       5.594 -10.299  -0.173  0.00  0.00    +0.020 A 
ATOM     28  C   UNL     1       6.568 -10.905  -0.947  0.00  0.00    +0.041 A 
ATOM     29  C   UNL     1       7.733 -10.223  -1.250  0.00  0.00    +0.020 A 
ATOM     30  C   UNL     1       7.923  -8.937  -0.780  0.00  0.00    +0.003 A 
ATOM     31 CL   UNL     1       6.329 -12.520  -1.536  0.00  0.00    -0.084 Cl
ENDBRANCH  24  25
ENDBRANCH  20  24
ENDBRANCH  19  20
ENDBRANCH   1  19
TORSDOF 5
