REMARK  Name = ZINC43548822
REMARK  7 active torsions:
REMARK  status: ('A' for Active; 'I' for Inactive)
REMARK    1  A    between atoms: C_1  and  C_2
REMARK    2  A    between atoms: C_8  and  C_32
REMARK    3  A    between atoms: C_11  and  C_21
REMARK    4  A    between atoms: C_13  and  O_20
REMARK    5  A    between atoms: C_17  and  C_19
REMARK    6  A    between atoms: C_21  and  C_23
REMARK    7  A    between atoms: C_21  and  C_24
REMARK                            x       y       z     vdW  Elec       q    Type
REMARK                         _______ _______ _______ _____ _____    ______ ____
ROOT
ATOM      1  C   UNL     1      -1.772   1.751  -0.218  0.00  0.00    +0.073 C 
ATOM      2  C   UNL     1      -1.458   0.281  -0.113  0.00  0.00    +0.076 A 
ATOM      3  N   UNL     1      -2.257  -0.699   0.225  0.00  0.00    -0.249 NA
ATOM      4  C   UNL     1      -1.847  -1.961   0.278  0.00  0.00    +0.055 A 
ATOM      5  C   UNL     1      -0.540  -2.147  -0.049  0.00  0.00    +0.013 A 
ATOM      6  S   UNL     1       0.004  -0.502  -0.411  0.00  0.00    -0.077 S 
ATOM      7  C   UNL     1       0.209  -3.434  -0.087  0.00  0.00    +0.051 C 
ATOM      8  C   UNL     1      -0.614  -4.505   0.634  0.00  0.00    -0.022 C 
ATOM      9  C   UNL     1      -0.555  -4.300   2.147  0.00  0.00    +0.008 C 
ATOM     10  C   UNL     1      -1.327  -5.431   2.833  0.00  0.00    +0.007 C 
ATOM     11  C   UNL     1      -2.777  -5.437   2.349  0.00  0.00    +0.029 C 
ATOM     12  C   UNL     1      -2.822  -5.614   0.830  0.00  0.00    +0.123 C 
ATOM     13  C   UNL     1      -2.076  -4.439   0.176  0.00  0.00    +0.033 C 
ATOM     14  C   UNL     1      -2.723  -3.140   0.667  0.00  0.00    +0.042 C 
ATOM     15  C   UNL     1      -4.104  -2.983   0.026  0.00  0.00    +0.014 C 
ATOM     16  C   UNL     1      -0.044  -5.886   0.306  0.00  0.00    +0.012 C 
ENDROOT
BRANCH  12  17
ATOM     17  O   UNL     1      -2.192  -6.846   0.472  0.00  0.00    -0.391 OA
ATOM     18  H   UNL     1      -2.607  -7.628   0.862  0.00  0.00    +0.210 HD
ENDBRANCH  12  17
BRANCH  11  19
ATOM     19  C   UNL     1      -3.530  -6.591   3.015  0.00  0.00    +0.078 C 
ATOM     20  C   UNL     1      -4.981  -6.600   2.533  0.00  0.00    +0.017 C 
BRANCH  19  21
ATOM     21  C   UNL     1      -3.498  -6.414   4.511  0.00  0.00    +0.219 C 
ATOM     22  O   UNL     1      -3.406  -5.303   4.989  0.00  0.00    -0.275 OA
ATOM     23  N   UNL     1      -3.574  -7.490   5.319  0.00  0.00    -0.297 N 
ATOM     24  C   UNL     1      -3.796  -8.837   4.769  0.00  0.00    +0.136 C 
ATOM     25  C   UNL     1      -2.735  -9.778   5.350  0.00  0.00    +0.179 C 
ATOM     26  O   UNL     1      -2.737  -9.667   6.775  0.00  0.00    -0.377 OA
ATOM     27  C   UNL     1      -2.392  -8.368   7.261  0.00  0.00    +0.179 C 
ATOM     28  C   UNL     1      -3.429  -7.355   6.777  0.00  0.00    +0.136 C 
ENDBRANCH  19  21
ENDBRANCH  11  19
TORSDOF 3
