REMARK  Name = ZINC15813729
REMARK  8 active torsions:
REMARK  status: ('A' for Active; 'I' for Inactive)
REMARK    1  A    between atoms: C_1  and  C_2
REMARK    2  A    between atoms: C_2  and  C_4
REMARK    3  A    between atoms: C_2  and  S_15
REMARK    4  A    between atoms: N_6  and  C_7
REMARK    5  A    between atoms: C_8  and  C_12
REMARK    6  A    between atoms: S_15  and  C_16
REMARK    7  A    between atoms: C_19  and  C_28
REMARK    8  A    between atoms: N_20  and  C_21
REMARK                            x       y       z     vdW  Elec       q    Type
REMARK                         _______ _______ _______ _____ _____    ______ ____
ROOT
ATOM      1  C   UNL     1      -0.002  -0.013   0.135  0.00  0.00    +0.197 A 
ATOM      2  N   UNL     1       1.068  -0.776   0.098  0.00  0.00    -0.122 NA
ATOM      3  N   UNL     1       0.729  -2.004  -0.070  0.00  0.00    -0.128 NA
ATOM      4  C   UNL     1      -0.577  -2.102  -0.161  0.00  0.00    +0.169 A 
ATOM      5  N   UNL     1      -1.087  -0.828  -0.032  0.00  0.00    -0.270 N 
ENDROOT
BRANCH   5   6
ATOM      6  C   UNL     1      -2.437  -0.448  -0.066  0.00  0.00    +0.051 A 
ATOM      7  C   UNL     1      -3.292  -0.830   0.959  0.00  0.00    +0.029 A 
ATOM      8  C   UNL     1      -4.619  -0.449   0.927  0.00  0.00    +0.040 A 
ATOM      9  C   UNL     1      -5.099   0.303  -0.132  0.00  0.00    +0.124 A 
ATOM     10  C   UNL     1      -4.249   0.679  -1.158  0.00  0.00    +0.040 A 
ATOM     11  C   UNL     1      -2.920   0.306  -1.127  0.00  0.00    +0.029 A 
ATOM     12  F   UNL     1      -6.399   0.669  -0.164  0.00  0.00    -0.205 F 
ENDBRANCH   5   6
BRANCH   4  13
ATOM     13  C   UNL     1      -1.353  -3.343  -0.363  0.00  0.00    +0.020 A 
ATOM     14  C   UNL     1      -0.766  -4.585  -0.117  0.00  0.00    +0.011 A 
ATOM     15  C   UNL     1      -1.498  -5.740  -0.303  0.00  0.00    +0.001 A 
ATOM     16  C   UNL     1      -2.808  -5.669  -0.743  0.00  0.00    +0.000 A 
ATOM     17  C   UNL     1      -3.394  -4.441  -0.994  0.00  0.00    +0.001 A 
ATOM     18  C   UNL     1      -2.675  -3.279  -0.807  0.00  0.00    +0.011 A 
ENDBRANCH   4  13
BRANCH   1  19
ATOM     19  S   UNL     1      -0.031   1.736   0.351  0.00  0.00    -0.073 S 
BRANCH  19  21
ATOM     20  C   UNL     1       2.280   1.401   1.768  0.00  0.00    +0.029 C 
ATOM     21  C   UNL     1       1.742   2.064   0.499  0.00  0.00    +0.137 C 
BRANCH  21  22
ATOM     22  C   UNL     1       1.973   3.552   0.573  0.00  0.00    +0.231 C 
ATOM     23  O   UNL     1       1.095   4.282   0.980  0.00  0.00    -0.274 OA
ATOM     24  N   UNL     1       3.156   4.070   0.188  0.00  0.00    -0.278 N 
ATOM     25  H   UNL     1       3.859   3.486  -0.137  0.00  0.00    +0.155 HD
BRANCH  24  26
ATOM     26  C   UNL     1       3.369   5.439   0.257  0.00  0.00    +0.084 A 
ATOM     27  C   UNL     1       4.511   6.153  -0.086  0.00  0.00    +0.065 A 
ATOM     28  C   UNL     1       4.455   7.585   0.084  0.00  0.00    +0.022 A 
ATOM     29  C   UNL     1       3.311   8.103   0.566  0.00  0.00    +0.048 A 
ATOM     30  S   UNL     1       2.279   6.671   0.796  0.00  0.00    -0.081 S 
BRANCH  27  31
ATOM     31  C   UNL     1       5.711   5.485  -0.598  0.00  0.00    +0.244 C 
ATOM     32  O   UNL     1       5.724   4.276  -0.732  0.00  0.00    -0.270 OA
ATOM     33  N   UNL     1       6.801   6.211  -0.920  0.00  0.00    -0.325 N 
ATOM     34  H   UNL     1       6.790   7.175  -0.813  0.00  0.00    +0.145 HD
ATOM     35  H   UNL     1       7.595   5.769  -1.258  0.00  0.00    +0.145 HD
ENDBRANCH  27  31
ENDBRANCH  24  26
ENDBRANCH  21  22
ENDBRANCH  19  21
ENDBRANCH   1  19
TORSDOF 7
