REMARK  Name = ZINC48836939
REMARK  5 active torsions:
REMARK  status: ('A' for Active; 'I' for Inactive)
REMARK    1  A    between atoms: C_1  and  N_2
REMARK    2  A    between atoms: N_2  and  C_3
REMARK    3  A    between atoms: N_2  and  C_9
REMARK    4  A    between atoms: C_3  and  C_4
REMARK    5  A    between atoms: C_10  and  C_15
REMARK                            x       y       z     vdW  Elec       q    Type
REMARK                         _______ _______ _______ _____ _____    ______ ____
ROOT
ATOM      1  C   UNL     1      -0.018   1.461   0.010  0.00  0.00    +0.130 C 
ATOM      2  N   UNL     1       0.002  -0.004   0.002  0.00  0.00    -0.321 N 
ENDROOT
BRANCH   2   3
ATOM      3  C   UNL     1       0.000  -0.689  -1.198  0.00  0.00    +0.107 A 
ATOM      4  C   UNL     1      -0.014  -0.171  -2.495  0.00  0.00    +0.118 A 
ATOM      5  C   UNL     1      -0.012  -1.140  -3.500  0.00  0.00    +0.157 A 
ATOM      6  N   UNL     1       0.002  -2.390  -3.129  0.00  0.00    -0.196 NA
ATOM      7  S   UNL     1       0.021  -2.346  -1.458  0.00  0.00    +0.030 S 
ATOM      8 CL   UNL     1      -0.028  -0.699  -5.179  0.00  0.00    -0.060 Cl
BRANCH   4   9
ATOM      9  C   UNL     1      -0.029   1.234  -2.771  0.00  0.00    +0.105 C 
ATOM     10  N   UNL     1      -0.041   2.349  -2.990  0.00  0.00    -0.191 NA
ENDBRANCH   4   9
ENDBRANCH   2   3
BRANCH   2  11
ATOM     11  C   UNL     1       0.024  -0.743   1.267  0.00  0.00    +0.143 C 
BRANCH  11  12
ATOM     12  C   UNL     1      -1.389  -1.016   1.714  0.00  0.00    +0.007 A 
ATOM     13  C   UNL     1      -2.189  -0.186   2.532  0.00  0.00    +0.046 A 
ATOM     14  C   UNL     1      -3.372  -0.808   2.680  0.00  0.00    +0.195 A 
ATOM     15  O   UNL     1      -3.332  -1.964   1.998  0.00  0.00    -0.471 OA
ATOM     16  C   UNL     1      -2.133  -2.094   1.406  0.00  0.00    +0.200 A 
ENDBRANCH  11  12
ENDBRANCH   2  11
TORSDOF 4
