REMARK  Name = ZINC22918700
REMARK  6 active torsions:
REMARK  status: ('A' for Active; 'I' for Inactive)
REMARK    1  A    between atoms: C_3  and  N_25
REMARK    2  A    between atoms: C_4  and  N_8
REMARK    3  A    between atoms: C_9  and  C_11
REMARK    4  A    between atoms: C_11  and  N_12
REMARK    5  A    between atoms: N_15  and  C_18
REMARK    6  A    between atoms: C_18  and  C_19
REMARK                            x       y       z     vdW  Elec       q    Type
REMARK                         _______ _______ _______ _____ _____    ______ ____
ROOT
ATOM      1  N   UNL     1       7.999  -2.341  -6.244  0.00  0.00    -0.285 N 
ATOM      2  C   UNL     1       7.339  -2.288  -5.070  0.00  0.00    +0.201 C 
ATOM      3  O   UNL     1       7.948  -2.392  -4.026  0.00  0.00    -0.278 OA
ATOM      4  H   UNL     1       7.459  -2.169  -7.186  0.00  0.00    +0.155 HD
ENDROOT
BRANCH   1   8
ATOM      5  C   UNL     1      12.088  -3.161  -6.303  0.00  0.00    +0.022 A 
ATOM      6  C   UNL     1      11.518  -2.441  -7.335  0.00  0.00    +0.031 A 
ATOM      7  C   UNL     1      10.159  -2.166  -7.322  0.00  0.00    +0.088 A 
ATOM      8  C   UNL     1       9.371  -2.617  -6.263  0.00  0.00    +0.060 A 
ATOM      9  C   UNL     1       9.951  -3.334  -5.228  0.00  0.00    +0.045 A 
ATOM     10  C   UNL     1      11.306  -3.609  -5.252  0.00  0.00    +0.043 A 
ATOM     11 CL   UNL     1      12.030  -4.513  -3.959  0.00  0.00    -0.083 Cl
BRANCH   7  12
ATOM     12  N   UNL     1       9.579  -1.435  -8.369  0.00  0.00    -0.218 N 
ATOM     13  C   UNL     1      10.185  -1.026  -9.500  0.00  0.00    +0.225 A 
ATOM     14  N   UNL     1       9.304  -0.378 -10.220  0.00  0.00    -0.222 NA
ATOM     15  C   UNL     1       8.135  -0.345  -9.582  0.00  0.00    +0.245 A 
ATOM     16  N   UNL     1       8.253  -0.979  -8.445  0.00  0.00    -0.153 NA
ENDBRANCH   7  12
ENDBRANCH   1   8
BRANCH   2  17
ATOM     17  C   UNL     1       5.844  -2.097  -5.053  0.00  0.00    +0.019 C 
BRANCH  17  18
ATOM     18  N   UNL     1       5.387  -1.929  -3.668  0.00  0.00    +0.387 N 
ATOM     19  C   UNL     1       5.896  -0.676  -3.093  0.00  0.00    -0.063 C 
ATOM     20  C   UNL     1       5.465  -0.577  -1.628  0.00  0.00    +0.066 C 
ATOM     21  N   UNL     1       3.999  -0.632  -1.547  0.00  0.00    -0.301 NA
ATOM     22  C   UNL     1       3.490  -1.886  -2.121  0.00  0.00    +0.066 C 
ATOM     23  C   UNL     1       3.921  -1.985  -3.586  0.00  0.00    -0.063 C 
ATOM     24  H   UNL     1       5.792  -2.763  -3.076  0.00  0.00    -0.081 HD
BRANCH  21  25
ATOM     25  C   UNL     1       3.542  -0.465  -0.161  0.00  0.00    +0.126 C 
BRANCH  25  26
ATOM     26  C   UNL     1       2.046  -0.281  -0.144  0.00  0.00    +0.005 A 
ATOM     27  C   UNL     1       1.072  -1.219  -0.050  0.00  0.00    +0.013 A 
ATOM     28  C   UNL     1      -0.250  -0.816  -0.055  0.00  0.00    +0.023 A 
ATOM     29  C   UNL     1      -0.534   0.507  -0.153  0.00  0.00    +0.055 A 
ATOM     30  S   UNL     1       1.097   1.228  -0.244  0.00  0.00    -0.085 S 
ATOM     31 BR   UNL     1      -2.219   1.364  -0.193  0.00  0.00    -0.043 Br
ENDBRANCH  25  26
ENDBRANCH  21  25
ENDBRANCH  17  18
ENDBRANCH   2  17
TORSDOF 6
