REMARK  Name = ZINC59063338
REMARK  14 active torsions:
REMARK  status: ('A' for Active; 'I' for Inactive)
REMARK    1  A    between atoms: C_1  and  C_2
REMARK    2  A    between atoms: C_2  and  C_3
REMARK    3  A    between atoms: C_3  and  C_4
REMARK    4  A    between atoms: C_4  and  C_5
REMARK    5  A    between atoms: C_8  and  N_11
REMARK    6  A    between atoms: N_11  and  C_12
REMARK    7  A    between atoms: C_12  and  N_14
REMARK    8  A    between atoms: N_14  and  C_15
REMARK    9  A    between atoms: N_14  and  C_22
REMARK   10  A    between atoms: C_15  and  C_16
REMARK   11  A    between atoms: C_22  and  C_23
REMARK   12  A    between atoms: C_28  and  O_29
REMARK   13  A    between atoms: O_29  and  C_30
REMARK   14  A    between atoms: C_30  and  C_31
REMARK                            x       y       z     vdW  Elec       q    Type
REMARK                         _______ _______ _______ _____ _____    ______ ____
ROOT
ATOM      1  N   UNL     1       3.517  -4.419   8.109  0.00  0.00    -0.304 N 
ENDROOT
BRANCH   1   2
ATOM      2  C   UNL     1       2.846  -4.070   6.994  0.00  0.00    +0.138 C 
ATOM      3  S   UNL     1       1.154  -3.815   7.058  0.00  0.00    -0.018 S 
BRANCH   2   4
ATOM      4  N   UNL     1       3.506  -3.920   5.829  0.00  0.00    -0.297 N 
ATOM      5  H   UNL     1       4.449  -4.142   5.774  0.00  0.00    +0.154 HD
BRANCH   4   9
ATOM      6  C   UNL     1       1.501  -2.506   2.463  0.00  0.00    -0.047 A 
ATOM      7  C   UNL     1       1.268  -1.928   3.698  0.00  0.00    +0.005 A 
ATOM      8  C   UNL     1       1.932  -2.395   4.816  0.00  0.00    +0.023 A 
ATOM      9  C   UNL     1       2.833  -3.446   4.699  0.00  0.00    +0.033 A 
ATOM     10  C   UNL     1       3.064  -4.023   3.457  0.00  0.00    +0.023 A 
ATOM     11  C   UNL     1       2.393  -3.555   2.344  0.00  0.00    +0.005 A 
BRANCH   6  12
ATOM     12  C   UNL     1       0.775  -1.994   1.245  0.00  0.00    +0.035 C 
BRANCH  12  13
ATOM     13  C   UNL     1      -0.540  -2.757   1.077  0.00  0.00    +0.004 C 
BRANCH  13  15
ATOM     14  C   UNL     1      -2.592  -3.001  -0.328  0.00  0.00    +0.004 C 
ATOM     15  C   UNL     1      -1.277  -2.238  -0.160  0.00  0.00    -0.003 C 
ENDBRANCH  13  15
ENDBRANCH  12  13
ENDBRANCH   6  12
ENDBRANCH   4   9
ENDBRANCH   2   4
ENDBRANCH   1   2
BRANCH   1  16
ATOM     16  C   UNL     1       4.965  -4.637   8.055  0.00  0.00    +0.142 C 
BRANCH  16  17
ATOM     17  C   UNL     1       5.679  -3.340   8.335  0.00  0.00    -0.030 A 
ATOM     18  C   UNL     1       5.996  -2.487   7.295  0.00  0.00    +0.005 A 
ATOM     19  C   UNL     1       6.651  -1.297   7.553  0.00  0.00    +0.000 A 
ATOM     20  C   UNL     1       6.988  -0.960   8.850  0.00  0.00    +0.000 A 
ATOM     21  C   UNL     1       6.670  -1.813   9.890  0.00  0.00    +0.000 A 
ATOM     22  C   UNL     1       6.012  -3.001   9.634  0.00  0.00    +0.005 A 
ENDBRANCH  16  17
ENDBRANCH   1  16
BRANCH   1  23
ATOM     23  C   UNL     1       2.799  -4.582   9.376  0.00  0.00    +0.146 C 
BRANCH  23  24
ATOM     24  C   UNL     1       2.335  -6.009   9.511  0.00  0.00    +0.011 A 
ATOM     25  C   UNL     1       1.027  -6.342   9.214  0.00  0.00    +0.009 A 
ATOM     26  C   UNL     1       0.601  -7.652   9.338  0.00  0.00    +0.001 A 
ATOM     27  C   UNL     1       1.482  -8.631   9.759  0.00  0.00    +0.004 A 
ATOM     28  C   UNL     1       2.790  -8.303  10.057  0.00  0.00    +0.046 A 
ATOM     29  C   UNL     1       3.222  -6.991   9.928  0.00  0.00    +0.125 A 
BRANCH  29  30
ATOM     30  O   UNL     1       4.510  -6.667  10.215  0.00  0.00    -0.492 OA
BRANCH  30  31
ATOM     31  C   UNL     1       5.367  -7.729  10.639  0.00  0.00    +0.225 C 
ATOM     32  C   UNL     1       6.767  -7.175  10.914  0.00  0.00    +0.048 C 
ENDBRANCH  30  31
ENDBRANCH  29  30
ENDBRANCH  23  24
ENDBRANCH   1  23
TORSDOF 12
