REMARK  Name = ZINC28057558
REMARK  3 active torsions:
REMARK  status: ('A' for Active; 'I' for Inactive)
REMARK    1  A    between atoms: C_1  and  C_2
REMARK    2  A    between atoms: C_10  and  C_13
REMARK    3  A    between atoms: C_21  and  C_29
REMARK                            x       y       z     vdW  Elec       q    Type
REMARK                         _______ _______ _______ _____ _____    ______ ____
ROOT
ATOM      1  C   UNL     1      -4.199   7.048   4.216  0.00  0.00    +0.044 C 
ATOM      2  C   UNL     1      -2.998   6.149   4.073  0.00  0.00    -0.050 A 
ATOM      3  C   UNL     1      -2.378   5.644   5.202  0.00  0.00    +0.007 A 
ATOM      4  C   UNL     1      -1.274   4.817   5.088  0.00  0.00    +0.046 A 
ATOM      5  C   UNL     1      -0.787   4.493   3.835  0.00  0.00    +0.131 A 
ATOM      6  C   UNL     1      -1.415   5.002   2.691  0.00  0.00    +0.038 A 
ATOM      7  C   UNL     1      -2.522   5.832   2.815  0.00  0.00    +0.016 A 
ATOM      8  C   UNL     1      -0.869   4.630   1.363  0.00  0.00    +0.050 C 
ATOM      9  C   UNL     1       0.360   4.115   1.304  0.00  0.00    +0.026 C 
ATOM     10  C   UNL     1       1.158   3.962   2.579  0.00  0.00    +0.234 C 
ATOM     11  O   UNL     1       0.294   3.687   3.681  0.00  0.00    -0.479 OA
ATOM     12  C   UNL     1       0.994   3.686   0.003  0.00  0.00    +0.177 C 
ATOM     13  N   UNL     1       0.226   4.199  -1.122  0.00  0.00    -0.201 N 
ATOM     14  C   UNL     1      -1.019   4.732  -1.009  0.00  0.00    +0.240 A 
ATOM     15  N   UNL     1      -1.405   5.075  -2.204  0.00  0.00    -0.092 NA
ATOM     16  N   UNL     1      -0.486   4.800  -3.066  0.00  0.00    -0.021 NA
ATOM     17  N   UNL     1       0.537   4.266  -2.479  0.00  0.00    -0.042 NA
ATOM     18  N   UNL     1      -1.650   4.835   0.220  0.00  0.00    -0.282 N 
ATOM     19  H   UNL     1      -2.721   5.068   0.319  0.00  0.00    +0.155 HD
ENDROOT
BRANCH  10  20
ATOM     20  C   UNL     1       1.914   5.238   2.847  0.00  0.00    -0.002 A 
ATOM     21  C   UNL     1       3.275   5.297   2.608  0.00  0.00    +0.010 A 
ATOM     22  C   UNL     1       3.969   6.468   2.849  0.00  0.00    +0.040 A 
ATOM     23  C   UNL     1       3.304   7.578   3.341  0.00  0.00    +0.137 A 
ATOM     24  C   UNL     1       1.942   7.516   3.585  0.00  0.00    +0.053 A 
ATOM     25  C   UNL     1       1.248   6.346   3.337  0.00  0.00    +0.025 A 
ATOM     26 BR   UNL     1       1.031   9.032   4.255  0.00  0.00    -0.047 Br
ATOM     27  F   UNL     1       3.983   8.721   3.582  0.00  0.00    -0.204 F 
ENDBRANCH  10  20
BRANCH  12  28
ATOM     28  C   UNL     1       1.032   2.181  -0.062  0.00  0.00    +0.017 A 
ATOM     29  C   UNL     1      -0.143   1.457  -0.007  0.00  0.00    +0.009 A 
ATOM     30  C   UNL     1      -0.109   0.076  -0.067  0.00  0.00    +0.001 A 
ATOM     31  C   UNL     1       1.102  -0.582  -0.182  0.00  0.00    +0.003 A 
ATOM     32  C   UNL     1       2.279   0.140  -0.237  0.00  0.00    +0.039 A 
ATOM     33  C   UNL     1       2.245   1.524  -0.176  0.00  0.00    +0.129 A 
ATOM     34  F   UNL     1       3.395   2.231  -0.229  0.00  0.00    -0.205 F 
ENDBRANCH  12  28
TORSDOF 2
