REMARK  Name = ZINC22061510
REMARK  12 active torsions:
REMARK  status: ('A' for Active; 'I' for Inactive)
REMARK    1  A    between atoms: C_1  and  C_2
REMARK    2  A    between atoms: C_2  and  C_3
REMARK    3  A    between atoms: C_3  and  C_4
REMARK    4  A    between atoms: C_3  and  C_5
REMARK    5  A    between atoms: C_3  and  C_6
REMARK    6  A    between atoms: N_14  and  C_18
REMARK    7  A    between atoms: C_18  and  C_19
REMARK    8  A    between atoms: N_21  and  C_22
REMARK    9  A    between atoms: C_22  and  C_23
REMARK   10  A    between atoms: C_23  and  C_25
REMARK   11  A    between atoms: C_23  and  O_34
REMARK   12  A    between atoms: C_28  and  N_31
REMARK                            x       y       z     vdW  Elec       q    Type
REMARK                         _______ _______ _______ _____ _____    ______ ____
ROOT
ATOM      1  C   UNL     1      -0.769   5.370  -4.208  0.00  0.00    -0.005 C 
ATOM      2  C   UNL     1      -1.507   5.309  -2.869  0.00  0.00    +0.006 C 
ATOM      3  C   UNL     1      -2.339   4.026  -2.804  0.00  0.00    +0.035 C 
ATOM      4  C   UNL     1      -1.423   2.817  -2.954  0.00  0.00    +0.113 C 
ATOM      5  C   UNL     1      -0.665   2.874  -4.275  0.00  0.00    +0.035 C 
ATOM      6  C   UNL     1       0.161   4.162  -4.335  0.00  0.00    +0.006 C 
ATOM      7  C   UNL     1      -0.456   2.742  -1.794  0.00  0.00    +0.247 C 
ATOM      8  O   UNL     1       0.381   3.562  -1.483  0.00  0.00    -0.273 OA
ATOM      9  N   UNL     1      -0.721   1.571  -1.179  0.00  0.00    -0.215 N 
ATOM     10  C   UNL     1      -1.708   0.905  -1.791  0.00  0.00    +0.310 C 
ATOM     11  O   UNL     1      -2.121  -0.178  -1.424  0.00  0.00    -0.252 OA
ATOM     12  N   UNL     1      -2.194   1.571  -2.856  0.00  0.00    -0.285 N 
ATOM     13  H   UNL     1      -2.989   1.357  -3.586  0.00  0.00    +0.151 HD
ENDROOT
BRANCH   1  14
ATOM     14  C   UNL     1       0.055   6.657  -4.278  0.00  0.00    -0.032 C 
ATOM     15  C   UNL     1      -0.875   7.865  -4.154  0.00  0.00    +0.011 C 
ATOM     16  C   UNL     1       1.071   6.676  -3.134  0.00  0.00    +0.011 C 
BRANCH  14  18
ATOM     17  C   UNL     1       1.617   8.005  -5.687  0.00  0.00    +0.004 C 
ATOM     18  C   UNL     1       0.793   6.718  -5.617  0.00  0.00    +0.003 C 
ENDBRANCH  14  18
ENDBRANCH   1  14
BRANCH   9  19
ATOM     19  C   UNL     1      -0.013   1.086   0.008  0.00  0.00    +0.213 C 
BRANCH  19  20
ATOM     20  C   UNL     1      -0.718   1.572   1.248  0.00  0.00    +0.231 C 
ATOM     21  O   UNL     1      -1.714   2.256   1.150  0.00  0.00    -0.274 OA
ATOM     22  N   UNL     1      -0.242   1.246   2.466  0.00  0.00    -0.311 N 
ATOM     23  H   UNL     1       0.662   0.625   2.555  0.00  0.00    +0.149 HD
BRANCH  22  24
ATOM     24  C   UNL     1      -0.927   1.718   3.671  0.00  0.00    +0.140 C 
BRANCH  24  25
ATOM     25  C   UNL     1      -0.187   1.212   4.911  0.00  0.00    +0.162 C 
BRANCH  25  26
ATOM     26  C   UNL     1      -0.959   1.593   6.147  0.00  0.00    -0.018 A 
ATOM     27  C   UNL     1      -0.857   2.873   6.659  0.00  0.00    +0.008 A 
ATOM     28  C   UNL     1      -1.569   3.224   7.790  0.00  0.00    +0.033 A 
ATOM     29  C   UNL     1      -2.375   2.293   8.417  0.00  0.00    +0.126 A 
ATOM     30  C   UNL     1      -2.473   1.011   7.909  0.00  0.00    +0.033 A 
ATOM     31  C   UNL     1      -1.765   0.661   6.774  0.00  0.00    +0.008 A 
BRANCH  29  32
ATOM     32  N   UNL     1      -3.133   2.667   9.632  0.00  0.00    +0.056 N 
ATOM     33  O   UNL     1      -3.843   1.846  10.184  0.00  0.00    -0.126 OA
ATOM     34  O   UNL     1      -3.047   3.797  10.079  0.00  0.00    -0.126 OA
ENDBRANCH  29  32
ENDBRANCH  25  26
BRANCH  25  35
ATOM     35  O   UNL     1       1.115   1.799   4.962  0.00  0.00    -0.386 OA
ATOM     36  H   UNL     1       1.797   1.552   5.788  0.00  0.00    +0.210 HD
ENDBRANCH  25  35
ENDBRANCH  24  25
ENDBRANCH  22  24
ENDBRANCH  19  20
ENDBRANCH   9  19
TORSDOF 9
