REMARK  Name = ZINC04953810
REMARK  17 active torsions:
REMARK  status: ('A' for Active; 'I' for Inactive)
REMARK    1  A    between atoms: C_1  and  C_2
REMARK    2  A    between atoms: C_2  and  C_3
REMARK    3  A    between atoms: C_3  and  C_4
REMARK    4  A    between atoms: C_4  and  C_5
REMARK    5  A    between atoms: N_7  and  C_8
REMARK    6  A    between atoms: N_7  and  C_12
REMARK    7  A    between atoms: C_8  and  C_9
REMARK    8  A    between atoms: C_9  and  C_10
REMARK    9  A    between atoms: C_10  and  C_11
REMARK   10  A    between atoms: C_12  and  C_13
REMARK   11  A    between atoms: N_15  and  C_16
REMARK   12  A    between atoms: N_15  and  C_23
REMARK   13  A    between atoms: C_16  and  C_17
REMARK   14  A    between atoms: N_21  and  C_22
REMARK   15  A    between atoms: C_23  and  C_24
REMARK   16  A    between atoms: C_24  and  C_25
REMARK   17  A    between atoms: C_24  and  C_26
REMARK                            x       y       z     vdW  Elec       q    Type
REMARK                         _______ _______ _______ _____ _____    ______ ____
ROOT
ATOM      1  C   UNL     1       2.857   3.799   2.216  0.00  0.00    +0.233 C 
ATOM      2  O   UNL     1       3.873   3.316   1.763  0.00  0.00    -0.274 OA
ATOM      3  N   UNL     1       1.716   3.760   1.500  0.00  0.00    -0.294 N 
ENDROOT
BRANCH   1   4
ATOM      4  C   UNL     1       2.870   4.441   3.579  0.00  0.00    +0.203 C 
BRANCH   4   7
ATOM      5  C   UNL     1       5.109   5.341   3.921  0.00  0.00    +0.216 C 
ATOM      6  O   UNL     1       4.794   6.300   3.248  0.00  0.00    -0.276 OA
ATOM      7  N   UNL     1       4.218   4.355   4.146  0.00  0.00    -0.293 N 
BRANCH   5   8
ATOM      8  C   UNL     1       6.495   5.252   4.505  0.00  0.00    +0.096 C 
BRANCH   8   9
ATOM      9  C   UNL     1       7.299   6.490   4.101  0.00  0.00    +0.009 C 
BRANCH   9  11
ATOM     10  C   UNL     1       9.510   7.638   4.290  0.00  0.00    +0.004 C 
ATOM     11  C   UNL     1       8.707   6.400   4.694  0.00  0.00    -0.003 C 
ENDBRANCH   9  11
ENDBRANCH   8   9
ENDBRANCH   5   8
BRANCH   7  12
ATOM     12  C   UNL     1       4.598   3.197   4.959  0.00  0.00    +0.108 C 
BRANCH  12  13
ATOM     13  C   UNL     1       5.186   2.111   4.055  0.00  0.00    +0.019 C 
BRANCH  13  14
ATOM     14  C   UNL     1       5.583   0.901   4.904  0.00  0.00    -0.002 C 
ATOM     15  C   UNL     1       6.171  -0.185   4.000  0.00  0.00    +0.004 C 
ENDBRANCH  13  14
ENDBRANCH  12  13
ENDBRANCH   7  12
ENDBRANCH   4   7
ENDBRANCH   1   4
BRANCH   3  16
ATOM     16  C   UNL     1       1.727   3.237   0.132  0.00  0.00    +0.161 C 
BRANCH  16  17
ATOM     17  C   UNL     1       2.159   4.324  -0.818  0.00  0.00    +0.036 A 
ATOM     18  C   UNL     1       3.420   4.551  -1.238  0.00  0.00    +0.024 A 
ATOM     19  C   UNL     1       3.381   5.655  -2.113  0.00  0.00    +0.019 A 
ATOM     20  C   UNL     1       2.097   6.060  -2.194  0.00  0.00    +0.085 A 
ATOM     21  N   UNL     1       1.342   5.247  -1.402  0.00  0.00    -0.352 N 
ATOM     22  C   UNL     1      -0.106   5.349  -1.208  0.00  0.00    +0.148 C 
ENDBRANCH  16  17
ENDBRANCH   3  16
BRANCH   3  23
ATOM     23  C   UNL     1       0.464   4.242   2.091  0.00  0.00    +0.111 C 
BRANCH  23  24
ATOM     24  C   UNL     1      -0.172   3.123   2.919  0.00  0.00    +0.000 C 
ATOM     25  C   UNL     1      -1.402   3.667   3.649  0.00  0.00    +0.009 C 
ATOM     26  C   UNL     1      -0.592   1.980   1.994  0.00  0.00    +0.009 C 
ENDBRANCH  23  24
ENDBRANCH   3  23
TORSDOF 12
