REMARK  Name = ZINC07307226
REMARK  3 active torsions:
REMARK  status: ('A' for Active; 'I' for Inactive)
REMARK    1  A    between atoms: N_7  and  S_15
REMARK    2  A    between atoms: C_9  and  C_12
REMARK    3  A    between atoms: S_15  and  C_18
REMARK                            x       y       z     vdW  Elec       q    Type
REMARK                         _______ _______ _______ _____ _____    ______ ____
ROOT
ATOM      1  C   UNL     1      -4.621   2.137   0.208  0.00  0.00    +0.002 A 
ATOM      2  C   UNL     1      -5.064   2.659   1.409  0.00  0.00    +0.004 A 
ATOM      3  C   UNL     1      -4.603   2.143   2.606  0.00  0.00    +0.047 A 
ATOM      4  C   UNL     1      -3.694   1.096   2.607  0.00  0.00    +0.144 A 
ATOM      5  C   UNL     1      -3.247   0.574   1.396  0.00  0.00    +0.093 A 
ATOM      6  C   UNL     1      -3.712   1.094   0.199  0.00  0.00    +0.028 A 
ATOM      7  N   UNL     1      -2.322  -0.482   1.392  0.00  0.00    -0.195 N 
ATOM      8  C   UNL     1      -2.101  -1.204   2.656  0.00  0.00    +0.185 C 
ATOM      9  C   UNL     1      -2.031  -0.154   3.780  0.00  0.00    +0.277 C 
ATOM     10  O   UNL     1      -3.252   0.590   3.788  0.00  0.00    -0.476 OA
ENDROOT
BRANCH   9  11
ATOM     11  C   UNL     1      -1.851  -0.846   5.106  0.00  0.00    +0.253 C 
ATOM     12  O   UNL     1      -2.728  -0.791   5.942  0.00  0.00    -0.272 OA
ATOM     13  N   UNL     1      -0.716  -1.525   5.363  0.00  0.00    -0.326 N 
ATOM     14  H   UNL     1      -0.015  -1.569   4.694  0.00  0.00    +0.145 HD
ATOM     15  H   UNL     1      -0.601  -1.971   6.217  0.00  0.00    +0.145 HD
ENDBRANCH   9  11
BRANCH   7  16
ATOM     16  S   UNL     1      -1.512  -0.906   0.011  0.00  0.00    +0.076 S 
ATOM     17  O   UNL     1      -0.417  -1.717   0.415  0.00  0.00    -0.150 OA
ATOM     18  O   UNL     1      -1.339   0.288  -0.741  0.00  0.00    -0.150 OA
BRANCH  16  19
ATOM     19  C   UNL     1      -2.586  -1.940  -0.927  0.00  0.00    +0.128 A 
ATOM     20  C   UNL     1      -3.072  -1.508  -2.146  0.00  0.00    +0.050 A 
ATOM     21  C   UNL     1      -3.916  -2.320  -2.882  0.00  0.00    +0.043 A 
ATOM     22  C   UNL     1      -4.272  -3.566  -2.398  0.00  0.00    +0.021 A 
ATOM     23  C   UNL     1      -3.786  -3.999  -1.179  0.00  0.00    +0.023 A 
ATOM     24  C   UNL     1      -2.943  -3.186  -0.443  0.00  0.00    +0.068 A 
ATOM     25 CL   UNL     1      -2.327  -3.733   1.085  0.00  0.00    -0.082 Cl
ATOM     26 CL   UNL     1      -4.527  -1.776  -4.414  0.00  0.00    -0.083 Cl
ENDBRANCH  16  19
ENDBRANCH   7  16
TORSDOF 3
