REMARK  Name = ZINC35829149
REMARK  8 active torsions:
REMARK  status: ('A' for Active; 'I' for Inactive)
REMARK    1  A    between atoms: C_1  and  C_2
REMARK    2  A    between atoms: C_3  and  C_22
REMARK    3  A    between atoms: C_5  and  C_14
REMARK    4  A    between atoms: N_6  and  C_7
REMARK    5  A    between atoms: C_18  and  O_20
REMARK    6  A    between atoms: O_20  and  C_21
REMARK    7  A    between atoms: N_27  and  C_30
REMARK    8  A    between atoms: C_33  and  N_36
REMARK                            x       y       z     vdW  Elec       q    Type
REMARK                         _______ _______ _______ _____ _____    ______ ____
ROOT
ATOM      1  C   UNL     1       0.684   1.452   0.155  0.00  0.00    +0.064 C 
ATOM      2  C   UNL     1       0.319  -0.008   0.086  0.00  0.00    +0.033 A 
ATOM      3  C   UNL     1      -0.030  -0.701  -1.054  0.00  0.00    +0.058 A 
ATOM      4  C   UNL     1      -0.293  -2.039  -0.661  0.00  0.00    +0.041 A 
ATOM      5  C   UNL     1      -0.098  -2.107   0.680  0.00  0.00    +0.055 A 
ATOM      6  N   UNL     1       0.282  -0.864   1.129  0.00  0.00    -0.310 N 
ENDROOT
BRANCH   3   7
ATOM      7  C   UNL     1      -0.115  -0.155  -2.419  0.00  0.00    +0.248 C 
ATOM      8  O   UNL     1       0.746   0.602  -2.826  0.00  0.00    -0.270 OA
ATOM      9  N   UNL     1      -1.145  -0.495  -3.218  0.00  0.00    -0.294 N 
ATOM     10  C   UNL     1      -2.252  -1.314  -2.704  0.00  0.00    +0.127 C 
ATOM     11  C   UNL     1      -3.569  -0.566  -2.947  0.00  0.00    +0.124 C 
ATOM     12  N   UNL     1      -3.607  -0.124  -4.348  0.00  0.00    -0.327 N 
ATOM     13  C   UNL     1      -2.500   0.694  -4.862  0.00  0.00    +0.124 C 
ATOM     14  C   UNL     1      -1.186  -0.049  -4.618  0.00  0.00    +0.127 C 
BRANCH  12  15
ATOM     15  C   UNL     1      -4.675  -0.477  -5.176  0.00  0.00    +0.030 A 
ATOM     16  C   UNL     1      -5.660  -1.339  -4.712  0.00  0.00    +0.025 A 
ATOM     17  C   UNL     1      -6.715  -1.685  -5.533  0.00  0.00    +0.034 A 
ATOM     18  C   UNL     1      -6.792  -1.174  -6.816  0.00  0.00    +0.126 A 
ATOM     19  C   UNL     1      -5.812  -0.316  -7.281  0.00  0.00    +0.034 A 
ATOM     20  C   UNL     1      -4.757   0.039  -6.463  0.00  0.00    +0.025 A 
BRANCH  18  21
ATOM     21  N   UNL     1      -7.923  -1.547  -7.693  0.00  0.00    +0.056 N 
ATOM     22  O   UNL     1      -8.780  -2.298  -7.288  0.00  0.00    -0.126 OA
ATOM     23  O   UNL     1      -7.991  -1.101  -8.815  0.00  0.00    -0.126 OA
ENDBRANCH  18  21
ENDBRANCH  12  15
ENDBRANCH   3   7
BRANCH   6  24
ATOM     24  C   UNL     1       0.580  -0.537   2.459  0.00  0.00    +0.082 A 
ATOM     25  C   UNL     1      -0.425  -0.100   3.310  0.00  0.00    +0.029 A 
ATOM     26  C   UNL     1      -0.129   0.222   4.620  0.00  0.00    +0.002 A 
ATOM     27  C   UNL     1       1.169   0.110   5.086  0.00  0.00    +0.003 A 
ATOM     28  C   UNL     1       2.174  -0.325   4.242  0.00  0.00    +0.040 A 
ATOM     29  C   UNL     1       1.883  -0.655   2.930  0.00  0.00    +0.147 A 
ATOM     30  F   UNL     1       2.864  -1.085   2.107  0.00  0.00    -0.203 F 
ENDBRANCH   6  24
BRANCH   5  31
ATOM     31  C   UNL     1      -0.260  -3.316   1.517  0.00  0.00    +0.002 A 
ATOM     32  C   UNL     1      -0.343  -3.200   2.906  0.00  0.00    +0.010 A 
ATOM     33  C   UNL     1      -0.494  -4.330   3.684  0.00  0.00    +0.004 A 
ATOM     34  C   UNL     1      -0.564  -5.578   3.092  0.00  0.00    +0.045 A 
ATOM     35  C   UNL     1      -0.482  -5.702   1.712  0.00  0.00    +0.121 A 
ATOM     36  C   UNL     1      -0.336  -4.574   0.922  0.00  0.00    +0.055 A 
BRANCH  35  37
ATOM     37  O   UNL     1      -0.551  -6.931   1.135  0.00  0.00    -0.495 OA
ATOM     38  C   UNL     1      -0.708  -8.050   2.010  0.00  0.00    +0.277 C 
ENDBRANCH  35  37
ENDBRANCH   5  31
TORSDOF 6
