REMARK  Name = ZINC62269393
REMARK  5 active torsions:
REMARK  status: ('A' for Active; 'I' for Inactive)
REMARK    1  A    between atoms: C_3  and  C_10
REMARK    2  A    between atoms: C_5  and  N_7
REMARK    3  A    between atoms: C_10  and  C_12
REMARK    4  A    between atoms: C_10  and  N_19
REMARK    5  A    between atoms: C_12  and  N_13
REMARK                            x       y       z     vdW  Elec       q    Type
REMARK                         _______ _______ _______ _____ _____    ______ ____
ROOT
ATOM      1  C   UNL     1       3.672   2.182  -0.022  0.00  0.00    -0.023 C 
ENDROOT
BRANCH   1   2
ATOM      2  N   UNL     1       3.137   3.258   0.823  0.00  0.00    +0.385 N 
ATOM      3  C   UNL     1       4.056   4.402   0.796  0.00  0.00    -0.078 C 
ATOM      4  C   UNL     1       3.465   5.555   1.610  0.00  0.00    -0.019 C 
ATOM      5  C   UNL     1       3.258   5.098   3.057  0.00  0.00    -0.004 C 
ATOM      6  C   UNL     1       2.358   3.859   3.067  0.00  0.00    -0.019 C 
ATOM      7  C   UNL     1       2.990   2.769   2.200  0.00  0.00    -0.078 C 
ATOM      8  H   UNL     1       2.236   3.544   0.471  0.00  0.00    -0.081 HD
ENDBRANCH   1   2
BRANCH   1  11
ATOM      9  C   UNL     1       0.641  -0.043   0.319  0.00  0.00    +0.002 A 
ATOM     10  C   UNL     1       1.434   1.082   0.190  0.00  0.00    +0.002 A 
ATOM     11  C   UNL     1       2.808   0.955   0.119  0.00  0.00    -0.058 A 
ATOM     12  C   UNL     1       3.391  -0.297   0.178  0.00  0.00    +0.034 A 
ATOM     13  C   UNL     1       2.599  -1.423   0.308  0.00  0.00    +0.126 A 
ATOM     14  C   UNL     1       1.224  -1.296   0.378  0.00  0.00    +0.033 A 
BRANCH  13  15
ATOM     15  N   UNL     1       3.222  -2.764   0.370  0.00  0.00    +0.056 N 
ATOM     16  O   UNL     1       4.424  -2.875   0.307  0.00  0.00    -0.126 OA
ATOM     17  O   UNL     1       2.529  -3.748   0.483  0.00  0.00    -0.126 OA
ENDBRANCH  13  15
ENDBRANCH   1  11
BRANCH   1  18
ATOM     18  C   UNL     1       3.677   2.636  -1.483  0.00  0.00    +0.073 C 
BRANCH  18  19
ATOM     19  N   UNL     1       4.666   3.708  -1.659  0.00  0.00    -0.307 NA
ATOM     20  C   UNL     1       6.031   3.204  -1.451  0.00  0.00    +0.065 C 
ATOM     21  C   UNL     1       7.024   4.361  -1.584  0.00  0.00    -0.067 C 
ATOM     22  N   UNL     1       6.903   4.959  -2.920  0.00  0.00    +0.381 N 
ATOM     23  C   UNL     1       5.542   5.479  -3.105  0.00  0.00    -0.067 C 
ATOM     24  C   UNL     1       4.537   4.332  -2.984  0.00  0.00    +0.065 C 
ATOM     25  H   UNL     1       7.567   5.713  -3.012  0.00  0.00    -0.086 HD
ATOM     26  H   UNL     1       7.093   4.258  -3.621  0.00  0.00    -0.086 HD
ENDBRANCH  18  19
ENDBRANCH   1  18
TORSDOF 5
