REMARK  Name = ZINC35448005
REMARK  6 active torsions:
REMARK  status: ('A' for Active; 'I' for Inactive)
REMARK    1  A    between atoms: C_1  and  C_2
REMARK    2  A    between atoms: C_5  and  O_18
REMARK    3  A    between atoms: C_6  and  N_8
REMARK    4  A    between atoms: C_9  and  C_11
REMARK    5  A    between atoms: O_18  and  C_19
REMARK    6  A    between atoms: C_19  and  C_20
REMARK                            x       y       z     vdW  Elec       q    Type
REMARK                         _______ _______ _______ _____ _____    ______ ____
ROOT
ATOM      1  C   UNL     1       0.017   1.511   0.025  0.00  0.00    +0.044 C 
ATOM      2  C   UNL     1       0.029   0.004   0.011  0.00  0.00    -0.048 A 
ATOM      3  C   UNL     1       0.036  -0.675  -1.193  0.00  0.00    +0.007 A 
ATOM      4  C   UNL     1       0.048  -2.057  -1.212  0.00  0.00    +0.048 A 
ATOM      5  C   UNL     1       0.053  -2.766  -0.022  0.00  0.00    +0.142 A 
ATOM      6  C   UNL     1       0.047  -2.083   1.192  0.00  0.00    +0.076 A 
ATOM      7  C   UNL     1       0.040  -0.695   1.203  0.00  0.00    +0.030 A 
ENDROOT
BRANCH   6   8
ATOM      8  N   UNL     1       0.052  -2.794   2.399  0.00  0.00    -0.279 N 
ATOM      9  C   UNL     1      -0.440  -2.227   3.518  0.00  0.00    +0.248 C 
ATOM     10  O   UNL     1      -0.978  -1.138   3.461  0.00  0.00    -0.270 OA
ATOM     11  H   UNL     1       0.408  -3.696   2.429  0.00  0.00    +0.155 HD
BRANCH   9  12
ATOM     12  C   UNL     1      -0.324  -2.927   4.814  0.00  0.00    +0.038 A 
ATOM     13  C   UNL     1       0.299  -4.175   4.883  0.00  0.00    +0.013 A 
ATOM     14  C   UNL     1       0.405  -4.824   6.096  0.00  0.00    +0.002 A 
ATOM     15  C   UNL     1      -0.105  -4.242   7.243  0.00  0.00    +0.020 A 
ATOM     16  C   UNL     1      -0.724  -3.005   7.182  0.00  0.00    +0.042 A 
ATOM     17  C   UNL     1      -0.831  -2.342   5.975  0.00  0.00    +0.033 A 
ATOM     18 CL   UNL     1      -1.361  -2.283   8.626  0.00  0.00    -0.084 Cl
ENDBRANCH   9  12
ENDBRANCH   6   8
BRANCH   5  19
ATOM     19  O   UNL     1       0.064  -4.126  -0.039  0.00  0.00    -0.484 OA
BRANCH  19  20
ATOM     20  C   UNL     1       0.070  -4.759  -1.320  0.00  0.00    +0.282 C 
BRANCH  20  21
ATOM     21  C   UNL     1       0.081  -6.255  -1.141  0.00  0.00    +0.061 A 
ATOM     22  C   UNL     1       0.079  -6.811   0.121  0.00  0.00    +0.095 A 
ATOM     23  C   UNL     1       0.090  -8.198   0.267  0.00  0.00    +0.259 A 
ATOM     24  O   UNL     1       0.088  -8.696   1.382  0.00  0.00    -0.267 OA
ATOM     25  N   UNL     1       0.103  -8.999  -0.841  0.00  0.00    -0.260 N 
ATOM     26  C   UNL     1       0.115 -10.387  -0.833  0.00  0.00    +0.039 A 
ATOM     27  C   UNL     1       0.126 -11.029  -2.008  0.00  0.00    +0.013 A 
ATOM     28  S   UNL     1       0.121  -9.721  -3.205  0.00  0.00    -0.056 S 
ATOM     29  C   UNL     1       0.104  -8.365  -2.051  0.00  0.00    +0.159 A 
ATOM     30  N   UNL     1       0.088  -7.063  -2.198  0.00  0.00    -0.336 N 
ATOM     31  C   UNL     1       0.140 -12.505  -2.250  0.00  0.00    +0.044 C 
ATOM     32  C   UNL     1       0.507 -13.208  -0.934  0.00  0.00    +0.006 C 
ATOM     33  C   UNL     1      -0.338 -12.606   0.193  0.00  0.00    +0.006 C 
ATOM     34  C   UNL     1       0.115 -11.174   0.476  0.00  0.00    +0.055 C 
ATOM     35  H   UNL     1       0.086  -6.683  -3.090  0.00  0.00    +0.168 HD
ENDBRANCH  20  21
ENDBRANCH  19  20
ENDBRANCH   5  19
TORSDOF 5
