REMARK  Name = ZINC31168211
REMARK  15 active torsions:
REMARK  status: ('A' for Active; 'I' for Inactive)
REMARK    1  A    between atoms: C_1  and  O_2
REMARK    2  A    between atoms: O_2  and  C_3
REMARK    3  A    between atoms: C_5  and  C_23
REMARK    4  A    between atoms: C_8  and  O_9
REMARK    5  A    between atoms: O_9  and  C_10
REMARK    6  A    between atoms: C_12  and  O_22
REMARK    7  A    between atoms: C_14  and  O_21
REMARK    8  A    between atoms: C_16  and  O_20
REMARK    9  A    between atoms: C_25  and  C_39
REMARK   10  A    between atoms: C_29  and  C_35
REMARK   11  A    between atoms: C_31  and  O_34
REMARK   12  A    between atoms: C_35  and  C_36
REMARK   13  A    between atoms: C_36  and  C_37
REMARK   14  A    between atoms: C_37  and  O_38
REMARK   15  A    between atoms: C_39  and  O_40
REMARK                            x       y       z     vdW  Elec       q    Type
REMARK                         _______ _______ _______ _____ _____    ______ ____
ROOT
ATOM      1  C   UNL     1       2.929   1.511  -3.465  0.00  0.00    +0.162 A 
ATOM      2  C   UNL     1       2.556   1.159  -2.178  0.00  0.00    +0.056 A 
ATOM      3  C   UNL     1       1.835   2.046  -1.400  0.00  0.00    -0.003 A 
ATOM      4  C   UNL     1       1.494   3.289  -1.900  0.00  0.00    +0.011 A 
ATOM      5  C   UNL     1       1.868   3.648  -3.181  0.00  0.00    +0.050 A 
ATOM      6  C   UNL     1       2.586   2.762  -3.968  0.00  0.00    +0.165 A 
ENDROOT
BRANCH   3   7
ATOM      7  C   UNL     1       1.425   1.658  -0.003  0.00  0.00    +0.214 C 
ATOM      8  C   UNL     1      -0.013   1.086   0.008  0.00  0.00    +0.093 C 
ATOM      9  C   UNL     1      -0.550   1.613   1.324  0.00  0.00    +0.007 A 
ATOM     10  C   UNL     1      -1.647   1.263   2.083  0.00  0.00    +0.011 A 
ATOM     11  C   UNL     1      -1.905   1.917   3.273  0.00  0.00    -0.043 A 
ATOM     12  C   UNL     1      -1.059   2.925   3.701  0.00  0.00    +0.052 A 
ATOM     13  C   UNL     1       0.040   3.282   2.941  0.00  0.00    +0.159 A 
ATOM     14  C   UNL     1       0.303   2.626   1.736  0.00  0.00    +0.166 A 
ATOM     15  O   UNL     1       1.311   2.819   0.839  0.00  0.00    -0.480 OA
BRANCH  13  16
ATOM     16  O   UNL     1       0.867   4.273   3.369  0.00  0.00    -0.503 OA
ATOM     17  H   UNL     1       1.742   4.558   2.765  0.00  0.00    +0.292 HD
ENDBRANCH  13  16
BRANCH  11  18
ATOM     18  C   UNL     1      -3.103   1.534   4.102  0.00  0.00    +0.037 C 
BRANCH  18  19
ATOM     19  C   UNL     1      -2.709   0.434   5.090  0.00  0.00    +0.032 C 
BRANCH  19  20
ATOM     20  C   UNL     1      -3.926   0.044   5.932  0.00  0.00    +0.156 C 
BRANCH  20  21
ATOM     21  O   UNL     1      -3.558  -0.983   6.854  0.00  0.00    -0.395 OA
ATOM     22  H   UNL     1      -4.307  -1.393   7.548  0.00  0.00    +0.209 HD
ENDBRANCH  20  21
ENDBRANCH  19  20
ENDBRANCH  18  19
ENDBRANCH  11  18
BRANCH   8  23
ATOM     23  C   UNL     1      -0.825   1.625  -1.171  0.00  0.00    +0.168 C 
BRANCH  23  24
ATOM     24  O   UNL     1      -2.130   1.042  -1.157  0.00  0.00    -0.394 OA
ATOM     25  H   UNL     1      -2.861   1.312  -1.933  0.00  0.00    +0.209 HD
ENDBRANCH  23  24
ENDBRANCH   8  23
ENDBRANCH   3   7
BRANCH   1  27
ATOM     26  C   UNL     1       3.951  -0.628  -3.652  0.00  0.00    +0.277 C 
ATOM     27  O   UNL     1       3.634   0.638  -4.233  0.00  0.00    -0.491 OA
ENDBRANCH   1  27
BRANCH   6  28
ATOM     28  O   UNL     1       2.954   3.115  -5.229  0.00  0.00    -0.457 OA
BRANCH  28  29
ATOM     29  C   UNL     1       2.567   4.415  -5.678  0.00  0.00    +0.339 C 
ATOM     30  C   UNL     1       3.171   4.678  -7.060  0.00  0.00    +0.214 C 
ATOM     31  C   UNL     1       2.703   6.047  -7.561  0.00  0.00    +0.180 C 
ATOM     32  C   UNL     1       1.171   6.075  -7.581  0.00  0.00    +0.171 C 
ATOM     33  C   UNL     1       0.644   5.758  -6.179  0.00  0.00    +0.198 C 
ATOM     34  O   UNL     1       1.142   4.485  -5.761  0.00  0.00    -0.337 OA
BRANCH  32  35
ATOM     35  O   UNL     1       0.722   7.372  -7.978  0.00  0.00    -0.387 OA
ATOM     36  H   UNL     1      -0.355   7.583  -8.050  0.00  0.00    +0.210 HD
ENDBRANCH  32  35
BRANCH  31  37
ATOM     37  O   UNL     1       3.202   6.270  -8.881  0.00  0.00    -0.386 OA
ATOM     38  H   UNL     1       2.967   7.207  -9.407  0.00  0.00    +0.210 HD
ENDBRANCH  31  37
BRANCH  30  39
ATOM     39  O   UNL     1       4.597   4.665  -6.968  0.00  0.00    -0.383 OA
ATOM     40  H   UNL     1       5.208   4.837  -7.866  0.00  0.00    +0.210 HD
ENDBRANCH  30  39
ENDBRANCH  28  29
ENDBRANCH   6  28
TORSDOF 14
