REMARK  Name = ZINC40783288
REMARK  5 active torsions:
REMARK  status: ('A' for Active; 'I' for Inactive)
REMARK    1  A    between atoms: C_3  and  C_9
REMARK    2  A    between atoms: N_11  and  N_12
REMARK    3  A    between atoms: C_14  and  N_28
REMARK    4  A    between atoms: C_15  and  N_19
REMARK    5  A    between atoms: N_19  and  C_20
REMARK                            x       y       z     vdW  Elec       q    Type
REMARK                         _______ _______ _______ _____ _____    ______ ____
ROOT
ATOM      1  N   UNL     1       4.908   4.303   0.932  0.00  0.00    -0.247 N 
ATOM      2  C   UNL     1       4.874   5.671   0.691  0.00  0.00    +0.161 A 
ATOM      3  C   UNL     1       6.053   6.377   0.449  0.00  0.00    +0.107 A 
ATOM      4  C   UNL     1       5.963   7.750   0.213  0.00  0.00    +0.149 A 
ATOM      5  N   UNL     1       4.764   8.329   0.228  0.00  0.00    -0.219 NA
ATOM      6  C   UNL     1       3.675   7.626   0.461  0.00  0.00    +0.225 A 
ATOM      7  N   UNL     1       3.716   6.327   0.683  0.00  0.00    -0.217 NA
ATOM      8  H   UNL     1       5.756   3.832   0.936  0.00  0.00    +0.172 HD
ENDROOT
BRANCH   1  11
ATOM      9  C   UNL     1       3.750   2.276   1.402  0.00  0.00    +0.262 C 
ATOM     10  O   UNL     1       4.812   1.686   1.407  0.00  0.00    -0.269 OA
ATOM     11  N   UNL     1       3.717   3.603   1.169  0.00  0.00    -0.231 N 
ATOM     12  H   UNL     1       2.869   4.074   1.164  0.00  0.00    +0.173 HD
BRANCH   9  15
ATOM     13  C   UNL     1       0.103   1.520   1.879  0.00  0.00    +0.021 A 
ATOM     14  C   UNL     1       1.272   2.214   1.646  0.00  0.00    +0.016 A 
ATOM     15  C   UNL     1       2.494   1.539   1.651  0.00  0.00    +0.057 A 
ATOM     16  C   UNL     1       2.525   0.163   1.893  0.00  0.00    +0.054 A 
ATOM     17  C   UNL     1       1.347  -0.520   2.125  0.00  0.00    +0.040 A 
ATOM     18  C   UNL     1       0.139   0.156   2.118  0.00  0.00    +0.042 A 
ATOM     19 CL   UNL     1      -1.337  -0.709   2.411  0.00  0.00    -0.083 Cl
ATOM     20 CL   UNL     1       4.039  -0.686   1.902  0.00  0.00    -0.083 Cl
ENDBRANCH   9  15
ENDBRANCH   1  11
BRANCH   3  21
ATOM     21  N   UNL     1       7.297   5.725   0.442  0.00  0.00    -0.353 N 
ATOM     22  H   UNL     1       7.345   4.770   0.608  0.00  0.00    +0.143 HD
ATOM     23  H   UNL     1       8.108   6.229   0.272  0.00  0.00    +0.143 HD
ENDBRANCH   3  21
BRANCH   4  24
ATOM     24  N   UNL     1       7.107   8.501  -0.034  0.00  0.00    -0.297 N 
ATOM     25  H   UNL     1       7.964   8.059  -0.139  0.00  0.00    +0.154 HD
BRANCH  24  26
ATOM     26  C   UNL     1       7.021   9.894  -0.131  0.00  0.00    +0.051 A 
ATOM     27  C   UNL     1       5.973  10.571   0.478  0.00  0.00    +0.026 A 
ATOM     28  C   UNL     1       5.892  11.946   0.381  0.00  0.00    +0.022 A 
ATOM     29  C   UNL     1       6.853  12.650  -0.323  0.00  0.00    +0.042 A 
ATOM     30  C   UNL     1       7.899  11.979  -0.932  0.00  0.00    +0.041 A 
ATOM     31  C   UNL     1       7.988  10.603  -0.834  0.00  0.00    +0.063 A 
ATOM     32 CL   UNL     1       9.304   9.762  -1.591  0.00  0.00    -0.082 Cl
ATOM     33 CL   UNL     1       6.746  14.379  -0.443  0.00  0.00    -0.083 Cl
ENDBRANCH  24  26
ENDBRANCH   4  24
TORSDOF 5
