REMARK  Name = ZINC20289899
REMARK  3 active torsions:
REMARK  status: ('A' for Active; 'I' for Inactive)
REMARK    1  A    between atoms: C_4  and  N_21
REMARK    2  A    between atoms: C_6  and  C_7
REMARK    3  A    between atoms: C_12  and  C_13
REMARK                            x       y       z     vdW  Elec       q    Type
REMARK                         _______ _______ _______ _____ _____    ______ ____
ROOT
ATOM      1  C   UNL     1      -1.682   3.291  -2.599  0.00  0.00    +0.008 A 
ATOM      2  C   UNL     1      -1.059   2.896  -1.405  0.00  0.00    -0.017 A 
ATOM      3  C   UNL     1      -0.727   1.578  -1.225  0.00  0.00    +0.047 A 
ATOM      4  N   UNL     1      -1.026   0.671  -2.152  0.00  0.00    -0.236 NA
ATOM      5  C   UNL     1      -1.624   0.977  -3.287  0.00  0.00    +0.135 A 
ATOM      6  C   UNL     1      -1.969   2.310  -3.567  0.00  0.00    +0.099 A 
ATOM      7  N   UNL     1      -1.914  -0.018  -4.204  0.00  0.00    -0.342 N 
ATOM      8  C   UNL     1      -0.013   1.086   0.008  0.00  0.00    +0.056 C 
ATOM      9  C   UNL     1      -0.714   1.572   1.279  0.00  0.00    +0.006 C 
ATOM     10  C   UNL     1      -0.043   2.873   1.712  0.00  0.00    +0.001 C 
ATOM     11  C   UNL     1       0.421   3.648   0.478  0.00  0.00    +0.005 C 
ATOM     12  C   UNL     1      -0.805   3.969  -0.376  0.00  0.00    +0.037 C 
ATOM     13  H   UNL     1      -2.413   0.235  -5.151  0.00  0.00    +0.144 HD
ATOM     14  H   UNL     1      -1.644  -1.062  -3.986  0.00  0.00    +0.144 HD
ENDROOT
BRANCH   1  20
ATOM     15  C   UNL     1      -1.025   5.669  -2.949  0.00  0.00    +0.010 A 
ATOM     16  C   UNL     1      -1.355   6.990  -3.170  0.00  0.00    +0.023 A 
ATOM     17  C   UNL     1      -2.683   7.366  -3.278  0.00  0.00    +0.071 A 
ATOM     18  C   UNL     1      -3.687   6.418  -3.166  0.00  0.00    +0.145 A 
ATOM     19  C   UNL     1      -3.368   5.093  -2.952  0.00  0.00    +0.042 A 
ATOM     20  C   UNL     1      -2.031   4.711  -2.836  0.00  0.00    -0.014 A 
ATOM     21 CL   UNL     1      -3.092   9.030  -3.554  0.00  0.00    -0.081 Cl
BRANCH  18  22
ATOM     22  N   UNL     1      -5.105   6.826  -3.283  0.00  0.00    +0.058 N 
ATOM     23  O   UNL     1      -5.989   5.994  -3.185  0.00  0.00    -0.126 OA
ATOM     24  O   UNL     1      -5.388   7.995  -3.477  0.00  0.00    -0.126 OA
ENDBRANCH  18  22
ENDBRANCH   1  20
BRANCH   6  25
ATOM     25  C   UNL     1      -2.597   2.662  -4.806  0.00  0.00    +0.103 C 
ATOM     26  N   UNL     1      -3.095   2.941  -5.788  0.00  0.00    -0.191 NA
ENDBRANCH   6  25
TORSDOF 3
