REMARK  Name = ZINC48369310
REMARK  5 active torsions:
REMARK  status: ('A' for Active; 'I' for Inactive)
REMARK    1  A    between atoms: C_1  and  N_2
REMARK    2  A    between atoms: N_2  and  C_3
REMARK    3  A    between atoms: C_3  and  C_4
REMARK    4  A    between atoms: C_4  and  N_6
REMARK    5  A    between atoms: C_17  and  C_19
REMARK                            x       y       z     vdW  Elec       q    Type
REMARK                         _______ _______ _______ _____ _____    ______ ____
ROOT
ATOM      1  C   UNL     1      -1.270  -1.073   1.811  0.00  0.00    +0.256 C 
ATOM      2  O   UNL     1      -2.268  -0.739   1.201  0.00  0.00    -0.272 OA
ENDROOT
BRANCH   1   3
ATOM      3  N   UNL     1      -1.383  -1.720   2.967  0.00  0.00    -0.146 NA
ATOM      4  C   UNL     1      -2.582  -2.093   3.406  0.00  0.00    +0.198 A 
ATOM      5  N   UNL     1      -3.768  -1.778   2.821  0.00  0.00    -0.326 N 
ATOM      6  H   UNL     1      -3.881  -1.246   2.018  0.00  0.00    +0.169 HD
ATOM      7  C   UNL     1      -4.790  -2.351   3.571  0.00  0.00    +0.065 A 
ATOM      8  C   UNL     1      -6.171  -2.356   3.441  0.00  0.00    +0.028 A 
ATOM      9  C   UNL     1      -6.946  -3.029   4.365  0.00  0.00    +0.002 A 
ATOM     10  C   UNL     1      -6.351  -3.699   5.420  0.00  0.00    +0.002 A 
ATOM     11  C   UNL     1      -4.977  -3.700   5.558  0.00  0.00    +0.028 A 
ATOM     12  C   UNL     1      -4.189  -3.027   4.635  0.00  0.00    +0.065 A 
ATOM     13  N   UNL     1      -2.815  -2.856   4.506  0.00  0.00    -0.326 N 
ATOM     14  H   UNL     1      -2.139  -3.216   5.101  0.00  0.00    +0.169 HD
ENDBRANCH   1   3
BRANCH   1  15
ATOM     15  C   UNL     1       0.094  -0.754   1.256  0.00  0.00    +0.205 C 
BRANCH  15  17
ATOM     16  C   UNL     1      -0.130   1.419  -0.035  0.00  0.00    +0.133 C 
ATOM     17  N   UNL     1      -0.050  -0.043  -0.017  0.00  0.00    -0.291 N 
ATOM     18  C   UNL     1      -0.110  -0.736  -1.172  0.00  0.00    +0.253 C 
ATOM     19  O   UNL     1      -0.141  -1.952  -1.151  0.00  0.00    -0.269 OA
BRANCH  18  20
ATOM     20  C   UNL     1      -0.137  -0.024  -2.452  0.00  0.00    +0.075 A 
ATOM     21  C   UNL     1      -0.333  -0.528  -3.729  0.00  0.00    +0.022 A 
ATOM     22  C   UNL     1      -0.304   0.394  -4.746  0.00  0.00    +0.024 A 
ATOM     23  C   UNL     1      -0.093   1.701  -4.446  0.00  0.00    +0.056 A 
ATOM     24  S   UNL     1       0.066   1.718  -2.773  0.00  0.00    -0.077 S 
ATOM     25 BR   UNL     1      -0.006   3.167  -5.636  0.00  0.00    -0.043 Br
ENDBRANCH  18  20
ENDBRANCH  15  17
ENDBRANCH   1  15
TORSDOF 4
