REMARK  Name = ZINC38995059
REMARK  9 active torsions:
REMARK  status: ('A' for Active; 'I' for Inactive)
REMARK    1  A    between atoms: C_1  and  C_2
REMARK    2  A    between atoms: C_5  and  N_9
REMARK    3  A    between atoms: C_6  and  C_8
REMARK    4  A    between atoms: C_10  and  C_12
REMARK    5  A    between atoms: C_12  and  S_13
REMARK    6  A    between atoms: S_13  and  C_14
REMARK    7  A    between atoms: C_18  and  C_22
REMARK    8  A    between atoms: N_20  and  N_21
REMARK    9  A    between atoms: C_25  and  C_28
REMARK                            x       y       z     vdW  Elec       q    Type
REMARK                         _______ _______ _______ _____ _____    ______ ____
ROOT
ATOM      1  C   UNL     1       0.515  -8.758  -3.190  0.00  0.00    +0.214 C 
ATOM      2  N   UNL     1      -0.480  -9.421  -2.315  0.00  0.00    -0.228 NA
ATOM      3  N   UNL     1       0.248 -10.555  -1.724  0.00  0.00    -0.234 NA
ATOM      4  C   UNL     1       1.606  -9.997  -1.491  0.00  0.00    +0.185 C 
ATOM      5  N   UNL     1       1.847  -9.124  -2.665  0.00  0.00    -0.197 NA
ATOM      6  H   UNL     1      -0.810  -8.790  -1.600  0.00  0.00    +0.143 HD
ATOM      7  H   UNL     1       0.282 -11.335  -2.362  0.00  0.00    +0.143 HD
ENDROOT
BRANCH   4   8
ATOM      8  C   UNL     1       2.643 -11.120  -1.435  0.00  0.00    +0.187 C 
ATOM      9  C   UNL     1       2.308 -12.104  -0.328  0.00  0.00    +0.034 C 
ATOM     10  C   UNL     1       3.369 -12.031   0.500  0.00  0.00    +0.091 C 
ATOM     11  N   UNL     1       4.279 -11.139   0.029  0.00  0.00    -0.154 NA
ATOM     12  N   UNL     1       3.958 -10.593  -1.034  0.00  0.00    -0.176 NA
BRANCH  10  13
ATOM     13  C   UNL     1       3.521 -12.815   1.751  0.00  0.00    +0.002 A 
ATOM     14  C   UNL     1       2.526 -13.710   2.141  0.00  0.00    +0.011 A 
ATOM     15  C   UNL     1       2.673 -14.436   3.305  0.00  0.00    +0.020 A 
ATOM     16  C   UNL     1       3.805 -14.277   4.085  0.00  0.00    +0.041 A 
ATOM     17  C   UNL     1       4.796 -13.389   3.702  0.00  0.00    +0.020 A 
ATOM     18  C   UNL     1       4.662 -12.663   2.536  0.00  0.00    +0.011 A 
ATOM     19 CL   UNL     1       3.983 -15.193   5.549  0.00  0.00    -0.084 Cl
ENDBRANCH  10  13
ENDBRANCH   4   8
BRANCH   5  20
ATOM     20  N   UNL     1       2.602  -7.940  -2.288  0.00  0.00    -0.264 NA
ATOM     21  H   UNL     1       2.676  -7.297  -3.062  0.00  0.00    +0.137 HD
ATOM     22  H   UNL     1       2.191  -7.491  -1.483  0.00  0.00    +0.137 HD
ENDBRANCH   5  20
BRANCH   1  23
ATOM     23  S   UNL     1       0.295  -6.959  -3.129  0.00  0.00    -0.115 S 
BRANCH  23  24
ATOM     24  C   UNL     1      -1.133  -6.654  -4.205  0.00  0.00    +0.168 C 
BRANCH  24  26
ATOM     25  N   UNL     1      -2.364  -4.704  -5.100  0.00  0.00    -0.285 N 
ATOM     26  C   UNL     1      -1.351  -5.170  -4.342  0.00  0.00    +0.227 C 
ATOM     27  O   UNL     1      -0.616  -4.393  -3.769  0.00  0.00    -0.275 OA
ATOM     28  H   UNL     1      -2.993  -5.324  -5.502  0.00  0.00    +0.155 HD
BRANCH  25  33
ATOM     29  C   UNL     1      -2.942   0.876  -5.945  0.00  0.00    +0.044 C 
ATOM     30  C   UNL     1      -2.789  -0.607  -5.720  0.00  0.00    -0.050 A 
ATOM     31  C   UNL     1      -2.304  -1.075  -4.513  0.00  0.00    +0.005 A 
ATOM     32  C   UNL     1      -2.162  -2.433  -4.304  0.00  0.00    +0.024 A 
ATOM     33  C   UNL     1      -2.507  -3.328  -5.309  0.00  0.00    +0.036 A 
ATOM     34  C   UNL     1      -2.994  -2.855  -6.519  0.00  0.00    -0.029 A 
ATOM     35  C   UNL     1      -3.138  -1.496  -6.720  0.00  0.00    +0.008 A 
ATOM     36  C   UNL     1      -3.369  -3.822  -7.612  0.00  0.00    +0.045 C 
ENDBRANCH  25  33
ENDBRANCH  24  26
ENDBRANCH  23  24
ENDBRANCH   1  23
TORSDOF 7
