REMARK  Name = ZINC01787092
REMARK  7 active torsions:
REMARK  status: ('A' for Active; 'I' for Inactive)
REMARK    1  A    between atoms: C_4  and  C_7
REMARK    2  A    between atoms: C_10  and  C_39
REMARK    3  A    between atoms: C_15  and  C_17
REMARK    4  A    between atoms: N_19  and  C_20
REMARK    5  A    between atoms: C_22  and  N_34
REMARK    6  A    between atoms: C_24  and  O_26
REMARK    7  A    between atoms: O_26  and  C_27
REMARK                            x       y       z     vdW  Elec       q    Type
REMARK                         _______ _______ _______ _____ _____    ______ ____
ROOT
ATOM      1  C   UNL     1      -5.188   4.847  -0.187  0.00  0.00    +0.104 C 
ATOM      2  C   UNL     1      -4.322   6.110  -0.159  0.00  0.00    +0.063 C 
ATOM      3  C   UNL     1      -2.988   5.816  -0.859  0.00  0.00    +0.215 C 
ATOM      4  N   UNL     1      -2.482   4.538  -0.342  0.00  0.00    -0.237 N 
ATOM      5  C   UNL     1      -3.238   3.643   0.356  0.00  0.00    +0.137 A 
ATOM      6  C   UNL     1      -2.446   2.588   0.666  0.00  0.00    +0.112 A 
ATOM      7  C   UNL     1      -1.159   2.849   0.147  0.00  0.00    +0.167 A 
ATOM      8  N   UNL     1      -1.191   4.022  -0.460  0.00  0.00    -0.163 NA
ATOM      9 CL   UNL     1      -2.927   1.171   1.546  0.00  0.00    -0.078 Cl
ATOM     10  N   UNL     1      -4.585   3.815   0.671  0.00  0.00    -0.321 N 
ATOM     11  H   UNL     1      -5.196   3.304   1.429  0.00  0.00    +0.148 HD
ENDROOT
BRANCH   1  15
ATOM     12  C   UNL     1      -9.104   5.774   1.245  0.00  0.00    +0.000 A 
ATOM     13  C   UNL     1      -8.868   5.688  -0.114  0.00  0.00    +0.000 A 
ATOM     14  C   UNL     1      -7.600   5.388  -0.578  0.00  0.00    +0.005 A 
ATOM     15  C   UNL     1      -6.569   5.174   0.318  0.00  0.00    -0.027 A 
ATOM     16  C   UNL     1      -6.807   5.255   1.678  0.00  0.00    +0.005 A 
ATOM     17  C   UNL     1      -8.073   5.560   2.141  0.00  0.00    +0.000 A 
ENDBRANCH   1  15
BRANCH   7  18
ATOM     18  C   UNL     1       0.017   1.963   0.258  0.00  0.00    +0.270 C 
ATOM     19  O   UNL     1      -0.076   0.901   0.843  0.00  0.00    -0.268 OA
ATOM     20  N   UNL     1       1.190   2.328  -0.295  0.00  0.00    -0.280 N 
ATOM     21  H   UNL     1       1.251   3.243  -0.903  0.00  0.00    +0.155 HD
BRANCH  20  22
ATOM     22  C   UNL     1       2.331   1.544  -0.096  0.00  0.00    +0.039 A 
ATOM     23  C   UNL     1       2.222   0.160  -0.035  0.00  0.00    +0.056 A 
ATOM     24  C   UNL     1       3.348  -0.615   0.161  0.00  0.00    +0.131 A 
ATOM     25  C   UNL     1       4.587  -0.017   0.298  0.00  0.00    +0.079 A 
ATOM     26  C   UNL     1       4.702   1.365   0.237  0.00  0.00    +0.132 A 
ATOM     27  C   UNL     1       3.574   2.146   0.035  0.00  0.00    +0.069 A 
BRANCH  24  28
ATOM     28  N   UNL     1       3.229  -2.089   0.225  0.00  0.00    +0.057 N 
ATOM     29  O   UNL     1       2.138  -2.618   0.105  0.00  0.00    -0.126 OA
ATOM     30  O   UNL     1       4.222  -2.773   0.398  0.00  0.00    -0.126 OA
ENDBRANCH  24  28
BRANCH  26  31
ATOM     31  O   UNL     1       5.920   1.952   0.371  0.00  0.00    -0.456 OA
BRANCH  31  32
ATOM     32  C   UNL     1       6.219   2.538   1.560  0.00  0.00    +0.129 A 
ATOM     33  C   UNL     1       5.299   2.511   2.599  0.00  0.00    +0.049 A 
ATOM     34  C   UNL     1       5.606   3.102   3.808  0.00  0.00    +0.042 A 
ATOM     35  C   UNL     1       6.827   3.732   3.982  0.00  0.00    +0.124 A 
ATOM     36  C   UNL     1       7.745   3.764   2.945  0.00  0.00    +0.042 A 
ATOM     37  C   UNL     1       7.442   3.169   1.736  0.00  0.00    +0.049 A 
ATOM     38  F   UNL     1       7.125   4.314   5.164  0.00  0.00    -0.205 F 
ENDBRANCH  31  32
ENDBRANCH  26  31
ENDBRANCH  20  22
ENDBRANCH   7  18
BRANCH   3  39
ATOM     39  C   UNL     1      -1.985   6.931  -0.554  0.00  0.00    +0.412 C 
ATOM     40  F   UNL     1      -0.761   6.637  -1.164  0.00  0.00    -0.168 F 
ATOM     41  F   UNL     1      -2.473   8.145  -1.050  0.00  0.00    -0.168 F 
ATOM     42  F   UNL     1      -1.805   7.031   0.829  0.00  0.00    -0.168 F 
ENDBRANCH   3  39
TORSDOF 7
