REMARK  Name = ZINC48533108
REMARK  6 active torsions:
REMARK  status: ('A' for Active; 'I' for Inactive)
REMARK    1  A    between atoms: C_4  and  N_7
REMARK    2  A    between atoms: N_7  and  N_8
REMARK    3  A    between atoms: C_10  and  C_32
REMARK    4  A    between atoms: C_12  and  C_23
REMARK    5  A    between atoms: N_14  and  C_17
REMARK    6  A    between atoms: N_25  and  C_26
REMARK                            x       y       z     vdW  Elec       q    Type
REMARK                         _______ _______ _______ _____ _____    ______ ____
ROOT
ATOM      1  N   UNL     1       3.028  -2.644   0.597  0.00  0.00    -0.181 NA
ATOM      2  C   UNL     1       4.287  -2.634   0.262  0.00  0.00    +0.137 C 
ATOM      3  C   UNL     1       5.094  -3.807  -0.254  0.00  0.00    +0.186 C 
ATOM      4  C   UNL     1       6.499  -3.225  -0.482  0.00  0.00    +0.182 C 
ATOM      5  N   UNL     1       6.424  -1.813  -0.102  0.00  0.00    -0.281 N 
ATOM      6  C   UNL     1       5.191  -1.487   0.305  0.00  0.00    +0.264 C 
ATOM      7  O   UNL     1       4.864  -0.373   0.670  0.00  0.00    -0.269 OA
ENDROOT
BRANCH   5   8
ATOM      8  C   UNL     1       7.550  -0.878  -0.165  0.00  0.00    +0.077 C 
ATOM      9  C   UNL     1       7.831  -0.324   1.234  0.00  0.00    +0.022 C 
ATOM     10  C   UNL     1       9.007   0.653   1.168  0.00  0.00    +0.002 C 
ATOM     11  C   UNL     1       8.660   1.806   0.223  0.00  0.00    +0.000 C 
ATOM     12  C   UNL     1       8.378   1.252  -1.175  0.00  0.00    +0.002 C 
ATOM     13  C   UNL     1       7.203   0.275  -1.109  0.00  0.00    +0.022 C 
ENDBRANCH   5   8
BRANCH   4  14
ATOM     14  C   UNL     1       6.883  -3.352  -1.934  0.00  0.00    +0.235 C 
ATOM     15  O   UNL     1       6.672  -2.435  -2.700  0.00  0.00    -0.274 OA
ATOM     16  N   UNL     1       7.461  -4.484  -2.383  0.00  0.00    -0.311 N 
ATOM     17  H   UNL     1       7.561  -5.245  -1.790  0.00  0.00    +0.149 HD
BRANCH  16  18
ATOM     18  C   UNL     1       7.937  -4.565  -3.765  0.00  0.00    +0.073 C 
ATOM     19  C   UNL     1       9.350  -3.983  -3.853  0.00  0.00    +0.022 C 
ATOM     20  C   UNL     1       9.847  -4.068  -5.298  0.00  0.00    +0.002 C 
ATOM     21  C   UNL     1       9.870  -5.532  -5.744  0.00  0.00    +0.000 C 
ATOM     22  C   UNL     1       8.457  -6.113  -5.656  0.00  0.00    +0.002 C 
ATOM     23  C   UNL     1       7.960  -6.028  -4.212  0.00  0.00    +0.022 C 
ENDBRANCH  16  18
ENDBRANCH   4  14
BRANCH   3  24
ATOM     24  C   UNL     1       4.515  -4.317  -1.548  0.00  0.00    +0.367 C 
ATOM     25  O   UNL     1       4.026  -3.537  -2.348  0.00  0.00    -0.246 OA
ATOM     26  O   UNL     1       4.534  -5.511  -1.796  0.00  0.00    -0.246 OA
ENDBRANCH   3  24
BRANCH   1  27
ATOM     27  N   UNL     1       2.415  -1.470   1.054  0.00  0.00    -0.237 N 
ATOM     28  H   UNL     1       2.928  -0.649   1.122  0.00  0.00    +0.174 HD
BRANCH  27  32
ATOM     29  C   UNL     1      -1.608  -1.502   2.124  0.00  0.00    +0.000 A 
ATOM     30  C   UNL     1      -0.878  -0.332   2.221  0.00  0.00    +0.002 A 
ATOM     31  C   UNL     1       0.457  -0.317   1.868  0.00  0.00    +0.025 A 
ATOM     32  C   UNL     1       1.066  -1.481   1.413  0.00  0.00    +0.048 A 
ATOM     33  C   UNL     1       0.329  -2.655   1.317  0.00  0.00    +0.025 A 
ATOM     34  C   UNL     1      -1.005  -2.662   1.673  0.00  0.00    +0.002 A 
ENDBRANCH  27  32
ENDBRANCH   1  27
TORSDOF 6
