REMARK  Name = ZINC13562194
REMARK  6 active torsions:
REMARK  status: ('A' for Active; 'I' for Inactive)
REMARK    1  A    between atoms: C_1  and  C_2
REMARK    2  A    between atoms: C_11  and  C_12
REMARK    3  A    between atoms: N_15  and  C_16
REMARK    4  A    between atoms: C_16  and  C_17
REMARK    5  A    between atoms: N_23  and  C_25
REMARK    6  A    between atoms: C_25  and  C_26
REMARK                            x       y       z     vdW  Elec       q    Type
REMARK                         _______ _______ _______ _____ _____    ______ ____
ROOT
ATOM      1  C   UNL     1      -0.835   1.574  -0.312  0.00  0.00    +0.044 C 
ATOM      2  C   UNL     1      -0.715   0.073  -0.269  0.00  0.00    -0.047 A 
ATOM      3  C   UNL     1      -0.592  -0.626  -1.432  0.00  0.00    +0.013 A 
ATOM      4  C   UNL     1      -0.483  -2.024  -1.394  0.00  0.00    +0.001 A 
ATOM      5  C   UNL     1      -0.384  -2.787  -2.570  0.00  0.00    +0.017 A 
ATOM      6  C   UNL     1      -0.266  -4.153  -2.478  0.00  0.00    +0.003 A 
ATOM      7  C   UNL     1      -0.222  -4.741  -1.210  0.00  0.00    +0.109 A 
ATOM      8  N   UNL     1      -0.352  -4.018  -0.109  0.00  0.00    -0.240 NA
ATOM      9  C   UNL     1      -0.484  -2.691  -0.144  0.00  0.00    +0.073 A 
ATOM     10  C   UNL     1      -0.621  -1.938   1.034  0.00  0.00    +0.032 A 
ATOM     11  C   UNL     1      -0.728  -0.582   0.960  0.00  0.00    -0.045 A 
ATOM     12  C   UNL     1      -0.867   0.221   2.228  0.00  0.00    +0.044 C 
ATOM     13  S   UNL     1       0.044  -6.480  -1.017  0.00  0.00    -0.036 S 
ATOM     14  C   UNL     1      -0.154  -7.079  -2.672  0.00  0.00    +0.137 C 
ATOM     15  N   UNL     1      -0.729  -8.217  -2.941  0.00  0.00    -0.365 N 
ATOM     16  N   UNL     1       0.352  -6.242  -3.663  0.00  0.00    -0.303 N 
ATOM     17  C   UNL     1      -0.210  -4.903  -3.775  0.00  0.00    +0.145 C 
ATOM     18  H   UNL     1      -0.987  -8.813  -2.221  0.00  0.00    +0.161 HD
ENDROOT
BRANCH  15  19
ATOM     19  C   UNL     1      -0.986  -8.597  -4.333  0.00  0.00    +0.146 C 
BRANCH  19  20
ATOM     20  C   UNL     1      -1.791  -9.897  -4.367  0.00  0.00    +0.137 C 
ATOM     21  C   UNL     1      -2.018 -10.335  -5.830  0.00  0.00    +0.035 C 
ATOM     22  C   UNL     1      -3.477 -10.867  -5.792  0.00  0.00    +0.031 C 
ATOM     23  C   UNL     1      -4.110  -9.915  -4.745  0.00  0.00    +0.160 C 
ATOM     24  O   UNL     1      -3.077  -9.688  -3.771  0.00  0.00    -0.375 OA
ENDBRANCH  19  20
ENDBRANCH  15  19
BRANCH  16  25
ATOM     25  C   UNL     1       1.417  -6.694  -4.562  0.00  0.00    +0.142 C 
BRANCH  25  26
ATOM     26  C   UNL     1       2.751  -6.242  -4.029  0.00  0.00    -0.026 A 
ATOM     27  C   UNL     1       3.218  -4.974  -4.323  0.00  0.00    +0.009 A 
ATOM     28  C   UNL     1       4.442  -4.554  -3.835  0.00  0.00    +0.050 A 
ATOM     29  C   UNL     1       5.204  -5.404  -3.050  0.00  0.00    +0.166 A 
ATOM     30  C   UNL     1       4.733  -6.681  -2.754  0.00  0.00    +0.167 A 
ATOM     31  C   UNL     1       3.503  -7.093  -3.241  0.00  0.00    +0.054 A 
ATOM     32  O   UNL     1       5.657  -7.316  -1.974  0.00  0.00    -0.453 OA
ATOM     33  C   UNL     1       6.876  -6.567  -2.135  0.00  0.00    +0.466 C 
ATOM     34  O   UNL     1       6.421  -5.239  -2.456  0.00  0.00    -0.453 OA
ENDBRANCH  25  26
ENDBRANCH  16  25
TORSDOF 4
