REMARK  Name = ZINC38984856
REMARK  4 active torsions:
REMARK  status: ('A' for Active; 'I' for Inactive)
REMARK    1  A    between atoms: C_5  and  C_7
REMARK    2  A    between atoms: N_13  and  N_14
REMARK    3  A    between atoms: C_15  and  C_16
REMARK    4  A    between atoms: C_21  and  O_22
REMARK                            x       y       z     vdW  Elec       q    Type
REMARK                         _______ _______ _______ _____ _____    ______ ____
ROOT
ATOM      1  C   UNL     1       1.238  -2.351   0.067  0.00  0.00    +0.265 C 
ATOM      2  N   UNL     1       2.308  -2.712  -0.876  0.00  0.00    -0.189 NA
ATOM      3  N   UNL     1       1.782  -3.153  -1.902  0.00  0.00    -0.219 N 
ATOM      4  C   UNL     1       0.423  -3.169  -1.848  0.00  0.00    +0.174 C 
ATOM      5  S   UNL     1      -0.601  -3.720  -3.105  0.00  0.00    -0.015 S 
ATOM      6  N   UNL     1      -0.003  -2.688  -0.656  0.00  0.00    -0.172 N 
ATOM      7  H   UNL     1       2.289  -3.458  -2.671  0.00  0.00    +0.176 HD
ENDROOT
BRANCH   1  12
ATOM      8  C   UNL     1       0.152   1.188   0.809  0.00  0.00    +0.000 A 
ATOM      9  C   UNL     1       1.369   1.826   0.954  0.00  0.00    +0.001 A 
ATOM     10  C   UNL     1       2.545   1.113   0.812  0.00  0.00    +0.015 A 
ATOM     11  C   UNL     1       2.503  -0.239   0.525  0.00  0.00    +0.025 A 
ATOM     12  C   UNL     1       1.285  -0.878   0.380  0.00  0.00    +0.012 A 
ATOM     13  C   UNL     1       0.109  -0.164   0.522  0.00  0.00    +0.008 A 
ATOM     14 BR   UNL     1       4.111  -1.215   0.331  0.00  0.00    -0.050 Br
ENDBRANCH   1  12
BRANCH   6  15
ATOM     15  N   UNL     1      -1.322  -2.541  -0.209  0.00  0.00    -0.183 NA
ATOM     16  C   UNL     1      -2.305  -2.998  -0.925  0.00  0.00    +0.142 C 
BRANCH  16  17
ATOM     17  C   UNL     1      -3.696  -2.718  -0.529  0.00  0.00    +0.037 A 
ATOM     18  C   UNL     1      -4.756  -3.212  -1.293  0.00  0.00    +0.028 A 
ATOM     19  C   UNL     1      -6.057  -2.947  -0.917  0.00  0.00    +0.019 A 
ATOM     20  C   UNL     1      -6.316  -2.193   0.216  0.00  0.00    +0.019 A 
ATOM     21  C   UNL     1      -5.276  -1.700   0.980  0.00  0.00    +0.047 A 
ATOM     22  C   UNL     1      -3.964  -1.960   0.619  0.00  0.00    +0.126 A 
ATOM     23 BR   UNL     1      -7.492  -3.615  -1.952  0.00  0.00    -0.050 Br
BRANCH  22  24
ATOM     24  O   UNL     1      -2.941  -1.480   1.373  0.00  0.00    -0.506 OA
ATOM     25  H   UNL     1      -2.635  -0.603   1.106  0.00  0.00    +0.292 HD
ENDBRANCH  22  24
ENDBRANCH  16  17
ENDBRANCH   6  15
TORSDOF 4
