REMARK  Name = ZINC62512421
REMARK  4 active torsions:
REMARK  status: ('A' for Active; 'I' for Inactive)
REMARK    1  A    between atoms: C_6  and  C_7
REMARK    2  A    between atoms: C_9  and  C_12
REMARK    3  A    between atoms: C_12  and  N_13
REMARK    4  A    between atoms: C_14  and  C_16
REMARK                            x       y       z     vdW  Elec       q    Type
REMARK                         _______ _______ _______ _____ _____    ______ ____
ROOT
ATOM      1  C   UNL     1      -3.170  -3.859   0.020  0.00  0.00    +0.203 C 
ENDROOT
BRANCH   1   4
ATOM      2  C   UNL     1      -1.272  -0.765   0.011  0.00  0.00    +0.202 A 
ATOM      3  N   UNL     1      -1.384  -2.106   0.010  0.00  0.00    -0.190 NA
ATOM      4  C   UNL     1      -2.641  -2.448   0.019  0.00  0.00    +0.245 A 
ATOM      5  O   UNL     1      -3.384  -1.333   0.026  0.00  0.00    -0.336 OA
ATOM      6  N   UNL     1      -2.474  -0.244   0.026  0.00  0.00    -0.056 NA
BRANCH   2  12
ATOM      7  C   UNL     1      -0.017   1.389   0.010  0.00  0.00    +0.014 A 
ATOM      8  C   UNL     1       1.170   2.093   0.002  0.00  0.00    +0.039 A 
ATOM      9  C   UNL     1       2.379   1.417  -0.013  0.00  0.00    +0.123 A 
ATOM     10  C   UNL     1       2.402   0.031  -0.021  0.00  0.00    +0.039 A 
ATOM     11  C   UNL     1       1.220  -0.680  -0.013  0.00  0.00    +0.014 A 
ATOM     12  C   UNL     1       0.002  -0.004   0.002  0.00  0.00    +0.023 A 
ATOM     13  F   UNL     1       3.538   2.110  -0.022  0.00  0.00    -0.205 F 
ENDBRANCH   2  12
ENDBRANCH   1   4
BRANCH   1  14
ATOM     14  N   UNL     1      -3.331  -4.319   1.402  0.00  0.00    -0.303 N 
ATOM     15  C   UNL     1      -3.794  -5.560   1.650  0.00  0.00    +0.245 C 
ATOM     16  O   UNL     1      -4.078  -6.298   0.727  0.00  0.00    -0.270 OA
ATOM     17  H   UNL     1      -3.104  -3.730   2.139  0.00  0.00    +0.150 HD
BRANCH  15  18
ATOM     18  C   UNL     1      -3.956  -6.024   3.044  0.00  0.00    +0.040 A 
ATOM     19  C   UNL     1      -3.636  -5.176   4.106  0.00  0.00    +0.051 A 
ATOM     20  C   UNL     1      -3.790  -5.616   5.407  0.00  0.00    +0.125 A 
ATOM     21  C   UNL     1      -4.261  -6.895   5.657  0.00  0.00    +0.053 A 
ATOM     22  C   UNL     1      -4.580  -7.739   4.608  0.00  0.00    +0.021 A 
ATOM     23  C   UNL     1      -4.436  -7.308   3.304  0.00  0.00    +0.028 A 
ATOM     24 BR   UNL     1      -5.220  -9.483   4.960  0.00  0.00    -0.050 Br
ATOM     25  F   UNL     1      -3.481  -4.798   6.436  0.00  0.00    -0.205 F 
ENDBRANCH  15  18
ENDBRANCH   1  14
TORSDOF 4
