REMARK  Name = ZINC41491611
REMARK  6 active torsions:
REMARK  status: ('A' for Active; 'I' for Inactive)
REMARK    1  A    between atoms: C_1  and  C_2
REMARK    2  A    between atoms: C_5  and  C_28
REMARK    3  A    between atoms: C_6  and  N_8
REMARK    4  A    between atoms: C_9  and  C_11
REMARK    5  A    between atoms: N_13  and  C_14
REMARK    6  A    between atoms: C_14  and  C_15
REMARK                            x       y       z     vdW  Elec       q    Type
REMARK                         _______ _______ _______ _____ _____    ______ ____
ROOT
ATOM      1  C   UNL     1       0.291  -2.892   4.838  0.00  0.00    +0.300 C 
ATOM      2  O   UNL     1       0.299  -4.105   4.825  0.00  0.00    -0.265 OA
ATOM      3  N   UNL     1       0.387  -2.229   6.008  0.00  0.00    -0.303 N 
ATOM      4  H   UNL     1       0.380  -1.260   6.019  0.00  0.00    +0.149 HD
ENDROOT
BRANCH   1   6
ATOM      5  N   UNL     1       0.078  -2.794   2.388  0.00  0.00    -0.278 N 
ATOM      6  C   UNL     1       0.174  -2.132   3.558  0.00  0.00    +0.303 C 
ATOM      7  O   UNL     1       0.166  -0.918   3.571  0.00  0.00    -0.265 OA
ATOM      8  H   UNL     1       0.002  -3.761   2.383  0.00  0.00    +0.155 HD
BRANCH   5  14
ATOM      9  C   UNL     1       1.340   1.219  -0.153  0.00  0.00    +0.044 C 
ATOM     10  C   UNL     1       0.692  -0.140  -0.079  0.00  0.00    -0.049 A 
ATOM     11  C   UNL     1       0.106  -0.689  -1.205  0.00  0.00    +0.004 A 
ATOM     12  C   UNL     1      -0.489  -1.935  -1.141  0.00  0.00    +0.005 A 
ATOM     13  C   UNL     1      -0.500  -2.636   0.049  0.00  0.00    -0.029 A 
ATOM     14  C   UNL     1       0.087  -2.088   1.182  0.00  0.00    +0.037 A 
ATOM     15  C   UNL     1       0.690  -0.838   1.113  0.00  0.00    +0.027 A 
ATOM     16  C   UNL     1      -1.150  -3.994   0.119  0.00  0.00    +0.045 C 
ENDBRANCH   5  14
ENDBRANCH   1   6
BRANCH   3  17
ATOM     17  C   UNL     1       0.502  -2.975   7.264  0.00  0.00    +0.141 C 
BRANCH  17  18
ATOM     18  C   UNL     1       0.594  -2.007   8.416  0.00  0.00    -0.014 A 
ATOM     19  C   UNL     1       1.831  -1.543   8.845  0.00  0.00    +0.010 A 
ATOM     20  C   UNL     1       1.871  -0.655   9.905  0.00  0.00    +0.042 A 
ATOM     21  C   UNL     1       0.678  -0.260  10.502  0.00  0.00    +0.099 A 
ATOM     22  N   UNL     1      -0.481  -0.726  10.064  0.00  0.00    -0.349 N 
ATOM     23  C   UNL     1      -0.550  -1.568   9.051  0.00  0.00    +0.089 A 
ATOM     24  N   UNL     1       0.705   0.631  11.569  0.00  0.00    -0.317 N 
ATOM     25  C   UNL     1       1.969   1.221  11.948  0.00  0.00    +0.106 C 
ATOM     26  C   UNL     1       2.673   0.316  12.990  0.00  0.00    +0.019 C 
ATOM     27  C   UNL     1       1.972   0.384  14.282  0.00  0.00    +0.002 C 
ATOM     28  C   UNL     1       0.536  -0.129  14.245  0.00  0.00    +0.002 C 
ATOM     29  C   UNL     1      -0.381   0.982  13.796  0.00  0.00    +0.019 C 
ATOM     30  C   UNL     1      -0.560   0.940  12.264  0.00  0.00    +0.106 C 
ATOM     31  H   UNL     1      -1.300  -0.437  10.496  0.00  0.00    +0.167 HD
ENDBRANCH  17  18
ENDBRANCH   3  17
TORSDOF 4
