REMARK  Name = ZINC11904651
REMARK  6 active torsions:
REMARK  status: ('A' for Active; 'I' for Inactive)
REMARK    1  A    between atoms: C_1  and  C_2
REMARK    2  A    between atoms: C_5  and  N_9
REMARK    3  A    between atoms: N_9  and  S_10
REMARK    4  A    between atoms: S_10  and  C_13
REMARK    5  A    between atoms: C_16  and  N_20
REMARK    6  A    between atoms: C_18  and  C_19
REMARK                            x       y       z     vdW  Elec       q    Type
REMARK                         _______ _______ _______ _____ _____    ______ ____
ROOT
ATOM      1  C   UNL     1      -1.067   1.915   1.595  0.00  0.00    +0.111 A 
ATOM      2  C   UNL     1      -1.415   0.889   2.454  0.00  0.00    +0.031 A 
ATOM      3  C   UNL     1      -2.119   1.163   3.610  0.00  0.00    +0.027 A 
ATOM      4  C   UNL     1      -2.485   2.470   3.905  0.00  0.00    +0.060 A 
ATOM      5  C   UNL     1      -2.139   3.497   3.038  0.00  0.00    +0.030 A 
ATOM      6  C   UNL     1      -1.430   3.217   1.886  0.00  0.00    -0.022 A 
ATOM      7  C   UNL     1      -1.054   4.332   0.944  0.00  0.00    +0.046 C 
ENDROOT
BRANCH   4   8
ATOM      8  N   UNL     1      -3.202   2.750   5.074  0.00  0.00    -0.144 N 
ATOM      9  C   UNL     1      -3.216   3.920   5.729  0.00  0.00    +0.240 C 
ATOM     10  O   UNL     1      -2.595   4.874   5.310  0.00  0.00    -0.274 OA
ATOM     11  C   UNL     1      -4.021   4.024   6.990  0.00  0.00    +0.122 C 
ATOM     12  C   UNL     1      -5.051   2.864   7.020  0.00  0.00    +0.198 C 
ATOM     13  S   UNL     1      -4.188   1.682   5.904  0.00  0.00    +0.052 S 
ATOM     14  O   UNL     1      -5.084   1.153   4.936  0.00  0.00    -0.155 OA
ATOM     15  O   UNL     1      -3.310   0.839   6.638  0.00  0.00    -0.155 OA
ENDBRANCH   4   8
BRANCH   1  16
ATOM     16  S   UNL     1      -0.163   1.562   0.124  0.00  0.00    +0.073 S 
ATOM     17  O   UNL     1      -0.010   0.151   0.070  0.00  0.00    -0.150 OA
ATOM     18  O   UNL     1       0.946   2.450   0.106  0.00  0.00    -0.150 OA
BRANCH  16  19
ATOM     19  N   UNL     1      -1.127   1.983  -1.155  0.00  0.00    -0.216 N 
ATOM     20  H   UNL     1      -0.855   2.696  -1.754  0.00  0.00    +0.174 HD
BRANCH  19  25
ATOM     21  C   UNL     1      -6.020  -0.747  -2.034  0.00  0.00    +0.045 C 
ATOM     22  C   UNL     1      -4.720  -0.021  -1.801  0.00  0.00    -0.032 A 
ATOM     23  C   UNL     1      -3.572  -0.737  -1.516  0.00  0.00    +0.006 A 
ATOM     24  C   UNL     1      -2.378  -0.076  -1.307  0.00  0.00    +0.025 A 
ATOM     25  C   UNL     1      -2.333   1.311  -1.372  0.00  0.00    +0.049 A 
ATOM     26  C   UNL     1      -3.487   2.028  -1.658  0.00  0.00    +0.044 A 
ATOM     27  C   UNL     1      -4.678   1.360  -1.872  0.00  0.00    +0.046 A 
ATOM     28 CL   UNL     1      -6.122   2.255  -2.230  0.00  0.00    -0.083 Cl
ENDBRANCH  19  25
ENDBRANCH  16  19
ENDBRANCH   1  16
TORSDOF 4
