REMARK  Name = ZINC20114399
REMARK  6 active torsions:
REMARK  status: ('A' for Active; 'I' for Inactive)
REMARK    1  A    between atoms: C_1  and  C_2
REMARK    2  A    between atoms: C_4  and  N_26
REMARK    3  A    between atoms: C_9  and  N_12
REMARK    4  A    between atoms: C_13  and  C_15
REMARK    5  A    between atoms: C_16  and  C_17
REMARK    6  A    between atoms: N_29  and  C_32
REMARK                            x       y       z     vdW  Elec       q    Type
REMARK                         _______ _______ _______ _____ _____    ______ ____
ROOT
ATOM      1  C   UNL     1      -9.819   0.099   0.449  0.00  0.00    +0.044 C 
ATOM      2  C   UNL     1      -9.726   1.603   0.443  0.00  0.00    -0.038 A 
ATOM      3  C   UNL     1     -10.845   2.374   0.538  0.00  0.00    +0.045 A 
ATOM      4  C   UNL     1     -10.734   3.771   0.531  0.00  0.00    +0.099 A 
ATOM      5  N   UNL     1      -9.565   4.369   0.433  0.00  0.00    -0.343 N 
ATOM      6  C   UNL     1      -8.431   3.665   0.337  0.00  0.00    +0.048 A 
ATOM      7  C   UNL     1      -8.477   2.249   0.338  0.00  0.00    +0.003 A 
ATOM      8  C   UNL     1      -7.286   1.515   0.236  0.00  0.00    +0.033 A 
ATOM      9  C   UNL     1      -6.084   2.182   0.135  0.00  0.00    +0.034 A 
ATOM     10  C   UNL     1      -6.045   3.581   0.140  0.00  0.00    +0.025 A 
ATOM     11  C   UNL     1      -7.187   4.313   0.233  0.00  0.00    +0.028 A 
ATOM     12  H   UNL     1      -9.507   5.467   0.429  0.00  0.00    +0.167 HD
ENDROOT
BRANCH   4  13
ATOM     13  N   UNL     1     -11.883   4.543   0.629  0.00  0.00    -0.314 N 
ATOM     14  C   UNL     1     -12.838   4.203  -0.435  0.00  0.00    +0.122 C 
ATOM     15  C   UNL     1     -14.120   5.017  -0.244  0.00  0.00    +0.103 C 
ATOM     16  N   UNL     1     -13.796   6.450  -0.270  0.00  0.00    -0.302 NA
ATOM     17  C   UNL     1     -12.841   6.790   0.794  0.00  0.00    +0.103 C 
ATOM     18  C   UNL     1     -11.559   5.976   0.604  0.00  0.00    +0.122 C 
ATOM     19  C   UNL     1     -15.013   7.267  -0.166  0.00  0.00    +0.105 C 
ENDBRANCH   4  13
BRANCH   9  20
ATOM     20  N   UNL     1      -4.894   1.456   0.033  0.00  0.00    -0.282 N 
ATOM     21  C   UNL     1      -3.870   1.938  -0.700  0.00  0.00    +0.241 C 
ATOM     22  O   UNL     1      -4.015   2.956  -1.350  0.00  0.00    -0.270 OA
ATOM     23  H   UNL     1      -4.792   0.490   0.551  0.00  0.00    +0.155 HD
BRANCH  21  24
ATOM     24  C   UNL     1      -2.587   1.237  -0.714  0.00  0.00    +0.068 C 
ATOM     25  C   UNL     1      -1.562   1.720  -1.448  0.00  0.00    +0.013 C 
BRANCH  25  26
ATOM     26  C   UNL     1      -0.272   1.015  -1.462  0.00  0.00    -0.021 A 
ATOM     27  C   UNL     1      -0.104  -0.157  -0.716  0.00  0.00    +0.012 A 
ATOM     28  C   UNL     1       1.104  -0.818  -0.735  0.00  0.00    +0.050 A 
ATOM     29  C   UNL     1       2.158  -0.326  -1.495  0.00  0.00    +0.166 A 
ATOM     30  C   UNL     1       1.998   0.841  -2.242  0.00  0.00    +0.167 A 
ATOM     31  C   UNL     1       0.790   1.510  -2.228  0.00  0.00    +0.057 A 
ATOM     32  O   UNL     1       3.169   1.107  -2.892  0.00  0.00    -0.453 OA
ATOM     33  C   UNL     1       3.913  -0.126  -2.860  0.00  0.00    +0.466 C 
ATOM     34  O   UNL     1       3.428  -0.788  -1.678  0.00  0.00    -0.453 OA
ENDBRANCH  25  26
ENDBRANCH  21  24
ENDBRANCH   9  20
TORSDOF 4
