REMARK  Name = ZINC36024591
REMARK  10 active torsions:
REMARK  status: ('A' for Active; 'I' for Inactive)
REMARK    1  A    between atoms: C_1  and  C_2
REMARK    2  A    between atoms: C_2  and  C_3
REMARK    3  A    between atoms: C_3  and  C_5
REMARK    4  A    between atoms: C_3  and  C_6
REMARK    5  A    between atoms: C_6  and  N_7
REMARK    6  A    between atoms: C_10  and  C_30
REMARK    7  A    between atoms: N_16  and  S_19
REMARK    8  A    between atoms: S_19  and  C_22
REMARK    9  A    between atoms: C_30  and  C_31
REMARK   10  A    between atoms: C_30  and  C_32
REMARK                            x       y       z     vdW  Elec       q    Type
REMARK                         _______ _______ _______ _____ _____    ______ ____
ROOT
ATOM      1  N   UNL     1       0.902  -2.155  -2.603  0.00  0.00    -0.313 N 
ATOM      2  C   UNL     1       0.097  -2.100  -3.684  0.00  0.00    +0.201 C 
ATOM      3  O   UNL     1      -1.085  -1.825  -3.675  0.00  0.00    -0.277 OA
ATOM      4  C   UNL     1       0.916  -2.440  -4.910  0.00  0.00    +0.022 C 
ATOM      5  N   UNL     1       2.141  -3.085  -4.380  0.00  0.00    +0.401 N 
ATOM      6  C   UNL     1       2.261  -2.508  -3.022  0.00  0.00    +0.006 C 
ATOM      7  C   UNL     1       2.855  -3.546  -2.072  0.00  0.00    +0.023 C 
ATOM      8  C   UNL     1       2.936  -2.956  -0.661  0.00  0.00    +0.109 C 
ATOM      9  N   UNL     1       3.675  -1.687  -0.721  0.00  0.00    -0.177 NA
ATOM     10  C   UNL     1       3.225  -0.651  -1.660  0.00  0.00    +0.109 C 
ATOM     11  C   UNL     1       3.142  -1.260  -3.063  0.00  0.00    +0.023 C 
ATOM     12  H   UNL     1       2.026  -4.086  -4.337  0.00  0.00    -0.082 HD
ATOM     13  H   UNL     1       2.944  -2.840  -4.940  0.00  0.00    -0.082 HD
ENDROOT
BRANCH   9  14
ATOM     14  S   UNL     1       4.990  -1.431   0.252  0.00  0.00    +0.061 S 
ATOM     15  O   UNL     1       5.127  -0.023   0.387  0.00  0.00    -0.153 OA
ATOM     16  O   UNL     1       4.842  -2.293   1.371  0.00  0.00    -0.153 OA
BRANCH  14  17
ATOM     17  C   UNL     1       6.408  -1.991  -0.632  0.00  0.00    +0.107 A 
ATOM     18  C   UNL     1       6.824  -3.304  -0.509  0.00  0.00    +0.030 A 
ATOM     19  C   UNL     1       7.936  -3.745  -1.201  0.00  0.00    +0.023 A 
ATOM     20  C   UNL     1       8.634  -2.872  -2.017  0.00  0.00    +0.059 A 
ATOM     21  C   UNL     1       8.217  -1.558  -2.140  0.00  0.00    +0.061 A 
ATOM     22  C   UNL     1       7.101  -1.119  -1.451  0.00  0.00    +0.050 A 
ATOM     23 CL   UNL     1       9.092  -0.461  -3.163  0.00  0.00    -0.082 Cl
ATOM     24 CL   UNL     1      10.032  -3.425  -2.886  0.00  0.00    -0.082 Cl
ENDBRANCH  14  17
ENDBRANCH   9  14
BRANCH   4  25
ATOM     25  C   UNL     1       0.149  -3.409  -5.812  0.00  0.00    -0.023 C 
ATOM     26  C   UNL     1      -1.149  -2.748  -6.283  0.00  0.00    +0.006 C 
ATOM     27  C   UNL     1       1.009  -3.766  -7.026  0.00  0.00    +0.006 C 
ENDBRANCH   4  25
BRANCH   1  28
ATOM     28  C   UNL     1       0.483  -1.895  -1.223  0.00  0.00    +0.109 C 
BRANCH  28  29
ATOM     29  C   UNL     1       0.003  -3.199  -0.582  0.00  0.00    +0.003 C 
ATOM     30  C   UNL     1      -1.264  -3.680  -1.292  0.00  0.00    +0.009 C 
BRANCH  29  32
ATOM     31  C   UNL     1      -0.663  -4.285   1.567  0.00  0.00    +0.004 C 
ATOM     32  C   UNL     1      -0.303  -2.957   0.898  0.00  0.00    +0.001 C 
ENDBRANCH  29  32
ENDBRANCH  28  29
ENDBRANCH   1  28
TORSDOF 6
