REMARK  Name = ZINC64930868
REMARK  4 active torsions:
REMARK  status: ('A' for Active; 'I' for Inactive)
REMARK    1  A    between atoms: C_6  and  N_7
REMARK    2  A    between atoms: C_8  and  C_10
REMARK    3  A    between atoms: C_13  and  C_15
REMARK    4  A    between atoms: N_23  and  C_24
REMARK                            x       y       z     vdW  Elec       q    Type
REMARK                         _______ _______ _______ _____ _____    ______ ____
ROOT
ATOM      1  C   UNL     1      -2.450  -2.810  -0.201  0.00  0.00    +0.187 A 
ATOM      2  N   UNL     1      -3.703  -2.365  -0.212  0.00  0.00    -0.136 NA
ATOM      3  N   UNL     1      -4.644  -3.203  -0.311  0.00  0.00    -0.144 NA
ATOM      4  C   UNL     1      -4.420  -4.498  -0.403  0.00  0.00    +0.123 A 
ATOM      5  S   UNL     1      -2.736  -4.567  -0.354  0.00  0.00    -0.044 S 
ENDROOT
BRANCH   4   6
ATOM      6  C   UNL     1      -5.412  -5.626  -0.525  0.00  0.00    +0.135 C 
ATOM      7  C   UNL     1      -6.021  -5.638  -1.943  0.00  0.00    +0.031 C 
ATOM      8  C   UNL     1      -7.505  -6.008  -1.681  0.00  0.00    +0.021 C 
ATOM      9  C   UNL     1      -7.773  -5.287  -0.337  0.00  0.00    +0.110 C 
ATOM     10  N   UNL     1      -6.515  -5.427   0.426  0.00  0.00    -0.276 N 
ATOM     11  C   UNL     1      -6.397  -5.381   1.767  0.00  0.00    +0.303 C 
ATOM     12  O   UNL     1      -5.305  -5.510   2.286  0.00  0.00    -0.253 OA
ATOM     13  N   UNL     1      -7.490  -5.193   2.534  0.00  0.00    -0.296 N 
ATOM     14  H   UNL     1      -8.361  -5.090   2.120  0.00  0.00    +0.151 HD
BRANCH  13  15
ATOM     15  C   UNL     1      -7.361  -5.143   3.992  0.00  0.00    +0.074 C 
ATOM     16  C   UNL     1      -7.462  -6.565   4.581  0.00  0.00    +0.022 C 
ATOM     17  C   UNL     1      -8.244  -6.375   5.904  0.00  0.00    +0.002 C 
ATOM     18  C   UNL     1      -9.289  -5.294   5.531  0.00  0.00    +0.002 C 
ATOM     19  C   UNL     1      -8.523  -4.334   4.596  0.00  0.00    +0.022 C 
ENDBRANCH  13  15
ENDBRANCH   4   6
BRANCH   1  21
ATOM     20  N   UNL     1      -1.200  -0.721   0.010  0.00  0.00    -0.280 N 
ATOM     21  C   UNL     1      -1.184  -2.064  -0.099  0.00  0.00    +0.275 C 
ATOM     22  O   UNL     1      -0.124  -2.661  -0.113  0.00  0.00    -0.268 OA
ATOM     23  H   UNL     1      -2.044  -0.251   0.089  0.00  0.00    +0.155 HD
BRANCH  20  29
ATOM     24  C   UNL     1       0.065   1.248  -0.586  0.00  0.00    +0.026 A 
ATOM     25  C   UNL     1       1.253   1.954  -0.585  0.00  0.00    +0.043 A 
ATOM     26  C   UNL     1       2.380   1.415   0.009  0.00  0.00    +0.159 A 
ATOM     27  C   UNL     1       2.321   0.164   0.605  0.00  0.00    +0.160 A 
ATOM     28  C   UNL     1       1.134  -0.546   0.607  0.00  0.00    +0.064 A 
ATOM     29  C   UNL     1       0.003  -0.005   0.010  0.00  0.00    +0.037 A 
ATOM     30  F   UNL     1       3.422  -0.361   1.185  0.00  0.00    -0.202 F 
ATOM     31  F   UNL     1       3.540   2.108   0.008  0.00  0.00    -0.202 F 
ENDBRANCH  20  29
ENDBRANCH   1  21
TORSDOF 4
