REMARK  Name = ZINC36783669
REMARK  10 active torsions:
REMARK  status: ('A' for Active; 'I' for Inactive)
REMARK    1  A    between atoms: C_1  and  C_2
REMARK    2  A    between atoms: C_2  and  C_4
REMARK    3  A    between atoms: C_2  and  S_17
REMARK    4  A    between atoms: N_6  and  C_7
REMARK    5  A    between atoms: C_10  and  N_14
REMARK    6  A    between atoms: S_17  and  C_18
REMARK    7  A    between atoms: C_21  and  C_24
REMARK    8  A    between atoms: N_22  and  N_23
REMARK    9  A    between atoms: C_27  and  O_30
REMARK   10  A    between atoms: O_30  and  C_31
REMARK                            x       y       z     vdW  Elec       q    Type
REMARK                         _______ _______ _______ _____ _____    ______ ____
ROOT
ATOM      1  S   UNL     1       0.875  -0.581   1.476  0.00  0.00    -0.072 S 
ENDROOT
BRANCH   1   2
ATOM      2  C   UNL     1       2.525  -0.005   1.247  0.00  0.00    +0.209 A 
ATOM      3  N   UNL     1       2.971   0.697   0.230  0.00  0.00    -0.121 NA
ATOM      4  N   UNL     1       4.222   0.948   0.382  0.00  0.00    -0.127 NA
ATOM      5  C   UNL     1       4.652   0.421   1.505  0.00  0.00    +0.182 A 
ATOM      6  N   UNL     1       3.577  -0.201   2.096  0.00  0.00    -0.224 N 
BRANCH   5   7
ATOM      7  C   UNL     1       6.030   0.488   2.037  0.00  0.00    +0.021 A 
ATOM      8  C   UNL     1       6.426  -0.370   3.064  0.00  0.00    +0.015 A 
ATOM      9  C   UNL     1       7.712  -0.304   3.557  0.00  0.00    +0.046 A 
ATOM     10  C   UNL     1       8.612   0.614   3.032  0.00  0.00    +0.120 A 
ATOM     11  C   UNL     1       8.222   1.469   2.010  0.00  0.00    +0.046 A 
ATOM     12  C   UNL     1       6.940   1.406   1.508  0.00  0.00    +0.015 A 
BRANCH  10  13
ATOM     13  O   UNL     1       9.879   0.675   3.521  0.00  0.00    -0.495 OA
ATOM     14  C   UNL     1      10.753   1.643   2.937  0.00  0.00    +0.277 C 
ENDBRANCH  10  13
ENDBRANCH   5   7
BRANCH   6  15
ATOM     15  N   UNL     1       3.564  -0.876   3.284  0.00  0.00    -0.295 N 
ATOM     16  H   UNL     1       3.777  -1.853   3.147  0.00  0.00    +0.163 HD
ATOM     17  H   UNL     1       4.200  -0.456   3.945  0.00  0.00    +0.163 HD
ENDBRANCH   6  15
ENDBRANCH   1   2
BRANCH   1  19
ATOM     18  C   UNL     1      -0.037   1.542   0.012  0.00  0.00    +0.029 C 
ATOM     19  C   UNL     1      -0.005   0.013   0.005  0.00  0.00    +0.137 C 
BRANCH  19  20
ATOM     20  C   UNL     1      -1.414  -0.520   0.014  0.00  0.00    +0.230 C 
ATOM     21  O   UNL     1      -1.941  -0.825   1.063  0.00  0.00    -0.274 OA
ATOM     22  N   UNL     1      -2.090  -0.657  -1.144  0.00  0.00    -0.283 N 
ATOM     23  H   UNL     1      -1.694  -0.353  -1.976  0.00  0.00    +0.155 HD
BRANCH  22  24
ATOM     24  C   UNL     1      -3.364  -1.239  -1.147  0.00  0.00    +0.052 A 
ATOM     25  C   UNL     1      -4.225  -1.032  -0.077  0.00  0.00    +0.027 A 
ATOM     26  C   UNL     1      -5.481  -1.607  -0.083  0.00  0.00    +0.034 A 
ATOM     27  C   UNL     1      -5.881  -2.388  -1.152  0.00  0.00    +0.128 A 
ATOM     28  C   UNL     1      -5.027  -2.596  -2.219  0.00  0.00    +0.054 A 
ATOM     29  C   UNL     1      -3.770  -2.019  -2.222  0.00  0.00    +0.064 A 
ATOM     30 CL   UNL     1      -2.700  -2.275  -3.565  0.00  0.00    -0.082 Cl
BRANCH  27  31
ATOM     31  N   UNL     1      -7.228  -3.003  -1.154  0.00  0.00    +0.056 N 
ATOM     32  O   UNL     1      -7.976  -2.822  -0.222  0.00  0.00    -0.126 OA
ATOM     33  O   UNL     1      -7.579  -3.685  -2.087  0.00  0.00    -0.126 OA
ENDBRANCH  27  31
ENDBRANCH  22  24
ENDBRANCH  19  20
ENDBRANCH   1  19
TORSDOF 8
