REMARK  Name = ZINC50956328
REMARK  1 active torsions:
REMARK  status: ('A' for Active; 'I' for Inactive)
REMARK    1  A    between atoms: C_18  and  C_21
REMARK                            x       y       z     vdW  Elec       q    Type
REMARK                         _______ _______ _______ _____ _____    ______ ____
ROOT
ATOM      1  C   UNL     1      -0.016   1.315   0.022  0.00  0.00    +0.224 A 
ATOM      2  N   UNL     1       1.102   2.019   0.015  0.00  0.00    -0.220 NA
ATOM      3  C   UNL     1       2.295   1.448  -0.013  0.00  0.00    +0.133 A 
ATOM      4  C   UNL     1       2.383   0.028  -0.035  0.00  0.00    +0.051 A 
ATOM      5  C   UNL     1       3.578  -0.816  -0.068  0.00  0.00    -0.025 A 
ATOM      6  C   UNL     1       3.384  -2.151  -0.084  0.00  0.00    -0.004 A 
ATOM      7  S   UNL     1       1.624  -2.363  -0.056  0.00  0.00    -0.073 S 
ATOM      8  C   UNL     1       1.149  -0.654  -0.025  0.00  0.00    +0.114 A 
ATOM      9  N   UNL     1       0.002  -0.004   0.003  0.00  0.00    -0.228 NA
ATOM     10  C   UNL     1       4.433  -3.220  -0.119  0.00  0.00    +0.043 C 
ATOM     11  C   UNL     1       5.770  -2.575  -0.510  0.00  0.00    +0.005 C 
ATOM     12  C   UNL     1       5.977  -1.319   0.342  0.00  0.00    +0.005 C 
ATOM     13  C   UNL     1       4.988  -0.233  -0.085  0.00  0.00    +0.037 C 
ATOM     14  N   UNL     1       3.442   2.221  -0.020  0.00  0.00    -0.309 N 
ATOM     15  C   UNL     1       4.116   2.566  -1.282  0.00  0.00    +0.134 C 
ATOM     16  C   UNL     1       4.350   4.080  -1.307  0.00  0.00    +0.180 C 
ATOM     17  O   UNL     1       5.016   4.473  -0.104  0.00  0.00    -0.364 OA
ATOM     18  C   UNL     1       4.264   4.230   1.087  0.00  0.00    +0.221 C 
ATOM     19  C   UNL     1       4.022   2.728   1.234  0.00  0.00    +0.147 C 
ENDROOT
BRANCH  18  20
ATOM     20  C   UNL     1       5.032   4.738   2.280  0.00  0.00    +0.241 C 
ATOM     21  O   UNL     1       6.155   5.175   2.137  0.00  0.00    -0.273 OA
ATOM     22  N   UNL     1       4.472   4.708   3.506  0.00  0.00    -0.327 N 
ATOM     23  H   UNL     1       3.574   4.359   3.620  0.00  0.00    +0.145 HD
ATOM     24  H   UNL     1       4.967   5.035   4.273  0.00  0.00    +0.145 HD
ENDBRANCH  18  20
TORSDOF 1
