REMARK  Name = ZINC63818977
REMARK  7 active torsions:
REMARK  status: ('A' for Active; 'I' for Inactive)
REMARK    1  A    between atoms: C_1  and  C_2
REMARK    2  A    between atoms: N_4  and  C_5
REMARK    3  A    between atoms: C_9  and  C_11
REMARK    4  A    between atoms: N_13  and  C_14
REMARK    5  A    between atoms: C_14  and  C_15
REMARK    6  A    between atoms: C_15  and  C_17
REMARK    7  A    between atoms: C_15  and  C_24
REMARK                            x       y       z     vdW  Elec       q    Type
REMARK                         _______ _______ _______ _____ _____    ______ ____
ROOT
ATOM      1  C   UNL     1      -4.170  -8.685   0.336  0.00  0.00    +0.066 C 
ENDROOT
BRANCH   1   2
ATOM      2  C   UNL     1      -5.428  -9.507   0.455  0.00  0.00    -0.033 C 
ATOM      3  C   UNL     1      -5.770 -10.326   1.476  0.00  0.00    -0.000 A 
ATOM      4  C   UNL     1      -5.101 -10.682   2.732  0.00  0.00    +0.010 A 
ATOM      5  C   UNL     1      -5.705 -11.551   3.575  0.00  0.00    +0.001 A 
ATOM      6  C   UNL     1      -6.952 -12.118   3.278  0.00  0.00    +0.002 A 
ATOM      7  C   UNL     1      -7.629 -11.839   2.144  0.00  0.00    +0.026 A 
ATOM      8  C   UNL     1      -7.087 -10.938   1.186  0.00  0.00    +0.043 A 
ATOM      9  N   UNL     1      -7.540 -10.514   0.031  0.00  0.00    -0.380 N 
ATOM     10  C   UNL     1      -6.564  -9.580  -0.540  0.00  0.00    +0.145 C 
ATOM     11  H   UNL     1      -8.382 -10.773  -0.375  0.00  0.00    +0.160 HD
ENDBRANCH   1   2
BRANCH   1  12
ATOM     12  C   UNL     1      -3.414  -9.098  -0.900  0.00  0.00    -0.020 A 
ATOM     13  C   UNL     1      -4.005  -8.978  -2.144  0.00  0.00    +0.006 A 
ATOM     14  C   UNL     1      -3.312  -9.357  -3.278  0.00  0.00    +0.000 A 
ATOM     15  C   UNL     1      -2.027  -9.857  -3.169  0.00  0.00    +0.001 A 
ATOM     16  C   UNL     1      -1.436  -9.977  -1.926  0.00  0.00    +0.020 A 
ATOM     17  C   UNL     1      -2.127  -9.592  -0.791  0.00  0.00    +0.045 A 
ATOM     18 CL   UNL     1      -1.382  -9.738   0.770  0.00  0.00    -0.083 Cl
ENDBRANCH   1  12
BRANCH   1  19
ATOM     19  C   UNL     1      -4.538  -7.203   0.238  0.00  0.00    +0.117 C 
BRANCH  19  22
ATOM     20  C   UNL     1      -3.396  -5.052   0.164  0.00  0.00    +0.244 C 
ATOM     21  O   UNL     1      -4.481  -4.511   0.088  0.00  0.00    -0.270 OA
ATOM     22  N   UNL     1      -3.316  -6.395   0.242  0.00  0.00    -0.310 N 
ATOM     23  H   UNL     1      -2.450  -6.827   0.302  0.00  0.00    +0.149 HD
BRANCH  20  28
ATOM     24  C   UNL     1      -1.081  -2.089   0.091  0.00  0.00    +0.034 A 
ATOM     25  C   UNL     1       0.157  -2.715   0.178  0.00  0.00    +0.023 A 
ATOM     26  C   UNL     1       0.236  -4.092   0.259  0.00  0.00    +0.003 A 
ATOM     27  C   UNL     1      -0.914  -4.856   0.255  0.00  0.00    +0.013 A 
ATOM     28  C   UNL     1      -2.162  -4.237   0.168  0.00  0.00    +0.038 A 
ATOM     29  C   UNL     1      -2.242  -2.846   0.092  0.00  0.00    +0.036 A 
BRANCH  24  33
ATOM     30  C   UNL     1      -2.194   1.470   0.609  0.00  0.00    +0.109 C 
ATOM     31  C   UNL     1      -2.169  -0.037   0.608  0.00  0.00    +0.214 C 
ATOM     32  O   UNL     1      -3.061  -0.658   1.146  0.00  0.00    -0.276 OA
ATOM     33  N   UNL     1      -1.156  -0.694   0.009  0.00  0.00    -0.286 N 
ATOM     34  H   UNL     1      -0.478  -0.200  -0.478  0.00  0.00    +0.155 HD
ENDBRANCH  24  33
ENDBRANCH  20  28
ENDBRANCH  19  22
ENDBRANCH   1  19
TORSDOF 6
