REMARK  Name = ZINC36660542
REMARK  9 active torsions:
REMARK  status: ('A' for Active; 'I' for Inactive)
REMARK    1  A    between atoms: C_1  and  C_2
REMARK    2  A    between atoms: C_2  and  N_3
REMARK    3  A    between atoms: N_6  and  C_9
REMARK    4  A    between atoms: C_12  and  N_16
REMARK    5  A    between atoms: C_14  and  C_15
REMARK    6  A    between atoms: C_17  and  C_19
REMARK    7  A    between atoms: C_19  and  C_20
REMARK    8  A    between atoms: C_23  and  C_25
REMARK    9  A    between atoms: C_28  and  C_31
REMARK                            x       y       z     vdW  Elec       q    Type
REMARK                         _______ _______ _______ _____ _____    ______ ____
ROOT
ATOM      1  N   UNL     1      -6.654  -5.418  -4.010  0.00  0.00    -0.285 N 
ATOM      2  C   UNL     1      -6.058  -6.376  -4.747  0.00  0.00    +0.223 C 
ATOM      3  O   UNL     1      -4.861  -6.550  -4.661  0.00  0.00    -0.275 OA
ATOM      4  H   UNL     1      -7.620  -5.329  -4.020  0.00  0.00    +0.155 HD
ENDROOT
BRANCH   1   8
ATOM      5  C   UNL     1      -4.346  -2.839  -1.683  0.00  0.00    +0.033 A 
ATOM      6  C   UNL     1      -3.851  -3.315  -2.890  0.00  0.00    +0.025 A 
ATOM      7  C   UNL     1      -4.615  -4.169  -3.660  0.00  0.00    +0.025 A 
ATOM      8  C   UNL     1      -5.878  -4.551  -3.228  0.00  0.00    +0.034 A 
ATOM      9  C   UNL     1      -6.373  -4.075  -2.021  0.00  0.00    +0.028 A 
ATOM     10  C   UNL     1      -5.607  -3.226  -1.248  0.00  0.00    -0.028 A 
ATOM     11  C   UNL     1      -6.141  -2.714   0.065  0.00  0.00    +0.046 C 
BRANCH   5  15
ATOM     12  N   UNL     1      -1.423  -0.383  -0.087  0.00  0.00    +0.382 N 
ATOM     13  C   UNL     1      -2.244   0.044  -1.228  0.00  0.00    -0.060 C 
ATOM     14  C   UNL     1      -3.662  -0.515  -1.073  0.00  0.00    +0.086 C 
ATOM     15  N   UNL     1      -3.572  -1.974  -0.902  0.00  0.00    -0.333 N 
ATOM     16  C   UNL     1      -2.645  -2.496   0.114  0.00  0.00    +0.086 C 
ATOM     17  C   UNL     1      -1.275  -1.843  -0.097  0.00  0.00    -0.060 C 
ATOM     18  H   UNL     1      -1.870  -0.097   0.771  0.00  0.00    -0.082 HD
BRANCH  12  20
ATOM     19  C   UNL     1      -0.239   1.761  -0.044  0.00  0.00    -0.017 C 
ATOM     20  C   UNL     1      -0.098   0.243  -0.179  0.00  0.00    -0.082 C 
ENDBRANCH  12  20
ENDBRANCH   5  15
ENDBRANCH   1   8
BRANCH   2  21
ATOM     21  C   UNL     1      -6.879  -7.230  -5.679  0.00  0.00    +0.152 C 
BRANCH  21  22
ATOM     22  C   UNL     1      -5.980  -8.216  -6.380  0.00  0.00    +0.058 A 
ATOM     23  C   UNL     1      -6.252  -9.546  -6.323  0.00  0.00    +0.071 A 
ATOM     24  S   UNL     1      -4.903 -10.202  -7.297  0.00  0.00    -0.075 S 
ATOM     25  C   UNL     1      -4.125  -8.636  -7.673  0.00  0.00    +0.109 A 
ATOM     26  N   UNL     1      -4.936  -7.790  -7.051  0.00  0.00    -0.243 NA
BRANCH  25  27
ATOM     27  C   UNL     1      -2.909  -8.359  -8.467  0.00  0.00    +0.007 A 
ATOM     28  C   UNL     1      -2.466  -7.047  -8.634  0.00  0.00    +0.011 A 
ATOM     29  C   UNL     1      -1.330  -6.795  -9.377  0.00  0.00    +0.013 A 
ATOM     30  C   UNL     1      -0.633  -7.840  -9.955  0.00  0.00    +0.055 A 
ATOM     31  C   UNL     1      -1.068  -9.144  -9.794  0.00  0.00    +0.013 A 
ATOM     32  C   UNL     1      -2.198  -9.409  -9.048  0.00  0.00    +0.011 A 
BRANCH  30  33
ATOM     33  C   UNL     1       0.606  -7.558 -10.765  0.00  0.00    +0.417 C 
ATOM     34  F   UNL     1       1.726  -7.581  -9.928  0.00  0.00    -0.166 F 
ATOM     35  F   UNL     1       0.746  -8.533 -11.758  0.00  0.00    -0.166 F 
ATOM     36  F   UNL     1       0.496  -6.297 -11.362  0.00  0.00    -0.166 F 
ENDBRANCH  30  33
ENDBRANCH  25  27
ENDBRANCH  21  22
ENDBRANCH   2  21
TORSDOF 7
