REMARK  Name = ZINC00908127
REMARK  4 active torsions:
REMARK  status: ('A' for Active; 'I' for Inactive)
REMARK    1  A    between atoms: C_1  and  C_2
REMARK    2  A    between atoms: C_2  and  C_27
REMARK    3  A    between atoms: C_6  and  C_16
REMARK    4  A    between atoms: C_11  and  O_15
REMARK                            x       y       z     vdW  Elec       q    Type
REMARK                         _______ _______ _______ _____ _____    ______ ____
ROOT
ATOM      1  C   UNL     1       2.276   0.798   0.697  0.00  0.00    +0.031 C 
ATOM      2  C   UNL     1       1.256   1.700  -0.001  0.00  0.00    +0.033 C 
ATOM      3  C   UNL     1       1.161   3.037   0.742  0.00  0.00    +0.094 C 
ATOM      4  C   UNL     1       0.050   3.874   0.103  0.00  0.00    +0.180 C 
ATOM      5  C   UNL     1      -0.142   5.164   0.908  0.00  0.00    +0.081 C 
ATOM      6  C   UNL     1       1.205   5.887   0.987  0.00  0.00    +0.058 C 
ATOM      7  C   UNL     1       1.822   5.961  -0.387  0.00  0.00    +0.002 A 
ATOM      8  C   UNL     1       2.830   6.883  -0.615  0.00  0.00    +0.011 A 
ATOM      9  C   UNL     1       3.421   6.979  -1.859  0.00  0.00    +0.046 A 
ATOM     10  C   UNL     1       3.004   6.148  -2.889  0.00  0.00    +0.120 A 
ATOM     11  C   UNL     1       1.996   5.225  -2.665  0.00  0.00    +0.091 A 
ATOM     12  C   UNL     1       1.401   5.131  -1.412  0.00  0.00    +0.131 A 
ATOM     13  O   UNL     1       0.411   4.218  -1.233  0.00  0.00    -0.468 OA
ATOM     14  N   UNL     1      -1.196   3.107   0.101  0.00  0.00    -0.289 N 
ATOM     15  C   UNL     1      -1.190   1.767   0.044  0.00  0.00    +0.133 C 
ATOM     16  S   UNL     1      -2.688   0.938   0.021  0.00  0.00    -0.019 S 
ATOM     17  N   UNL     1      -0.057   1.050   0.008  0.00  0.00    -0.321 N 
ATOM     18  C   UNL     1       1.694   1.946  -1.446  0.00  0.00    +0.031 C 
ATOM     19  H   UNL     1      -2.043   3.578   0.139  0.00  0.00    +0.151 HD
ATOM     20  H   UNL     1      -0.107   0.082  -0.017  0.00  0.00    +0.148 HD
ENDROOT
BRANCH   6  21
ATOM     21  C   UNL     1       0.996   7.282   1.518  0.00  0.00    -0.040 A 
ATOM     22  C   UNL     1       0.185   8.168   0.833  0.00  0.00    +0.005 A 
ATOM     23  C   UNL     1      -0.012   9.445   1.323  0.00  0.00    +0.020 A 
ATOM     24  C   UNL     1       0.611   9.841   2.493  0.00  0.00    +0.041 A 
ATOM     25  C   UNL     1       1.427   8.955   3.175  0.00  0.00    +0.020 A 
ATOM     26  C   UNL     1       1.618   7.676   2.688  0.00  0.00    +0.005 A 
ATOM     27 CL   UNL     1       0.369  11.447   3.105  0.00  0.00    -0.084 Cl
ENDBRANCH   6  21
BRANCH  10  28
ATOM     28  O   UNL     1       3.583   6.239  -4.115  0.00  0.00    -0.507 OA
ATOM     29  H   UNL     1       3.148   6.866  -4.710  0.00  0.00    +0.292 HD
ENDBRANCH  10  28
TORSDOF 2
