REMARK  Name = ZINC13036244
REMARK  1 active torsions:
REMARK  status: ('A' for Active; 'I' for Inactive)
REMARK    1  A    between atoms: C_20  and  C_23
REMARK                            x       y       z     vdW  Elec       q    Type
REMARK                         _______ _______ _______ _____ _____    ______ ____
ROOT
ATOM      1  C   UNL     1      -0.017   1.379   0.010  0.00  0.00    +0.001 A 
ATOM      2  C   UNL     1       1.173   2.083   0.002  0.00  0.00    +0.004 A 
ATOM      3  C   UNL     1       2.378   1.411  -0.020  0.00  0.00    +0.046 A 
ATOM      4  C   UNL     1       2.406   0.020  -0.031  0.00  0.00    +0.128 A 
ATOM      5  C   UNL     1       1.204  -0.680  -0.011  0.00  0.00    +0.014 A 
ATOM      6  C   UNL     1       0.002  -0.004   0.002  0.00  0.00    +0.009 A 
ATOM      7  C   UNL     1       1.248  -2.178   0.014  0.00  0.00    +0.119 C 
ATOM      8  C   UNL     1       0.249  -2.852  -0.950  0.00  0.00    +0.078 C 
ATOM      9  C   UNL     1       1.055  -4.092  -1.349  0.00  0.00    +0.032 C 
ATOM     10  C   UNL     1       0.542  -5.275  -1.888  0.00  0.00    +0.040 C 
ATOM     11  C   UNL     1      -0.843  -5.420  -2.123  0.00  0.00    +0.013 C 
ATOM     12  C   UNL     1      -1.323  -6.578  -2.648  0.00  0.00    +0.001 C 
ATOM     13  C   UNL     1      -0.478  -7.638  -2.964  0.00  0.00    +0.004 C 
ATOM     14  C   UNL     1       0.866  -7.563  -2.762  0.00  0.00    +0.051 C 
ATOM     15  C   UNL     1       1.431  -6.393  -2.228  0.00  0.00    +0.188 C 
ATOM     16  O   UNL     1       2.638  -6.309  -2.046  0.00  0.00    -0.287 OA
ATOM     17  N   UNL     1       2.361  -3.829  -1.083  0.00  0.00    -0.277 N 
ATOM     18  N   UNL     1       2.513  -2.561  -0.673  0.00  0.00    -0.179 NA
ATOM     19  C   UNL     1       3.655  -2.041   0.035  0.00  0.00    +0.294 C 
ATOM     20  O   UNL     1       3.611  -0.608  -0.072  0.00  0.00    -0.468 OA
ATOM     21  H   UNL     1       3.084  -4.469  -1.167  0.00  0.00    +0.166 HD
ENDROOT
BRANCH  19  22
ATOM     22  C   UNL     1       4.924  -2.565  -0.586  0.00  0.00    +0.013 A 
ATOM     23  C   UNL     1       4.962  -2.856  -1.937  0.00  0.00    +0.012 A 
ATOM     24  C   UNL     1       6.125  -3.336  -2.511  0.00  0.00    +0.050 A 
ATOM     25  C   UNL     1       7.255  -3.527  -1.733  0.00  0.00    +0.166 A 
ATOM     26  C   UNL     1       7.216  -3.234  -0.372  0.00  0.00    +0.167 A 
ATOM     27  C   UNL     1       6.050  -2.748   0.196  0.00  0.00    +0.058 A 
ATOM     28  O   UNL     1       8.441  -3.505   0.167  0.00  0.00    -0.453 OA
ATOM     29  C   UNL     1       9.105  -4.349  -0.791  0.00  0.00    +0.466 C 
ATOM     30  O   UNL     1       8.504  -3.981  -2.047  0.00  0.00    -0.453 OA
ENDBRANCH  19  22
TORSDOF 1
