REMARK  Name = ZINC20780015
REMARK  7 active torsions:
REMARK  status: ('A' for Active; 'I' for Inactive)
REMARK    1  A    between atoms: C_8  and  C_10
REMARK    2  A    between atoms: C_10  and  N_11
REMARK    3  A    between atoms: N_11  and  C_12
REMARK    4  A    between atoms: N_15  and  C_18
REMARK    5  A    between atoms: C_21  and  C_24
REMARK    6  A    between atoms: N_26  and  C_27
REMARK    7  A    between atoms: C_27  and  C_28
REMARK                            x       y       z     vdW  Elec       q    Type
REMARK                         _______ _______ _______ _____ _____    ______ ____
ROOT
ATOM      1  C   UNL     1      -3.890   4.991   8.943  0.00  0.00    -0.068 C 
ATOM      2  C   UNL     1      -4.807   4.212   7.997  0.00  0.00    +0.003 C 
ATOM      3  C   UNL     1      -4.037   3.858   6.723  0.00  0.00    +0.103 C 
ATOM      4  N   UNL     1      -2.860   3.051   7.069  0.00  0.00    -0.330 N 
ATOM      5  C   UNL     1      -1.941   3.796   7.939  0.00  0.00    +0.103 C 
ATOM      6  C   UNL     1      -2.650   4.147   9.249  0.00  0.00    +0.003 C 
ENDROOT
BRANCH   4   7
ATOM      7  C   UNL     1      -2.209   2.602   5.925  0.00  0.00    +0.030 A 
ATOM      8  C   UNL     1      -1.065   1.817   6.039  0.00  0.00    +0.024 A 
ATOM      9  C   UNL     1      -0.419   1.371   4.909  0.00  0.00    +0.015 A 
ATOM     10  C   UNL     1      -0.912   1.708   3.645  0.00  0.00    +0.037 A 
ATOM     11  C   UNL     1      -2.058   2.502   3.534  0.00  0.00    +0.015 A 
ATOM     12  C   UNL     1      -2.703   2.939   4.668  0.00  0.00    +0.024 A 
BRANCH  10  13
ATOM     13  C   UNL     1      -0.222   1.232   2.431  0.00  0.00    +0.244 C 
ATOM     14  O   UNL     1       0.777   0.546   2.530  0.00  0.00    -0.270 OA
ATOM     15  N   UNL     1      -0.698   1.558   1.213  0.00  0.00    -0.307 N 
ATOM     16  H   UNL     1      -1.602   2.179   1.124  0.00  0.00    +0.149 HD
BRANCH  15  17
ATOM     17  C   UNL     1      -0.013   1.086   0.008  0.00  0.00    +0.141 C 
BRANCH  17  18
ATOM     18  C   UNL     1      -0.742   1.585  -1.213  0.00  0.00    -0.012 A 
ATOM     19  C   UNL     1      -1.754   0.829  -1.784  0.00  0.00    +0.008 A 
ATOM     20  C   UNL     1      -2.400   1.330  -2.904  0.00  0.00    +0.020 A 
ATOM     21  C   UNL     1      -2.010   2.553  -3.416  0.00  0.00    +0.111 A 
ATOM     22  N   UNL     1      -1.039   3.242  -2.849  0.00  0.00    -0.263 NA
ATOM     23  C   UNL     1      -0.405   2.799  -1.781  0.00  0.00    +0.115 A 
ENDBRANCH  17  18
ENDBRANCH  15  17
ENDBRANCH  10  13
ENDBRANCH   4   7
BRANCH   1  24
ATOM     24  N   UNL     1      -4.607   5.282  10.192  0.00  0.00    +0.385 N 
ATOM     25  H   UNL     1      -4.517   4.414  10.861  0.00  0.00    -0.085 HD
ATOM     26  H   UNL     1      -5.667   5.457   9.958  0.00  0.00    -0.085 HD
BRANCH  24  27
ATOM     27  C   UNL     1      -4.050   6.470  10.854  0.00  0.00    -0.018 C 
BRANCH  27  35
ATOM     28  C   UNL     1      -6.065   6.624  16.685  0.00  0.00    +0.002 A 
ATOM     29  C   UNL     1      -7.122   7.467  16.371  0.00  0.00    +0.001 A 
ATOM     30  C   UNL     1      -7.292   7.886  15.065  0.00  0.00    +0.017 A 
ATOM     31  C   UNL     1      -6.410   7.460  14.101  0.00  0.00    +0.039 A 
ATOM     32  C   UNL     1      -5.325   6.602  14.392  0.00  0.00    +0.078 A 
ATOM     33  C   UNL     1      -5.187   6.197  15.738  0.00  0.00    +0.029 A 
ATOM     34  N   UNL     1      -4.564   6.281  13.325  0.00  0.00    -0.246 NA
ATOM     35  C   UNL     1      -4.808   6.736  12.128  0.00  0.00    +0.063 A 
ATOM     36  S   UNL     1      -6.222   7.718  12.355  0.00  0.00    -0.074 S 
ENDBRANCH  27  35
ENDBRANCH  24  27
ENDBRANCH   1  24
TORSDOF 7
