REMARK  Name = ZINC13447888
REMARK  12 active torsions:
REMARK  status: ('A' for Active; 'I' for Inactive)
REMARK    1  A    between atoms: C_1  and  C_2
REMARK    2  A    between atoms: C_2  and  O_3
REMARK    3  A    between atoms: O_3  and  C_4
REMARK    4  A    between atoms: C_9  and  N_10
REMARK    5  A    between atoms: C_11  and  C_13
REMARK    6  A    between atoms: C_13  and  C_15
REMARK    7  A    between atoms: C_13  and  S_21
REMARK    8  A    between atoms: S_21  and  C_22
REMARK    9  A    between atoms: C_26  and  C_30
REMARK   10  A    between atoms: C_27  and  C_29
REMARK   11  A    between atoms: C_30  and  C_31
REMARK   12  A    between atoms: C_31  and  C_32
REMARK                            x       y       z     vdW  Elec       q    Type
REMARK                         _______ _______ _______ _____ _____    ______ ____
ROOT
ATOM      1  C   UNL     1       3.061  -1.099   5.580  0.00  0.00    +0.170 C 
ENDROOT
BRANCH   1   2
ATOM      2  C   UNL     1       1.915  -0.732   6.487  0.00  0.00    -0.025 A 
ATOM      3  C   UNL     1       1.234  -1.720   7.174  0.00  0.00    +0.005 A 
ATOM      4  C   UNL     1       0.182  -1.383   8.006  0.00  0.00    +0.000 A 
ATOM      5  C   UNL     1      -0.188  -0.059   8.151  0.00  0.00    +0.000 A 
ATOM      6  C   UNL     1       0.494   0.929   7.465  0.00  0.00    +0.000 A 
ATOM      7  C   UNL     1       1.548   0.592   6.636  0.00  0.00    +0.005 A 
ENDBRANCH   1   2
BRANCH   1   9
ATOM      8  N   UNL     1       2.017  -1.504   3.375  0.00  0.00    -0.281 N 
ATOM      9  C   UNL     1       2.567  -2.018   4.493  0.00  0.00    +0.235 C 
ATOM     10  O   UNL     1       2.665  -3.220   4.623  0.00  0.00    -0.274 OA
ATOM     11  H   UNL     1       2.012  -0.544   3.234  0.00  0.00    +0.155 HD
BRANCH   8  17
ATOM     12  C   UNL     1       1.353  -1.944   1.089  0.00  0.00    +0.142 A 
ATOM     13  C   UNL     1       0.799  -2.793   0.144  0.00  0.00    +0.047 A 
ATOM     14  C   UNL     1       0.342  -4.042   0.520  0.00  0.00    +0.004 A 
ATOM     15  C   UNL     1       0.437  -4.449   1.838  0.00  0.00    +0.002 A 
ATOM     16  C   UNL     1       0.988  -3.609   2.787  0.00  0.00    +0.027 A 
ATOM     17  C   UNL     1       1.453  -2.356   2.416  0.00  0.00    +0.076 A 
BRANCH  12  18
ATOM     18  O   UNL     1       1.802  -0.715   0.721  0.00  0.00    -0.490 OA
BRANCH  18  20
ATOM     19  C   UNL     1       2.223   1.048  -0.878  0.00  0.00    +0.048 C 
ATOM     20  C   UNL     1       1.667  -0.360  -0.657  0.00  0.00    +0.226 C 
ENDBRANCH  18  20
ENDBRANCH  12  18
ENDBRANCH   8  17
ENDBRANCH   1   9
BRANCH   1  21
ATOM     21  S   UNL     1       4.348  -1.940   6.543  0.00  0.00    -0.068 S 
BRANCH  21  22
ATOM     22  C   UNL     1       4.920  -0.704   7.662  0.00  0.00    +0.193 A 
ATOM     23  N   UNL     1       4.373   0.503   7.626  0.00  0.00    -0.183 NA
ATOM     24  C   UNL     1       4.782   1.455   8.455  0.00  0.00    +0.277 A 
ATOM     25  O   UNL     1       4.220   2.688   8.415  0.00  0.00    -0.265 OA
ATOM     26  C   UNL     1       5.797   1.170   9.367  0.00  0.00    +0.040 A 
ATOM     27  C   UNL     1       6.341  -0.101   9.373  0.00  0.00    +0.049 A 
ATOM     28  N   UNL     1       5.882  -1.006   8.522  0.00  0.00    -0.227 NA
ATOM     29  C   UNL     1       7.440  -0.454  10.342  0.00  0.00    +0.066 C 
BRANCH  26  30
ATOM     30  C   UNL     1       6.290   2.223  10.326  0.00  0.00    +0.054 C 
BRANCH  30  31
ATOM     31  C   UNL     1       5.470   2.162  11.616  0.00  0.00    +0.130 C 
BRANCH  31  32
ATOM     32  C   UNL     1       5.963   3.216  12.575  0.00  0.00    +0.356 C 
ATOM     33  O   UNL     1       6.884   3.947  12.255  0.00  0.00    -0.246 OA
ATOM     34  O   UNL     1       5.440   3.336  13.669  0.00  0.00    -0.246 OA
ENDBRANCH  31  32
ENDBRANCH  30  31
ENDBRANCH  26  30
ENDBRANCH  21  22
ENDBRANCH   1  21
TORSDOF 10
