REMARK  Name = ZINC22198459
REMARK  9 active torsions:
REMARK  status: ('A' for Active; 'I' for Inactive)
REMARK    1  A    between atoms: C_1  and  N_2
REMARK    2  A    between atoms: N_2  and  C_3
REMARK    3  A    between atoms: N_2  and  C_18
REMARK    4  A    between atoms: C_3  and  C_4
REMARK    5  A    between atoms: C_4  and  C_5
REMARK    6  A    between atoms: N_7  and  C_8
REMARK    7  A    between atoms: C_11  and  S_14
REMARK    8  A    between atoms: S_14  and  N_17
REMARK    9  A    between atoms: C_18  and  C_19
REMARK                            x       y       z     vdW  Elec       q    Type
REMARK                         _______ _______ _______ _____ _____    ______ ____
ROOT
ATOM      1  C   UNL     1       1.124   1.692   0.005  0.00  0.00    +0.215 C 
ATOM      2  O   UNL     1       1.071   2.901  -0.076  0.00  0.00    -0.276 OA
ATOM      3  N   UNL     1      -0.011   0.966   0.007  0.00  0.00    -0.286 N 
ATOM      4  H   UNL     1       0.039  -0.133   0.009  0.00  0.00    +0.155 HD
ENDROOT
BRANCH   3   5
ATOM      5  C   UNL     1      -1.253   1.610   0.007  0.00  0.00    +0.033 A 
ATOM      6  C   UNL     1      -2.325   1.055   0.695  0.00  0.00    +0.025 A 
ATOM      7  C   UNL     1      -3.548   1.696   0.698  0.00  0.00    +0.030 A 
ATOM      8  C   UNL     1      -3.710   2.883   0.008  0.00  0.00    +0.105 A 
ATOM      9  C   UNL     1      -2.647   3.435  -0.683  0.00  0.00    +0.030 A 
ATOM     10  C   UNL     1      -1.419   2.802  -0.685  0.00  0.00    +0.025 A 
BRANCH   8  11
ATOM     11  S   UNL     1      -5.274   3.695   0.008  0.00  0.00    +0.056 S 
ATOM     12  O   UNL     1      -5.957   3.260   1.176  0.00  0.00    -0.153 OA
ATOM     13  O   UNL     1      -5.020   5.067  -0.259  0.00  0.00    -0.153 OA
BRANCH  11  14
ATOM     14  N   UNL     1      -6.128   3.111  -1.285  0.00  0.00    -0.204 NA
ATOM     15  H   UNL     1      -7.116   3.595  -1.320  0.00  0.00    +0.144 HD
ATOM     16  H   UNL     1      -6.256   2.023  -1.179  0.00  0.00    +0.144 HD
ENDBRANCH  11  14
ENDBRANCH   8  11
ENDBRANCH   3   5
BRANCH   1  17
ATOM     17  C   UNL     1       2.460   1.002   0.104  0.00  0.00    +0.077 C 
BRANCH  17  18
ATOM     18  C   UNL     1       3.577   2.047   0.081  0.00  0.00    -0.070 C 
BRANCH  18  20
ATOM     19  C   UNL     1       5.140   0.557  -1.016  0.00  0.00    -0.096 C 
ATOM     20  N   UNL     1       4.880   1.374   0.177  0.00  0.00    +0.381 N 
ATOM     21  H   UNL     1       4.849   0.702   1.047  0.00  0.00    -0.082 HD
BRANCH  20  22
ATOM     22  C   UNL     1       5.959   2.346   0.396  0.00  0.00    -0.042 C 
BRANCH  22  23
ATOM     23  C   UNL     1       7.233   1.615   0.733  0.00  0.00    -0.044 A 
ATOM     24  C   UNL     1       8.236   1.502  -0.211  0.00  0.00    +0.003 A 
ATOM     25  C   UNL     1       9.405   0.831   0.097  0.00  0.00    +0.002 A 
ATOM     26  C   UNL     1       9.571   0.271   1.350  0.00  0.00    +0.021 A 
ATOM     27  C   UNL     1       8.569   0.383   2.296  0.00  0.00    +0.059 A 
ATOM     28  C   UNL     1       7.400   1.061   1.989  0.00  0.00    +0.061 A 
ATOM     29 CL   UNL     1       6.144   1.208   3.178  0.00  0.00    -0.082 Cl
ATOM     30 CL   UNL     1       8.777  -0.320   3.870  0.00  0.00    -0.082 Cl
ENDBRANCH  22  23
ENDBRANCH  20  22
ENDBRANCH  18  20
ENDBRANCH  17  18
ENDBRANCH   1  17
TORSDOF 8
