REMARK  Name = ZINC21253963
REMARK  10 active torsions:
REMARK  status: ('A' for Active; 'I' for Inactive)
REMARK    1  A    between atoms: C_1  and  C_2
REMARK    2  A    between atoms: C_4  and  S_25
REMARK    3  A    between atoms: C_6  and  N_9
REMARK    4  A    between atoms: C_7  and  C_8
REMARK    5  A    between atoms: C_10  and  C_12
REMARK    6  A    between atoms: C_12  and  S_13
REMARK    7  A    between atoms: S_13  and  C_14
REMARK    8  A    between atoms: C_16  and  C_24
REMARK    9  A    between atoms: C_17  and  C_23
REMARK   10  A    between atoms: S_25  and  N_28
REMARK                            x       y       z     vdW  Elec       q    Type
REMARK                         _______ _______ _______ _____ _____    ______ ____
ROOT
ATOM      1  N   UNL     1       1.307  -2.994   2.412  0.00  0.00    -0.285 N 
ATOM      2  C   UNL     1       0.969  -4.299   2.401  0.00  0.00    +0.227 C 
ATOM      3  O   UNL     1       0.808  -4.875   1.346  0.00  0.00    -0.275 OA
ATOM      4  H   UNL     1       1.518  -2.555   3.251  0.00  0.00    +0.155 HD
ENDROOT
BRANCH   1  10
ATOM      5  C   UNL     1       2.905   0.903  -0.123  0.00  0.00    +0.044 C 
ATOM      6  C   UNL     1       2.120  -0.381  -0.043  0.00  0.00    -0.044 A 
ATOM      7  C   UNL     1       1.445  -0.848  -1.156  0.00  0.00    +0.032 A 
ATOM      8  C   UNL     1       0.725  -2.026  -1.087  0.00  0.00    +0.107 A 
ATOM      9  C   UNL     1       0.677  -2.740   0.094  0.00  0.00    +0.052 A 
ATOM     10  C   UNL     1       1.353  -2.274   1.214  0.00  0.00    +0.038 A 
ATOM     11  C   UNL     1       2.081  -1.093   1.139  0.00  0.00    -0.026 A 
ATOM     12  C   UNL     1       2.822  -0.586   2.350  0.00  0.00    +0.046 C 
BRANCH   8  13
ATOM     13  S   UNL     1      -0.134  -2.616  -2.508  0.00  0.00    +0.056 S 
ATOM     14  O   UNL     1      -1.179  -3.454  -2.032  0.00  0.00    -0.153 OA
ATOM     15  O   UNL     1      -0.380  -1.486  -3.333  0.00  0.00    -0.153 OA
BRANCH  13  16
ATOM     16  N   UNL     1       0.912  -3.592  -3.342  0.00  0.00    -0.204 NA
ATOM     17  H   UNL     1       1.811  -3.737  -3.008  0.00  0.00    +0.144 HD
ATOM     18  H   UNL     1       0.625  -4.020  -4.164  0.00  0.00    +0.144 HD
ENDBRANCH  13  16
ENDBRANCH   8  13
ENDBRANCH   1  10
BRANCH   2  19
ATOM     19  C   UNL     1       0.791  -5.042   3.700  0.00  0.00    +0.171 C 
BRANCH  19  20
ATOM     20  S   UNL     1       0.341  -6.765   3.354  0.00  0.00    -0.096 S 
BRANCH  20  21
ATOM     21  C   UNL     1       0.171  -7.490   4.951  0.00  0.00    +0.109 A 
ATOM     22  C   UNL     1      -0.177  -8.863   5.085  0.00  0.00    +0.043 A 
ATOM     23  C   UNL     1      -0.439  -9.860   4.061  0.00  0.00    -0.029 A 
ATOM     24  C   UNL     1      -0.753 -11.110   4.430  0.00  0.00    -0.008 A 
ATOM     25  S   UNL     1      -0.720 -11.040   6.211  0.00  0.00    -0.074 S 
ATOM     26  C   UNL     1      -0.285  -9.333   6.412  0.00  0.00    +0.113 A 
ATOM     27  N   UNL     1      -0.074  -8.537   7.442  0.00  0.00    -0.228 NA
ATOM     28  C   UNL     1       0.245  -7.271   7.254  0.00  0.00    +0.223 A 
ATOM     29  N   UNL     1       0.370  -6.765   6.041  0.00  0.00    -0.229 NA
ATOM     30  C   UNL     1      -1.062 -12.293   3.549  0.00  0.00    +0.052 C 
ATOM     31  C   UNL     1      -0.359  -9.492   2.602  0.00  0.00    +0.045 C 
ENDBRANCH  20  21
ENDBRANCH  19  20
ENDBRANCH   2  19
TORSDOF 6
