REMARK  Name = ZINC34831261
REMARK  10 active torsions:
REMARK  status: ('A' for Active; 'I' for Inactive)
REMARK    1  A    between atoms: C_1  and  C_2
REMARK    2  A    between atoms: C_2  and  C_3
REMARK    3  A    between atoms: C_3  and  N_4
REMARK    4  A    between atoms: N_4  and  C_5
REMARK    5  A    between atoms: C_5  and  C_6
REMARK    6  A    between atoms: C_7  and  C_25
REMARK    7  A    between atoms: N_9  and  C_18
REMARK    8  A    between atoms: C_10  and  N_11
REMARK    9  A    between atoms: N_14  and  C_17
REMARK   10  A    between atoms: C_26  and  C_28
REMARK                            x       y       z     vdW  Elec       q    Type
REMARK                         _______ _______ _______ _____ _____    ______ ____
ROOT
ATOM      1  C   UNL     1       0.248  -3.926  -3.597  0.00  0.00    +0.032 A 
ATOM      2  C   UNL     1       0.506  -3.239  -4.787  0.00  0.00    +0.067 A 
ATOM      3  N   UNL     1       1.057  -4.070  -5.635  0.00  0.00    -0.170 NA
ATOM      4  N   UNL     1       1.171  -5.322  -5.017  0.00  0.00    -0.218 N 
ATOM      5  C   UNL     1       0.671  -5.210  -3.757  0.00  0.00    +0.130 A 
ATOM      6  C   UNL     1       0.201  -1.786  -5.049  0.00  0.00    +0.068 C 
ENDROOT
BRANCH   5   7
ATOM      7  N   UNL     1       0.601  -6.224  -2.806  0.00  0.00    -0.318 N 
ATOM      8  C   UNL     1      -0.539  -7.153  -2.773  0.00  0.00    +0.088 C 
ATOM      9  C   UNL     1       0.002  -8.586  -2.733  0.00  0.00    -0.060 C 
ATOM     10  N   UNL     1       0.931  -8.726  -1.605  0.00  0.00    +0.380 N 
ATOM     11  C   UNL     1       2.103  -7.867  -1.812  0.00  0.00    -0.060 C 
ATOM     12  C   UNL     1       1.669  -6.402  -1.809  0.00  0.00    +0.088 C 
ATOM     13  C   UNL     1       1.365 -10.126  -1.501  0.00  0.00    -0.096 C 
ATOM     14  H   UNL     1       0.465  -8.457  -0.751  0.00  0.00    -0.082 HD
ENDBRANCH   5   7
BRANCH   4  15
ATOM     15  C   UNL     1       1.711  -6.480  -5.593  0.00  0.00    +0.070 A 
ATOM     16  C   UNL     1       2.654  -7.227  -4.899  0.00  0.00    +0.028 A 
ATOM     17  C   UNL     1       3.184  -8.369  -5.467  0.00  0.00    +0.005 A 
ATOM     18  C   UNL     1       2.777  -8.770  -6.726  0.00  0.00    +0.038 A 
ATOM     19  C   UNL     1       1.837  -8.027  -7.422  0.00  0.00    +0.125 A 
ATOM     20  C   UNL     1       1.299  -6.886  -6.854  0.00  0.00    +0.066 A 
ATOM     21  F   UNL     1       1.441  -8.421  -8.652  0.00  0.00    -0.205 F 
ENDBRANCH   4  15
BRANCH   1  22
ATOM     22  C   UNL     1      -0.381  -3.346  -2.356  0.00  0.00    +0.148 C 
BRANCH  22  23
ATOM     23  N   UNL     1       0.671  -2.934  -1.423  0.00  0.00    -0.293 N 
ATOM     24  C   UNL     1       1.003  -3.731  -0.388  0.00  0.00    +0.247 C 
ATOM     25  O   UNL     1       0.394  -4.765  -0.197  0.00  0.00    -0.270 OA
BRANCH  24  26
ATOM     26  C   UNL     1       2.108  -3.346   0.516  0.00  0.00    +0.038 A 
ATOM     27  C   UNL     1       2.331  -2.001   0.817  0.00  0.00    +0.013 A 
ATOM     28  C   UNL     1       3.364  -1.649   1.661  0.00  0.00    +0.002 A 
ATOM     29  C   UNL     1       4.179  -2.624   2.208  0.00  0.00    +0.015 A 
ATOM     30  C   UNL     1       3.964  -3.959   1.913  0.00  0.00    +0.019 A 
ATOM     31  C   UNL     1       2.929  -4.326   1.075  0.00  0.00    +0.028 A 
ATOM     32 BR   UNL     1       5.084  -5.284   2.665  0.00  0.00    -0.050 Br
ENDBRANCH  24  26
BRANCH  23  33
ATOM     33  C   UNL     1       1.361  -1.656  -1.615  0.00  0.00    +0.108 C 
BRANCH  33  35
ATOM     34  C   UNL     1       1.179   0.821  -1.347  0.00  0.00    +0.005 C 
ATOM     35  C   UNL     1       0.458  -0.513  -1.147  0.00  0.00    +0.016 C 
ENDBRANCH  33  35
ENDBRANCH  23  33
ENDBRANCH  22  23
ENDBRANCH   1  22
TORSDOF 7
