REMARK  Name = ZINC09328768
REMARK  7 active torsions:
REMARK  status: ('A' for Active; 'I' for Inactive)
REMARK    1  A    between atoms: C_1  and  C_2
REMARK    2  A    between atoms: C_4  and  O_26
REMARK    3  A    between atoms: C_6  and  S_8
REMARK    4  A    between atoms: S_8  and  C_9
REMARK    5  A    between atoms: C_9  and  C_10
REMARK    6  A    between atoms: C_15  and  C_18
REMARK    7  A    between atoms: C_15  and  N_54
REMARK                            x       y       z     vdW  Elec       q    Type
REMARK                         _______ _______ _______ _____ _____    ______ ____
ROOT
ATOM      1  C   UNL     1      -0.382   1.727  -1.247  0.00  0.00    +0.226 C 
ATOM      2  O   UNL     1      -1.339   2.449  -1.069  0.00  0.00    -0.275 OA
ATOM      3  N   UNL     1      -0.037   1.360  -2.497  0.00  0.00    -0.301 N 
ATOM      4  C   UNL     1       1.124   0.490  -2.729  0.00  0.00    +0.107 C 
ATOM      5  C   UNL     1       0.672  -0.714  -3.570  0.00  0.00    +0.016 C 
ATOM      6  C   UNL     1      -0.002  -0.212  -4.849  0.00  0.00    +0.015 C 
ATOM      7  C   UNL     1      -1.239   0.613  -4.485  0.00  0.00    +0.016 C 
ATOM      8  C   UNL     1      -0.812   1.827  -3.655  0.00  0.00    +0.107 C 
ENDROOT
BRANCH   6  14
ATOM      9  C   UNL     1      -1.363  -2.211  -4.958  0.00  0.00    -0.077 C 
ATOM     10  C   UNL     1      -1.869  -3.310  -5.896  0.00  0.00    -0.019 C 
ATOM     11  C   UNL     1      -0.681  -4.145  -6.383  0.00  0.00    -0.004 C 
ATOM     12  C   UNL     1       0.326  -3.226  -7.081  0.00  0.00    -0.019 C 
ATOM     13  C   UNL     1       0.767  -2.130  -6.110  0.00  0.00    -0.077 C 
ATOM     14  N   UNL     1      -0.418  -1.348  -5.697  0.00  0.00    +0.389 N 
ATOM     15  H   UNL     1      -0.885  -0.984  -6.536  0.00  0.00    -0.080 HD
ENDBRANCH   6  14
BRANCH   6  16
ATOM     16  C   UNL     1       0.965   0.647  -5.622  0.00  0.00    +0.200 C 
ATOM     17  O   UNL     1       1.912   1.153  -5.057  0.00  0.00    -0.278 OA
ATOM     18  N   UNL     1       0.777   0.854  -6.940  0.00  0.00    -0.330 N 
ATOM     19  H   UNL     1      -0.019   0.513  -7.376  0.00  0.00    +0.145 HD
ATOM     20  H   UNL     1       1.439   1.344  -7.453  0.00  0.00    +0.145 HD
ENDBRANCH   6  16
BRANCH   1  21
ATOM     21  C   UNL     1       0.423   1.239  -0.070  0.00  0.00    +0.173 C 
BRANCH  21  22
ATOM     22  S   UNL     1      -0.284   1.899   1.460  0.00  0.00    -0.077 S 
BRANCH  22  28
ATOM     23  C   UNL     1       1.228   1.220   6.301  0.00  0.00    +0.066 C 
ATOM     24  C   UNL     1       1.446   0.927   4.839  0.00  0.00    +0.046 A 
ATOM     25  C   UNL     1       2.493   0.118   4.437  0.00  0.00    +0.090 A 
ATOM     26  C   UNL     1       2.658  -0.127   3.075  0.00  0.00    +0.216 A 
ATOM     27  N   UNL     1       1.810   0.421   2.213  0.00  0.00    -0.187 NA
ATOM     28  C   UNL     1       0.819   1.191   2.637  0.00  0.00    +0.192 A 
ATOM     29  N   UNL     1       0.640   1.446   3.926  0.00  0.00    -0.227 NA
BRANCH  26  30
ATOM     30  O   UNL     1       3.671  -0.914   2.636  0.00  0.00    -0.492 OA
ATOM     31  H   UNL     1       4.488  -0.433   2.446  0.00  0.00    +0.294 HD
ENDBRANCH  26  30
ENDBRANCH  22  28
ENDBRANCH  21  22
ENDBRANCH   1  21
TORSDOF 6
