REMARK  Name = ZINC38635141
REMARK  5 active torsions:
REMARK  status: ('A' for Active; 'I' for Inactive)
REMARK    1  A    between atoms: C_1  and  C_2
REMARK    2  A    between atoms: C_4  and  S_9
REMARK    3  A    between atoms: S_9  and  N_12
REMARK    4  A    between atoms: N_24  and  C_25
REMARK    5  A    between atoms: C_29  and  C_31
REMARK                            x       y       z     vdW  Elec       q    Type
REMARK                         _______ _______ _______ _____ _____    ______ ____
ROOT
ATOM      1  N   UNL     1       2.068  -3.428  -3.589  0.00  0.00    -0.144 NA
ATOM      2  C   UNL     1       2.754  -2.543  -4.557  0.00  0.00    +0.140 C 
ATOM      3  C   UNL     1       4.063  -3.315  -4.858  0.00  0.00    +0.179 C 
ATOM      4  O   UNL     1       3.623  -4.693  -4.830  0.00  0.00    -0.356 OA
ATOM      5  C   UNL     1       2.655  -4.764  -3.772  0.00  0.00    +0.145 C 
ATOM      6  C   UNL     1       3.339  -5.206  -2.477  0.00  0.00    +0.072 C 
ATOM      7  C   UNL     1       2.306  -5.251  -1.347  0.00  0.00    +0.113 C 
ATOM      8  N   UNL     1       1.184  -6.103  -1.764  0.00  0.00    -0.285 N 
ATOM      9  C   UNL     1       0.509  -5.810  -3.036  0.00  0.00    +0.113 C 
ATOM     10  C   UNL     1       1.559  -5.760  -4.151  0.00  0.00    +0.072 C 
ATOM     11  C   UNL     1       0.783  -7.135  -0.996  0.00  0.00    +0.306 C 
ATOM     12  O   UNL     1       1.290  -7.314   0.095  0.00  0.00    -0.252 OA
ATOM     13  N   UNL     1      -0.181  -7.968  -1.436  0.00  0.00    -0.269 N 
ATOM     14  H   UNL     1      -0.652  -7.772  -2.261  0.00  0.00    +0.156 HD
ENDROOT
BRANCH  13  15
ATOM     15  C   UNL     1      -0.502  -9.116  -0.703  0.00  0.00    +0.035 A 
ATOM     16  C   UNL     1      -0.386  -9.113   0.681  0.00  0.00    +0.023 A 
ATOM     17  C   UNL     1      -0.704 -10.248   1.401  0.00  0.00    +0.002 A 
ATOM     18  C   UNL     1      -1.136 -11.386   0.746  0.00  0.00    +0.012 A 
ATOM     19  C   UNL     1      -1.252 -11.393  -0.632  0.00  0.00    +0.057 A 
ATOM     20  C   UNL     1      -0.941 -10.259  -1.357  0.00  0.00    +0.035 A 
BRANCH  19  21
ATOM     21  C   UNL     1      -1.722 -12.636  -1.342  0.00  0.00    +0.417 C 
ATOM     22  F   UNL     1      -1.978 -13.641  -0.403  0.00  0.00    -0.166 F 
ATOM     23  F   UNL     1      -2.893 -12.352  -2.052  0.00  0.00    -0.166 F 
ATOM     24  F   UNL     1      -0.731 -13.069  -2.230  0.00  0.00    -0.166 F 
ENDBRANCH  19  21
ENDBRANCH  13  15
BRANCH   1  25
ATOM     25  S   UNL     1       0.884  -2.999  -2.514  0.00  0.00    +0.063 S 
ATOM     26  O   UNL     1       0.578  -4.164  -1.760  0.00  0.00    -0.153 OA
ATOM     27  O   UNL     1      -0.100  -2.290  -3.254  0.00  0.00    -0.153 OA
BRANCH  25  31
ATOM     28  C   UNL     1       3.058   1.635  -1.458  0.00  0.00    +0.047 C 
ATOM     29  C   UNL     1       2.587   0.293  -0.962  0.00  0.00    -0.013 A 
ATOM     30  C   UNL     1       2.029  -0.613  -1.843  0.00  0.00    +0.034 A 
ATOM     31  C   UNL     1       1.596  -1.845  -1.388  0.00  0.00    +0.106 A 
ATOM     32  C   UNL     1       1.722  -2.172  -0.051  0.00  0.00    +0.031 A 
ATOM     33  C   UNL     1       2.280  -1.268   0.833  0.00  0.00    +0.040 A 
ATOM     34  C   UNL     1       2.718  -0.036   0.377  0.00  0.00    +0.126 A 
ATOM     35  F   UNL     1       3.268   0.847   1.239  0.00  0.00    -0.205 F 
ENDBRANCH  25  31
ENDBRANCH   1  25
TORSDOF 4
