REMARK  Name = ZINC56159553
REMARK  13 active torsions:
REMARK  status: ('A' for Active; 'I' for Inactive)
REMARK    1  A    between atoms: C_1  and  C_2
REMARK    2  A    between atoms: C_2  and  N_3
REMARK    3  A    between atoms: N_3  and  C_4
REMARK    4  A    between atoms: C_4  and  C_5
REMARK    5  A    between atoms: N_8  and  C_9
REMARK    6  A    between atoms: C_12  and  C_15
REMARK    7  A    between atoms: C_15  and  C_17
REMARK    8  A    between atoms: C_15  and  N_18
REMARK    9  A    between atoms: N_18  and  C_19
REMARK   10  A    between atoms: C_19  and  C_21
REMARK   11  A    between atoms: C_19  and  C_22
REMARK   12  A    between atoms: N_24  and  C_25
REMARK   13  A    between atoms: C_30  and  C_31
REMARK                            x       y       z     vdW  Elec       q    Type
REMARK                         _______ _______ _______ _____ _____    ______ ____
ROOT
ATOM      1  C   UNL     1       8.390  -1.577   1.897  0.00  0.00    -0.043 C 
ATOM      2  C   UNL     1       9.095  -0.387   2.551  0.00  0.00    -0.009 C 
ENDROOT
BRANCH   1   6
ATOM      3  C   UNL     1       4.162  -0.955   1.988  0.00  0.00    +0.035 A 
ATOM      4  C   UNL     1       4.879  -0.696   0.827  0.00  0.00    +0.023 A 
ATOM      5  C   UNL     1       6.245  -0.898   0.800  0.00  0.00    +0.004 A 
ATOM      6  C   UNL     1       6.899  -1.358   1.929  0.00  0.00    -0.062 A 
ATOM      7  C   UNL     1       6.188  -1.617   3.086  0.00  0.00    +0.004 A 
ATOM      8  C   UNL     1       4.823  -1.412   3.120  0.00  0.00    +0.023 A 
BRANCH   3  12
ATOM      9  N   UNL     1       0.872  -0.009   3.142  0.00  0.00    -0.286 N 
ATOM     10  C   UNL     1       2.188  -0.298   3.141  0.00  0.00    +0.306 C 
ATOM     11  O   UNL     1       2.843  -0.150   4.155  0.00  0.00    -0.252 OA
ATOM     12  N   UNL     1       2.778  -0.751   2.018  0.00  0.00    -0.269 N 
ATOM     13  H   UNL     1       2.244  -0.935   1.229  0.00  0.00    +0.156 HD
BRANCH   9  15
ATOM     14  C   UNL     1      -0.291  -0.702   5.179  0.00  0.00    +0.024 C 
ATOM     15  C   UNL     1       0.230   0.483   4.363  0.00  0.00    +0.106 C 
ENDBRANCH   9  15
BRANCH   9  16
ATOM     16  C   UNL     1       0.082  -0.187   1.920  0.00  0.00    +0.106 C 
ATOM     17  C   UNL     1       0.105   1.108   1.105  0.00  0.00    +0.024 C 
ENDBRANCH   9  16
ENDBRANCH   3  12
ENDBRANCH   1   6
BRANCH   1  18
ATOM     18  N   UNL     1       8.720  -2.806   2.631  0.00  0.00    +0.391 N 
ATOM     19  H   UNL     1       9.722  -2.912   2.675  0.00  0.00    -0.084 HD
ATOM     20  H   UNL     1       8.346  -2.750   3.566  0.00  0.00    -0.084 HD
BRANCH  18  21
ATOM     21  C   UNL     1       8.135  -3.962   1.938  0.00  0.00    +0.014 C 
ATOM     22  C   UNL     1       8.807  -4.133   0.575  0.00  0.00    -0.004 C 
BRANCH  21  23
ATOM     23  C   UNL     1       8.351  -5.204   2.764  0.00  0.00    +0.203 C 
ATOM     24  O   UNL     1       8.935  -5.133   3.825  0.00  0.00    -0.277 OA
ATOM     25  N   UNL     1       7.896  -6.394   2.324  0.00  0.00    -0.287 N 
ATOM     26  H   UNL     1       7.489  -6.463   1.446  0.00  0.00    +0.155 HD
BRANCH  25  27
ATOM     27  C   UNL     1       8.009  -7.530   3.133  0.00  0.00    +0.036 A 
ATOM     28  C   UNL     1       9.015  -7.606   4.088  0.00  0.00    +0.023 A 
ATOM     29  C   UNL     1       9.125  -8.728   4.885  0.00  0.00    +0.002 A 
ATOM     30  C   UNL     1       8.235  -9.776   4.733  0.00  0.00    +0.000 A 
ATOM     31  C   UNL     1       7.233  -9.704   3.783  0.00  0.00    +0.005 A 
ATOM     32  C   UNL     1       7.114  -8.581   2.987  0.00  0.00    -0.029 A 
ATOM     33  C   UNL     1       6.018  -8.500   1.956  0.00  0.00    +0.045 C 
ENDBRANCH  25  27
ENDBRANCH  21  23
ENDBRANCH  18  21
ENDBRANCH   1  18
TORSDOF 8
