REMARK  Name = ZINC33704759
REMARK  5 active torsions:
REMARK  status: ('A' for Active; 'I' for Inactive)
REMARK    1  A    between atoms: C_1  and  C_2
REMARK    2  A    between atoms: C_4  and  C_36
REMARK    3  A    between atoms: N_21  and  C_24
REMARK    4  A    between atoms: C_27  and  C_30
REMARK    5  A    between atoms: C_30  and  C_32
REMARK                            x       y       z     vdW  Elec       q    Type
REMARK                         _______ _______ _______ _____ _____    ______ ____
ROOT
ATOM      1  C   UNL     1      -0.175   1.537   0.014  0.00  0.00    +0.044 C 
ATOM      2  C   UNL     1      -0.339   0.040  -0.035  0.00  0.00    -0.050 A 
ATOM      3  C   UNL     1      -0.619  -0.588  -1.235  0.00  0.00    +0.008 A 
ATOM      4  C   UNL     1      -0.769  -1.958  -1.285  0.00  0.00    -0.029 A 
ATOM      5  C   UNL     1      -0.640  -2.720  -0.126  0.00  0.00    +0.039 A 
ATOM      6  C   UNL     1      -0.358  -2.078   1.076  0.00  0.00    -0.027 A 
ATOM      7  C   UNL     1      -0.203  -0.710   1.120  0.00  0.00    +0.008 A 
ATOM      8  C   UNL     1      -0.285  -3.161   2.115  0.00  0.00    +0.053 C 
ATOM      9  C   UNL     1      -1.319  -2.945   3.225  0.00  0.00    +0.089 C 
ATOM     10  C   UNL     1      -0.520  -2.299   4.389  0.00  0.00    +0.074 C 
ATOM     11  C   UNL     1       0.923  -2.170   3.866  0.00  0.00    -0.054 C 
ATOM     12  N   UNL     1       1.031  -3.192   2.774  0.00  0.00    +0.395 N 
ATOM     13  C   UNL     1       1.197  -4.490   3.470  0.00  0.00    -0.076 C 
ATOM     14  C   UNL     1       2.089  -4.183   4.690  0.00  0.00    -0.020 C 
ATOM     15  C   UNL     1       1.903  -2.638   4.958  0.00  0.00    -0.016 C 
ATOM     16  C   UNL     1      -0.582  -3.346   5.479  0.00  0.00    +0.228 C 
ATOM     17  O   UNL     1      -0.075  -3.247   6.575  0.00  0.00    -0.275 OA
ATOM     18  N   UNL     1      -1.283  -4.399   5.043  0.00  0.00    -0.210 N 
ATOM     19  C   UNL     1      -1.757  -4.281   3.782  0.00  0.00    +0.229 C 
ATOM     20  O   UNL     1      -2.420  -5.104   3.188  0.00  0.00    -0.275 OA
ATOM     21  C   UNL     1      -0.551  -4.439   1.364  0.00  0.00    +0.212 C 
ATOM     22  O   UNL     1      -0.583  -5.558   1.830  0.00  0.00    -0.277 OA
ATOM     23  N   UNL     1      -0.746  -4.098   0.076  0.00  0.00    -0.286 N 
ATOM     24  C   UNL     1      -1.075  -2.633  -2.597  0.00  0.00    +0.045 C 
ATOM     25  H   UNL     1      -0.938  -4.736  -0.629  0.00  0.00    +0.155 HD
ATOM     26  H   UNL     1       1.786  -2.990   2.135  0.00  0.00    -0.079 HD
ENDROOT
BRANCH  18  27
ATOM     27  C   UNL     1      -1.514  -5.530   5.829  0.00  0.00    +0.044 A 
ATOM     28  C   UNL     1      -2.323  -5.438   6.957  0.00  0.00    +0.024 A 
ATOM     29  C   UNL     1      -2.553  -6.549   7.735  0.00  0.00    +0.013 A 
ATOM     30  C   UNL     1      -1.972  -7.775   7.390  0.00  0.00    +0.017 A 
ATOM     31  C   UNL     1      -1.158  -7.864   6.253  0.00  0.00    +0.013 A 
ATOM     32  C   UNL     1      -0.939  -6.748   5.479  0.00  0.00    +0.024 A 
BRANCH  30  33
ATOM     33  C   UNL     1      -2.213  -8.965   8.217  0.00  0.00    +0.160 C 
ATOM     34  O   UNL     1      -2.918  -8.886   9.201  0.00  0.00    -0.292 OA
ATOM     35  C   UNL     1      -1.586 -10.283   7.843  0.00  0.00    +0.091 C 
ENDBRANCH  30  33
ENDBRANCH  18  27
TORSDOF 2
