REMARK  Name = ZINC02118385
REMARK  6 active torsions:
REMARK  status: ('A' for Active; 'I' for Inactive)
REMARK    1  A    between atoms: C_1  and  N_46
REMARK    2  A    between atoms: C_8  and  O_22
REMARK    3  A    between atoms: C_10  and  C_12
REMARK    4  A    between atoms: C_12  and  C_13
REMARK    5  A    between atoms: C_13  and  C_15
REMARK    6  A    between atoms: O_22  and  C_23
REMARK                            x       y       z     vdW  Elec       q    Type
REMARK                         _______ _______ _______ _____ _____    ______ ____
ROOT
ATOM      1  C   UNL     1       6.276   2.481   1.455  0.00  0.00    -0.095 C 
ATOM      2  C   UNL     1       7.245   4.701   1.382  0.00  0.00    -0.074 C 
ATOM      3  C   UNL     1       6.891   6.167   1.636  0.00  0.00    +0.017 C 
ATOM      4  C   UNL     1       5.822   6.612   0.671  0.00  0.00    -0.040 A 
ATOM      5  C   UNL     1       5.616   7.973   0.497  0.00  0.00    +0.053 A 
ATOM      6  C   UNL     1       4.641   8.431  -0.372  0.00  0.00    +0.170 A 
ATOM      7  C   UNL     1       3.862   7.519  -1.076  0.00  0.00    +0.208 A 
ATOM      8  C   UNL     1       4.071   6.159  -0.902  0.00  0.00    +0.167 A 
ATOM      9  C   UNL     1       5.054   5.705  -0.028  0.00  0.00    -0.012 A 
ATOM     10  C   UNL     1       5.246   4.218   0.124  0.00  0.00    -0.027 C 
ATOM     11  O   UNL     1       2.980   8.210  -1.859  0.00  0.00    -0.449 OA
ATOM     12  C   UNL     1       3.502   9.550  -1.934  0.00  0.00    +0.467 C 
ATOM     13  O   UNL     1       4.249   9.694  -0.712  0.00  0.00    -0.452 OA
ATOM     14  N   UNL     1       5.985   3.929   1.364  0.00  0.00    +0.383 N 
ATOM     15  H   UNL     1       5.410   4.205   2.169  0.00  0.00    -0.081 HD
ENDROOT
BRANCH   8  16
ATOM     16  O   UNL     1       3.312   5.264  -1.589  0.00  0.00    -0.491 OA
ATOM     17  C   UNL     1       3.834   4.790  -2.833  0.00  0.00    +0.277 C 
ENDBRANCH   8  16
BRANCH  10  18
ATOM     18  C   UNL     1       3.878   3.537   0.193  0.00  0.00    +0.069 C 
BRANCH  18  19
ATOM     19  C   UNL     1       3.056   4.172   1.285  0.00  0.00    +0.162 C 
ATOM     20  O   UNL     1       3.555   5.000   2.017  0.00  0.00    -0.292 OA
BRANCH  19  21
ATOM     21  C   UNL     1       1.647   3.787   1.462  0.00  0.00    +0.017 A 
ATOM     22  C   UNL     1       1.067   2.833   0.620  0.00  0.00    +0.012 A 
ATOM     23  C   UNL     1      -0.253   2.477   0.793  0.00  0.00    +0.016 A 
ATOM     24  C   UNL     1      -1.006   3.062   1.798  0.00  0.00    +0.018 A 
ATOM     25  C   UNL     1      -0.439   4.008   2.635  0.00  0.00    +0.016 A 
ATOM     26  C   UNL     1       0.880   4.374   2.475  0.00  0.00    +0.012 A 
ATOM     27 BR   UNL     1      -2.817   2.567   2.026  0.00  0.00    -0.050 Br
ENDBRANCH  19  21
ENDBRANCH  18  19
ENDBRANCH  10  18
TORSDOF 4
