REMARK  Name = ZINC66200601
REMARK  14 active torsions:
REMARK  status: ('A' for Active; 'I' for Inactive)
REMARK    1  A    between atoms: C_1  and  C_2
REMARK    2  A    between atoms: C_2  and  C_3
REMARK    3  A    between atoms: C_3  and  C_4
REMARK    4  A    between atoms: C_4  and  O_5
REMARK    5  A    between atoms: O_5  and  C_6
REMARK    6  A    between atoms: C_9  and  C_12
REMARK    7  A    between atoms: N_14  and  C_15
REMARK    8  A    between atoms: C_15  and  N_17
REMARK    9  A    between atoms: N_17  and  C_18
REMARK   10  A    between atoms: C_21  and  S_24
REMARK   11  A    between atoms: S_24  and  N_27
REMARK   12  A    between atoms: N_27  and  C_28
REMARK   13  A    between atoms: C_29  and  O_34
REMARK   14  A    between atoms: O_34  and  C_35
REMARK                            x       y       z     vdW  Elec       q    Type
REMARK                         _______ _______ _______ _____ _____    ______ ____
ROOT
ATOM      1  N   UNL     1       3.196 -10.369  -5.442  0.00  0.00    -0.297 N 
ATOM      2  H   UNL     1       3.732  -9.755  -5.966  0.00  0.00    +0.154 HD
ENDROOT
BRANCH   1   3
ATOM      3  C   UNL     1       3.397 -11.749  -5.558  0.00  0.00    +0.033 A 
ATOM      4  C   UNL     1       2.309 -12.603  -5.681  0.00  0.00    +0.025 A 
ATOM      5  C   UNL     1       2.511 -13.964  -5.795  0.00  0.00    +0.031 A 
ATOM      6  C   UNL     1       3.796 -14.477  -5.788  0.00  0.00    +0.111 A 
ATOM      7  C   UNL     1       4.881 -13.629  -5.666  0.00  0.00    +0.031 A 
ATOM      8  C   UNL     1       4.686 -12.266  -5.557  0.00  0.00    +0.025 A 
BRANCH   6   9
ATOM      9  S   UNL     1       4.049 -16.215  -5.933  0.00  0.00    +0.093 S 
ATOM     10  O   UNL     1       5.316 -16.490  -5.351  0.00  0.00    -0.148 OA
ATOM     11  O   UNL     1       2.854 -16.839  -5.486  0.00  0.00    -0.148 OA
BRANCH   9  12
ATOM     12  N   UNL     1       4.186 -16.556  -7.548  0.00  0.00    -0.072 NA
BRANCH  12  13
ATOM     13  C   UNL     1       4.394 -17.867  -7.966  0.00  0.00    +0.225 A 
ATOM     14  C   UNL     1       4.516 -18.158  -9.331  0.00  0.00    +0.259 A 
ATOM     15  N   UNL     1       4.713 -19.406  -9.721  0.00  0.00    -0.217 NA
ATOM     16  C   UNL     1       4.796 -20.376  -8.822  0.00  0.00    +0.134 A 
ATOM     17  C   UNL     1       4.676 -20.090  -7.478  0.00  0.00    +0.133 A 
ATOM     18  N   UNL     1       4.484 -18.843  -7.076  0.00  0.00    -0.231 NA
BRANCH  14  19
ATOM     19  O   UNL     1       4.430 -17.163 -10.250  0.00  0.00    -0.477 OA
ATOM     20  C   UNL     1       4.564 -17.534 -11.623  0.00  0.00    +0.279 C 
ENDBRANCH  14  19
ENDBRANCH  12  13
ENDBRANCH   9  12
ENDBRANCH   6   9
ENDBRANCH   1   3
BRANCH   1  21
ATOM     21  C   UNL     1       2.256  -9.894  -4.600  0.00  0.00    +0.141 C 
ATOM     22  S   UNL     1       1.236 -10.979  -3.756  0.00  0.00    -0.018 S 
BRANCH  21  25
ATOM     23  C   UNL     1       1.180  -8.090  -3.583  0.00  0.00    +0.250 C 
ATOM     24  O   UNL     1       0.456  -8.860  -2.983  0.00  0.00    -0.270 OA
ATOM     25  N   UNL     1       2.120  -8.565  -4.424  0.00  0.00    -0.264 N 
ATOM     26  H   UNL     1       2.698  -7.950  -4.902  0.00  0.00    +0.157 HD
BRANCH  23  30
ATOM     27  C   UNL     1       0.751  -3.902  -3.026  0.00  0.00    +0.121 A 
ATOM     28  C   UNL     1      -0.079  -4.782  -2.340  0.00  0.00    +0.046 A 
ATOM     29  C   UNL     1       0.057  -6.140  -2.518  0.00  0.00    +0.016 A 
ATOM     30  C   UNL     1       1.031  -6.635  -3.389  0.00  0.00    +0.037 A 
ATOM     31  C   UNL     1       1.863  -5.748  -4.078  0.00  0.00    +0.016 A 
ATOM     32  C   UNL     1       1.717  -4.390  -3.898  0.00  0.00    +0.046 A 
BRANCH  27  33
ATOM     33  O   UNL     1       0.614  -2.564  -2.849  0.00  0.00    -0.492 OA
BRANCH  33  34
ATOM     34  C   UNL     1      -0.399  -2.131  -1.938  0.00  0.00    +0.229 C 
BRANCH  34  35
ATOM     35  C   UNL     1      -0.403  -0.603  -1.869  0.00  0.00    +0.041 C 
BRANCH  35  37
ATOM     36  C   UNL     1      -1.492   1.389  -0.826  0.00  0.00    +0.004 C 
ATOM     37  C   UNL     1      -1.488  -0.139  -0.894  0.00  0.00    -0.000 C 
ENDBRANCH  35  37
ENDBRANCH  34  35
ENDBRANCH  33  34
ENDBRANCH  27  33
ENDBRANCH  23  30
ENDBRANCH  21  25
ENDBRANCH   1  21
TORSDOF 12
