REMARK  Name = ZINC08799231
REMARK  10 active torsions:
REMARK  status: ('A' for Active; 'I' for Inactive)
REMARK    1  A    between atoms: C_1  and  C_2
REMARK    2  A    between atoms: C_2  and  O_3
REMARK    3  A    between atoms: O_3  and  C_4
REMARK    4  A    between atoms: C_7  and  S_11
REMARK    5  A    between atoms: S_11  and  N_14
REMARK    6  A    between atoms: N_14  and  C_15
REMARK    7  A    between atoms: C_15  and  C_16
REMARK    8  A    between atoms: C_16  and  C_18
REMARK    9  A    between atoms: C_16  and  N_64
REMARK   10  A    between atoms: N_27  and  C_28
REMARK                            x       y       z     vdW  Elec       q    Type
REMARK                         _______ _______ _______ _____ _____    ______ ____
ROOT
ATOM      1  C   UNL     1       2.993  -2.122   4.579  0.00  0.00    -0.022 C 
ENDROOT
BRANCH   1   2
ATOM      2  C   UNL     1       2.150  -1.572   3.458  0.00  0.00    -0.059 A 
ATOM      3  C   UNL     1       0.788  -1.812   3.434  0.00  0.00    +0.004 A 
ATOM      4  C   UNL     1       0.019  -1.311   2.406  0.00  0.00    +0.023 A 
ATOM      5  C   UNL     1       0.606  -0.560   1.385  0.00  0.00    +0.033 A 
ATOM      6  C   UNL     1       1.968  -0.319   1.417  0.00  0.00    -0.026 A 
ATOM      7  C   UNL     1       2.735  -0.829   2.453  0.00  0.00    +0.007 A 
ATOM      8  C   UNL     1       2.661   0.493   0.352  0.00  0.00    +0.038 C 
ATOM      9  C   UNL     1       1.746   0.630  -0.867  0.00  0.00    +0.024 C 
ATOM     10  C   UNL     1       0.354   1.037  -0.369  0.00  0.00    +0.105 C 
ATOM     11  N   UNL     1      -0.225  -0.086   0.371  0.00  0.00    -0.333 N 
ATOM     12  C   UNL     1      -1.553   0.259   0.896  0.00  0.00    +0.129 C 
ENDBRANCH   1   2
BRANCH   1  17
ATOM     13  C   UNL     1       2.187  -4.299   3.845  0.00  0.00    -0.078 C 
ATOM     14  C   UNL     1       2.816  -5.495   3.088  0.00  0.00    -0.020 C 
ATOM     15  C   UNL     1       4.015  -4.849   2.356  0.00  0.00    -0.020 C 
ATOM     16  C   UNL     1       4.323  -3.563   3.145  0.00  0.00    -0.078 C 
ATOM     17  N   UNL     1       3.372  -3.530   4.258  0.00  0.00    +0.385 N 
ATOM     18  H   UNL     1       3.794  -3.963   5.087  0.00  0.00    -0.081 HD
ENDBRANCH   1  17
BRANCH   1  19
ATOM     19  C   UNL     1       2.194  -2.085   5.884  0.00  0.00    +0.095 C 
BRANCH  19  20
ATOM     20  N   UNL     1       2.968  -2.728   6.949  0.00  0.00    -0.191 NA
ATOM     21  H   UNL     1       3.735  -3.278   6.726  0.00  0.00    +0.148 HD
BRANCH  20  22
ATOM     22  S   UNL     1       2.534  -2.514   8.532  0.00  0.00    +0.058 S 
ATOM     23  O   UNL     1       3.448  -3.275   9.310  0.00  0.00    -0.153 OA
ATOM     24  O   UNL     1       2.353  -1.117   8.719  0.00  0.00    -0.153 OA
BRANCH  22  28
ATOM     25  C   UNL     1      -1.536  -4.427   9.076  0.00  0.00    +0.156 A 
ATOM     26  C   UNL     1      -1.438  -3.094   8.707  0.00  0.00    +0.050 A 
ATOM     27  C   UNL     1      -0.195  -2.511   8.547  0.00  0.00    +0.032 A 
ATOM     28  C   UNL     1       0.951  -3.259   8.743  0.00  0.00    +0.108 A 
ATOM     29  C   UNL     1       0.858  -4.589   9.111  0.00  0.00    +0.070 A 
ATOM     30  C   UNL     1      -0.384  -5.175   9.278  0.00  0.00    +0.167 A 
ATOM     31  F   UNL     1      -0.475  -6.474   9.637  0.00  0.00    -0.202 F 
BRANCH  25  32
ATOM     32  O   UNL     1      -2.758  -5.000   9.239  0.00  0.00    -0.489 OA
BRANCH  32  34
ATOM     33  C   UNL     1      -5.175  -4.984   9.244  0.00  0.00    +0.048 C 
ATOM     34  C   UNL     1      -3.900  -4.170   9.014  0.00  0.00    +0.226 C 
ENDBRANCH  32  34
ENDBRANCH  25  32
ENDBRANCH  22  28
ENDBRANCH  20  22
ENDBRANCH  19  20
ENDBRANCH   1  19
TORSDOF 8
