REMARK  Name = ZINC01829835
REMARK  9 active torsions:
REMARK  status: ('A' for Active; 'I' for Inactive)
REMARK    1  A    between atoms: C_1  and  C_2
REMARK    2  A    between atoms: C_2  and  N_3
REMARK    3  A    between atoms: N_3  and  C_4
REMARK    4  A    between atoms: C_4  and  N_6
REMARK    5  A    between atoms: N_6  and  N_7
REMARK    6  A    between atoms: C_8  and  C_10
REMARK    7  A    between atoms: C_10  and  S_11
REMARK    8  A    between atoms: S_11  and  C_12
REMARK    9  A    between atoms: N_22  and  C_23
REMARK                            x       y       z     vdW  Elec       q    Type
REMARK                         _______ _______ _______ _____ _____    ______ ____
ROOT
ATOM      1  C   UNL     1      -1.014  -2.039  -0.497  0.00  0.00    +0.177 A 
ATOM      2  N   UNL     1      -1.025  -0.729  -0.522  0.00  0.00    -0.223 NA
ATOM      3  C   UNL     1       0.015  -0.004  -0.063  0.00  0.00    +0.079 A 
ATOM      4  C   UNL     1       0.003   1.393  -0.089  0.00  0.00    +0.028 A 
ATOM      5  C   UNL     1       1.079   2.088   0.386  0.00  0.00    +0.002 A 
ATOM      6  C   UNL     1       2.189   1.426   0.896  0.00  0.00    +0.001 A 
ATOM      7  C   UNL     1       2.231   0.060   0.935  0.00  0.00    +0.015 A 
ATOM      8  C   UNL     1       1.147  -0.674   0.456  0.00  0.00    +0.065 A 
ATOM      9  C   UNL     1       1.136  -2.143   0.474  0.00  0.00    +0.267 A 
ATOM     10  O   UNL     1       2.081  -2.776   0.909  0.00  0.00    -0.267 OA
ATOM     11  N   UNL     1       0.038  -2.766  -0.012  0.00  0.00    -0.255 N 
ENDROOT
BRANCH  11  12
ATOM     12  C   UNL     1      -0.023  -4.166  -0.018  0.00  0.00    +0.052 A 
ATOM     13  C   UNL     1      -0.544  -4.844   1.075  0.00  0.00    +0.027 A 
ATOM     14  C   UNL     1      -0.608  -6.224   1.065  0.00  0.00    +0.017 A 
ATOM     15  C   UNL     1      -0.142  -6.931  -0.030  0.00  0.00    +0.018 A 
ATOM     16  C   UNL     1       0.383  -6.258  -1.119  0.00  0.00    +0.017 A 
ATOM     17  C   UNL     1       0.444  -4.878  -1.115  0.00  0.00    +0.027 A 
ATOM     18 BR   UNL     1      -0.223  -8.820  -0.037  0.00  0.00    -0.050 Br
ENDBRANCH  11  12
BRANCH   1  19
ATOM     19  S   UNL     1      -2.418  -2.903  -1.118  0.00  0.00    -0.078 S 
BRANCH  19  20
ATOM     20  C   UNL     1      -3.457  -1.504  -1.607  0.00  0.00    +0.174 C 
BRANCH  20  22
ATOM     21  N   UNL     1      -5.686  -1.149  -2.619  0.00  0.00    -0.234 N 
ATOM     22  C   UNL     1      -4.752  -2.017  -2.184  0.00  0.00    +0.239 C 
ATOM     23  O   UNL     1      -4.952  -3.211  -2.257  0.00  0.00    -0.273 OA
ATOM     24  H   UNL     1      -5.526  -0.194  -2.560  0.00  0.00    +0.173 HD
BRANCH  21  25
ATOM     25  N   UNL     1      -6.890  -1.625  -3.155  0.00  0.00    -0.246 N 
ATOM     26  H   UNL     1      -7.050  -2.580  -3.213  0.00  0.00    +0.172 HD
BRANCH  25  27
ATOM     27  C   UNL     1      -7.825  -0.757  -3.589  0.00  0.00    +0.147 C 
ATOM     28  S   UNL     1      -9.295  -1.340  -4.244  0.00  0.00    -0.017 S 
BRANCH  27  29
ATOM     29  N   UNL     1      -7.602   0.569  -3.508  0.00  0.00    -0.326 N 
ATOM     30  H   UNL     1      -6.769   0.900  -3.137  0.00  0.00    +0.148 HD
BRANCH  29  32
ATOM     31  C   UNL     1      -8.119   2.945  -3.777  0.00  0.00    +0.024 C 
ATOM     32  C   UNL     1      -8.618   1.513  -3.981  0.00  0.00    +0.100 C 
ENDBRANCH  29  32
ENDBRANCH  27  29
ENDBRANCH  25  27
ENDBRANCH  21  25
ENDBRANCH  20  22
ENDBRANCH  19  20
ENDBRANCH   1  19
TORSDOF 8
