REMARK  Name = ZINC36702367
REMARK  3 active torsions:
REMARK  status: ('A' for Active; 'I' for Inactive)
REMARK    1  A    between atoms: C_1  and  O_2
REMARK    2  A    between atoms: O_2  and  C_3
REMARK    3  A    between atoms: C_18  and  C_20
REMARK                            x       y       z     vdW  Elec       q    Type
REMARK                         _______ _______ _______ _____ _____    ______ ____
ROOT
ATOM      1  C   UNL     1       1.104  -0.677  -0.670  0.00  0.00    +0.147 A 
ATOM      2  C   UNL     1       1.778   0.082  -1.597  0.00  0.00    +0.049 A 
ATOM      3  C   UNL     1       2.489  -0.504  -2.634  0.00  0.00    +0.025 A 
ATOM      4  C   UNL     1       2.521  -1.884  -2.738  0.00  0.00    +0.057 A 
ATOM      5  C   UNL     1       1.851  -2.651  -1.817  0.00  0.00    +0.063 A 
ATOM      6  C   UNL     1       1.121  -2.093  -0.745  0.00  0.00    +0.123 A 
ATOM      7  N   UNL     1       0.520  -2.979   0.081  0.00  0.00    -0.221 NA
ATOM      8  C   UNL     1       0.610  -4.278  -0.095  0.00  0.00    +0.162 A 
ATOM      9  S   UNL     1       1.621  -4.395  -1.563  0.00  0.00    -0.051 S 
ATOM     10  N   UNL     1       0.056  -5.294   0.659  0.00  0.00    -0.307 N 
ATOM     11  C   UNL     1      -0.768  -4.987   1.837  0.00  0.00    +0.126 C 
ATOM     12  C   UNL     1      -2.130  -5.674   1.674  0.00  0.00    +0.126 C 
ATOM     13  N   UNL     1      -1.906  -7.081   1.313  0.00  0.00    -0.298 N 
ATOM     14  C   UNL     1      -1.082  -7.388   0.136  0.00  0.00    +0.126 C 
ATOM     15  C   UNL     1       0.275  -6.700   0.295  0.00  0.00    +0.126 C 
ATOM     16  C   UNL     1      -2.446  -8.073   2.049  0.00  0.00    +0.228 C 
ATOM     17  O   UNL     1      -3.047  -7.812   3.070  0.00  0.00    -0.275 OA
ATOM     18 CL   UNL     1       3.404  -2.641  -4.028  0.00  0.00    -0.082 Cl
ENDROOT
BRANCH  16  19
ATOM     19  C   UNL     1      -2.304  -9.505   1.603  0.00  0.00    +0.142 C 
ATOM     20  C   UNL     1      -3.461  -9.866   0.712  0.00  0.00    +0.011 A 
ATOM     21  C   UNL     1      -3.461  -9.442  -0.605  0.00  0.00    +0.008 A 
ATOM     22  C   UNL     1      -4.514  -9.763  -1.440  0.00  0.00    +0.001 A 
ATOM     23  C   UNL     1      -5.574 -10.512  -0.960  0.00  0.00    +0.004 A 
ATOM     24  C   UNL     1      -5.579 -10.938   0.353  0.00  0.00    +0.046 A 
ATOM     25  C   UNL     1      -4.521 -10.616   1.195  0.00  0.00    +0.133 A 
ATOM     26  O   UNL     1      -4.543 -11.044   2.480  0.00  0.00    -0.455 OA
ATOM     27  C   UNL     1      -3.391 -11.124   3.188  0.00  0.00    +0.133 A 
ATOM     28  C   UNL     1      -2.271 -10.401   2.812  0.00  0.00    +0.011 A 
ATOM     29  C   UNL     1      -1.106 -10.500   3.552  0.00  0.00    +0.008 A 
ATOM     30  C   UNL     1      -1.056 -11.317   4.664  0.00  0.00    +0.001 A 
ATOM     31  C   UNL     1      -2.172 -12.041   5.042  0.00  0.00    +0.004 A 
ATOM     32  C   UNL     1      -3.338 -11.946   4.308  0.00  0.00    +0.046 A 
ENDBRANCH  16  19
BRANCH   1  34
ATOM     33  C   UNL     1       0.439   1.364   0.353  0.00  0.00    +0.277 C 
ATOM     34  O   UNL     1       0.418  -0.065   0.332  0.00  0.00    -0.493 OA
ENDBRANCH   1  34
TORSDOF 2
