REMARK  Name = ZINC04015678
REMARK  6 active torsions:
REMARK  status: ('A' for Active; 'I' for Inactive)
REMARK    1  A    between atoms: C_1  and  N_29
REMARK    2  A    between atoms: C_2  and  N_29
REMARK    3  A    between atoms: C_3  and  C_4
REMARK    4  A    between atoms: C_3  and  N_29
REMARK    5  A    between atoms: N_6  and  C_7
REMARK    6  A    between atoms: C_10  and  N_14
REMARK                            x       y       z     vdW  Elec       q    Type
REMARK                         _______ _______ _______ _____ _____    ______ ____
ROOT
ATOM      1  C   UNL     1      -1.237   3.138   0.031  0.00  0.00    +0.060 A 
ATOM      2  C   UNL     1      -0.433   3.173  -1.101  0.00  0.00    +0.038 A 
ATOM      3  C   UNL     1       0.768   2.490  -1.115  0.00  0.00    +0.049 A 
ATOM      4  C   UNL     1       1.176   1.782   0.001  0.00  0.00    +0.128 A 
ATOM      5  C   UNL     1       0.380   1.750   1.132  0.00  0.00    +0.049 A 
ATOM      6  C   UNL     1      -0.825   2.426   1.150  0.00  0.00    +0.038 A 
ATOM      7  I   UNL     1      -2.029   2.378   2.864  0.00  0.00    -0.042 I 
ATOM      8  I   UNL     1      -1.044   4.253  -2.789  0.00  0.00    -0.042 I 
ENDROOT
BRANCH   1  11
ATOM      9  C   UNL     1      -3.586   3.200  -0.346  0.00  0.00    +0.201 C 
ATOM     10  O   UNL     1      -3.560   2.020  -0.625  0.00  0.00    -0.278 OA
ATOM     11  N   UNL     1      -2.457   3.824   0.046  0.00  0.00    -0.285 N 
ATOM     12  H   UNL     1      -2.490   4.748   0.339  0.00  0.00    +0.155 HD
BRANCH   9  13
ATOM     13  C   UNL     1      -4.878   3.969  -0.437  0.00  0.00    +0.018 C 
BRANCH  13  16
ATOM     14  C   UNL     1      -6.229   2.039   0.126  0.00  0.00    -0.096 C 
ATOM     15  C   UNL     1      -7.168   3.826  -1.211  0.00  0.00    -0.096 C 
ATOM     16  N   UNL     1      -5.943   3.057  -0.907  0.00  0.00    +0.382 N 
ATOM     17  H   UNL     1      -5.624   2.585  -1.761  0.00  0.00    -0.082 HD
ENDBRANCH  13  16
ENDBRANCH   9  13
ENDBRANCH   1  11
BRANCH   4  18
ATOM     18  N   UNL     1       2.466   1.057  -0.015  0.00  0.00    +0.056 N 
ATOM     19  O   UNL     1       3.167   1.084  -1.010  0.00  0.00    -0.126 OA
ATOM     20  O   UNL     1       2.826   0.433   0.967  0.00  0.00    -0.126 OA
ENDBRANCH   4  18
TORSDOF 4
