REMARK  Name = ZINC12660166
REMARK  7 active torsions:
REMARK  status: ('A' for Active; 'I' for Inactive)
REMARK    1  A    between atoms: C_6  and  C_7
REMARK    2  A    between atoms: N_8  and  N_9
REMARK    3  A    between atoms: N_18  and  C1*_19
REMARK    4  A    between atoms: C2*_21  and  O2*_31
REMARK    5  A    between atoms: C3*_23  and  O3*_30
REMARK    6  A    between atoms: C4*_25  and  C5*_28
REMARK    7  A    between atoms: C5*_28  and  O5*_29
REMARK                            x       y       z     vdW  Elec       q    Type
REMARK                         _______ _______ _______ _____ _____    ______ ____
ROOT
ATOM      1  N   UNL     1      -4.852   0.921   0.211  0.00  0.00    -0.206 N 
ATOM      2  C   UNL     1      -6.046   1.607   0.122  0.00  0.00    +0.220 A 
ATOM      3  N   UNL     1      -6.175   2.909   0.195  0.00  0.00    -0.208 NA
ATOM      4  C   UNL     1      -7.484   3.240   0.069  0.00  0.00    +0.149 A 
ATOM      5  C   UNL     1      -8.199   4.449   0.069  0.00  0.00    +0.147 A 
ATOM      6  N   UNL     1      -9.518   4.405  -0.084  0.00  0.00    -0.219 NA
ATOM      7  C   UNL     1     -10.151   3.256  -0.232  0.00  0.00    +0.225 A 
ATOM      8  N   UNL     1      -9.523   2.099  -0.237  0.00  0.00    -0.216 NA
ATOM      9  C   UNL     1      -8.203   2.044  -0.092  0.00  0.00    +0.169 A 
ATOM     10  N   UNL     1      -7.274   1.031  -0.061  0.00  0.00    -0.266 N 
ATOM     11  N   UNL     1      -7.543   5.660   0.223  0.00  0.00    -0.341 N 
ATOM     12  H   UNL     1      -4.849  -0.049   0.226  0.00  0.00    +0.177 HD
ATOM     13  H   UNL     1      -7.065   5.670   1.101  0.00  0.00    +0.144 HD
ATOM     14  H   UNL     1      -8.048   6.488   0.221  0.00  0.00    +0.144 HD
ENDROOT
BRANCH  10  15
ATOM     15  C1* UNL     1      -7.548  -0.402  -0.195  0.00  0.00    +0.255 C 
ATOM     16  C2* UNL     1      -7.835  -0.745  -1.670  0.00  0.00    +0.195 C 
ATOM     17  C3* UNL     1      -9.294  -1.262  -1.662  0.00  0.00    +0.178 C 
ATOM     18  C4* UNL     1      -9.844  -0.663  -0.343  0.00  0.00    +0.177 C 
ATOM     19  O4* UNL     1      -8.719  -0.749   0.563  0.00  0.00    -0.346 OA
BRANCH  17  20
ATOM     20  O3* UNL     1     -10.018  -0.764  -2.789  0.00  0.00    -0.386 OA
ATOM     21  H3* UNL     1     -10.937  -1.061  -2.828  0.00  0.00    +0.210 HD
ENDBRANCH  17  20
BRANCH  16  22
ATOM     22  O2* UNL     1      -6.945  -1.764  -2.129  0.00  0.00    -0.385 OA
ATOM     23  H2* UNL     1      -7.082  -2.019  -3.052  0.00  0.00    +0.210 HD
ENDBRANCH  16  22
BRANCH  18  24
ATOM     24  C5* UNL     1     -11.019  -1.493   0.178  0.00  0.00    +0.190 C 
BRANCH  24  25
ATOM     25  O5* UNL     1     -11.580  -0.856   1.327  0.00  0.00    -0.392 OA
ATOM     26  H5* UNL     1     -12.331  -1.329   1.712  0.00  0.00    +0.210 HD
ENDBRANCH  24  25
ENDBRANCH  18  24
ENDBRANCH  10  15
BRANCH   1  28
ATOM     27  C   UNL     1      -2.519   0.980   0.363  0.00  0.00    +0.138 C 
ATOM     28  N   UNL     1      -3.643   1.625   0.280  0.00  0.00    -0.188 NA
BRANCH  27  34
ATOM     29  C   UNL     1      -0.036   1.030   0.525  0.00  0.00    +0.011 A 
ATOM     30  C   UNL     1       1.151   1.730   0.587  0.00  0.00    +0.020 A 
ATOM     31  C   UNL     1       1.144   3.114   0.565  0.00  0.00    +0.041 A 
ATOM     32  C   UNL     1      -0.053   3.806   0.481  0.00  0.00    +0.020 A 
ATOM     33  C   UNL     1      -1.247   3.119   0.419  0.00  0.00    +0.011 A 
ATOM     34  C   UNL     1      -1.247   1.722   0.435  0.00  0.00    -0.005 A 
ATOM     35 CL   UNL     1       2.643   3.987   0.642  0.00  0.00    -0.084 Cl
ENDBRANCH  27  34
ENDBRANCH   1  28
TORSDOF 7
