REMARK  Name = ZINC03521819
REMARK  7 active torsions:
REMARK  status: ('A' for Active; 'I' for Inactive)
REMARK    1  A    between atoms: C_1  and  C_2
REMARK    2  A    between atoms: C_2  and  C_4
REMARK    3  A    between atoms: C_2  and  S_17
REMARK    4  A    between atoms: N_6  and  C_7
REMARK    5  A    between atoms: C_10  and  S_13
REMARK    6  A    between atoms: S_13  and  N_16
REMARK    7  A    between atoms: S_17  and  C_18
REMARK                            x       y       z     vdW  Elec       q    Type
REMARK                         _______ _______ _______ _____ _____    ______ ____
ROOT
ATOM      1  C   UNL     1      -1.084   5.506  -0.082  0.00  0.00    +0.230 C 
ATOM      2  O   UNL     1      -0.240   6.329   0.202  0.00  0.00    -0.274 OA
ATOM      3  N   UNL     1      -2.304   5.907  -0.491  0.00  0.00    -0.285 N 
ATOM      4  H   UNL     1      -2.958   5.251  -0.782  0.00  0.00    +0.155 HD
ENDROOT
BRANCH   3   5
ATOM      5  C   UNL     1      -2.629   7.268  -0.497  0.00  0.00    +0.034 A 
ATOM      6  C   UNL     1      -3.922   7.676  -0.200  0.00  0.00    +0.025 A 
ATOM      7  C   UNL     1      -4.237   9.021  -0.200  0.00  0.00    +0.030 A 
ATOM      8  C   UNL     1      -3.269   9.959  -0.507  0.00  0.00    +0.105 A 
ATOM      9  C   UNL     1      -1.982   9.556  -0.809  0.00  0.00    +0.030 A 
ATOM     10  C   UNL     1      -1.659   8.213  -0.804  0.00  0.00    +0.025 A 
BRANCH   8  11
ATOM     11  S   UNL     1      -3.678  11.674  -0.514  0.00  0.00    +0.056 S 
ATOM     12  O   UNL     1      -4.808  11.825   0.334  0.00  0.00    -0.153 OA
ATOM     13  O   UNL     1      -2.464  12.381  -0.298  0.00  0.00    -0.153 OA
BRANCH  11  14
ATOM     14  N   UNL     1      -4.180  12.051  -2.046  0.00  0.00    -0.204 NA
ATOM     15  H   UNL     1      -4.831  12.758  -2.182  0.00  0.00    +0.144 HD
ATOM     16  H   UNL     1      -3.824  11.566  -2.806  0.00  0.00    +0.144 HD
ENDBRANCH  11  14
ENDBRANCH   8  11
ENDBRANCH   3   5
BRANCH   1  18
ATOM     17  C   UNL     1      -1.347   3.483   1.328  0.00  0.00    +0.029 C 
ATOM     18  C   UNL     1      -0.770   4.036   0.024  0.00  0.00    +0.136 C 
BRANCH  18  19
ATOM     19  S   UNL     1       1.025   3.800   0.010  0.00  0.00    -0.093 S 
BRANCH  19  20
ATOM     20  C   UNL     1       1.102   2.040  -0.010  0.00  0.00    +0.109 A 
ATOM     21  C   UNL     1       2.358   1.373  -0.026  0.00  0.00    +0.043 A 
ATOM     22  C   UNL     1       3.707   1.961  -0.028  0.00  0.00    -0.025 A 
ATOM     23  C   UNL     1       4.742   1.107  -0.040  0.00  0.00    -0.004 A 
ATOM     24  S   UNL     1       4.006  -0.512  -0.053  0.00  0.00    -0.073 S 
ATOM     25  C   UNL     1       2.300  -0.032  -0.040  0.00  0.00    +0.113 A 
ATOM     26  N   UNL     1       1.147  -0.675  -0.041  0.00  0.00    -0.228 NA
ATOM     27  C   UNL     1       0.012  -0.003  -0.027  0.00  0.00    +0.223 A 
ATOM     28  N   UNL     1      -0.008   1.318  -0.012  0.00  0.00    -0.229 NA
ATOM     29  C   UNL     1       6.068   1.819  -0.037  0.00  0.00    +0.043 C 
ATOM     30  C   UNL     1       5.734   3.257   0.418  0.00  0.00    +0.010 C 
ATOM     31  C   UNL     1       4.262   3.389  -0.019  0.00  0.00    +0.037 C 
ENDBRANCH  19  20
ENDBRANCH  18  19
ENDBRANCH   1  18
TORSDOF 6
