REMARK  Name = ZINC10368656
REMARK  3 active torsions:
REMARK  status: ('A' for Active; 'I' for Inactive)
REMARK    1  A    between atoms: C_3  and  C_21
REMARK    2  A    between atoms: C_5  and  N_7
REMARK    3  A    between atoms: C_8  and  C_10
REMARK                            x       y       z     vdW  Elec       q    Type
REMARK                         _______ _______ _______ _____ _____    ______ ____
ROOT
ATOM      1  N   UNL     1      -2.278  -4.240   0.664  0.00  0.00    -0.282 N 
ATOM      2  C   UNL     1      -2.344  -2.985   0.179  0.00  0.00    +0.248 C 
ATOM      3  O   UNL     1      -3.397  -2.555  -0.256  0.00  0.00    -0.270 OA
ATOM      4  H   UNL     1      -1.424  -4.609   0.940  0.00  0.00    +0.155 HD
ENDROOT
BRANCH   2   5
ATOM      5  C   UNL     1      -1.152  -2.139   0.174  0.00  0.00    +0.052 C 
ATOM      6  C   UNL     1      -1.215  -0.875  -0.314  0.00  0.00    +0.023 C 
ATOM      7  C   UNL     1       0.019  -0.075  -0.314  0.00  0.00    +0.018 A 
ATOM      8  C   UNL     1      -0.011   1.310  -0.477  0.00  0.00    +0.026 A 
ATOM      9  C   UNL     1       1.172   2.021  -0.469  0.00  0.00    +0.019 A 
ATOM     10  C   UNL     1       2.382   1.365  -0.300  0.00  0.00    +0.019 A 
ATOM     11  C   UNL     1       2.423  -0.007  -0.137  0.00  0.00    +0.047 A 
ATOM     12  C   UNL     1       1.247  -0.737  -0.143  0.00  0.00    +0.128 A 
ATOM     13  O   UNL     1       1.253  -2.084   0.013  0.00  0.00    -0.487 OA
ATOM     14  C   UNL     1       0.153  -2.667   0.711  0.00  0.00    +0.269 C 
ATOM     15 BR   UNL     1       1.143   3.898  -0.691  0.00  0.00    -0.050 Br
ENDBRANCH   2   5
BRANCH   1  20
ATOM     16  C   UNL     1      -4.526  -7.154   0.689  0.00  0.00    +0.003 A 
ATOM     17  C   UNL     1      -5.737  -6.558   0.979  0.00  0.00    +0.019 A 
ATOM     18  C   UNL     1      -5.807  -5.176   1.169  0.00  0.00    +0.054 A 
ATOM     19  C   UNL     1      -4.651  -4.403   1.063  0.00  0.00    +0.042 A 
ATOM     20  C   UNL     1      -3.440  -5.011   0.771  0.00  0.00    +0.035 A 
ATOM     21  C   UNL     1      -3.381  -6.387   0.580  0.00  0.00    +0.023 A 
BRANCH  18  22
ATOM     22  C   UNL     1      -7.062  -4.555   1.469  0.00  0.00    +0.099 C 
ATOM     23  N   UNL     1      -8.057  -4.062   1.708  0.00  0.00    -0.191 NA
ENDBRANCH  18  22
ENDBRANCH   1  20
TORSDOF 3
