REMARK  Name = ZINC09781410
REMARK  4 active torsions:
REMARK  status: ('A' for Active; 'I' for Inactive)
REMARK    1  A    between atoms: C_1  and  N_2
REMARK    2  A    between atoms: N_7  and  C_10
REMARK    3  A    between atoms: N_11  and  C_24
REMARK    4  A    between atoms: C_24  and  C_25
REMARK                            x       y       z     vdW  Elec       q    Type
REMARK                         _______ _______ _______ _____ _____    ______ ____
ROOT
ATOM      1  C   UNL     1       0.114   4.655  -4.184  0.00  0.00    +0.155 C 
ATOM      2  N   UNL     1      -1.000   3.731  -3.958  0.00  0.00    -0.280 N 
ATOM      3  C   UNL     1      -1.072   3.008  -2.778  0.00  0.00    +0.170 A 
ATOM      4  C   UNL     1      -2.140   2.138  -2.589  0.00  0.00    +0.153 A 
ATOM      5  C   UNL     1      -3.113   2.016  -3.597  0.00  0.00    +0.282 A 
ATOM      6  O   UNL     1      -4.057   1.259  -3.453  0.00  0.00    -0.265 OA
ATOM      7  N   UNL     1      -2.990   2.745  -4.725  0.00  0.00    -0.262 N 
ATOM      8  C   UNL     1      -1.954   3.584  -4.898  0.00  0.00    +0.333 A 
ATOM      9  O   UNL     1      -1.875   4.226  -5.927  0.00  0.00    -0.246 OA
ATOM     10  C   UNL     1      -4.001   2.622  -5.778  0.00  0.00    +0.157 C 
ATOM     11  N   UNL     1      -1.954   1.555  -1.343  0.00  0.00    -0.302 N 
ATOM     12  C   UNL     1      -0.812   2.086  -0.829  0.00  0.00    +0.201 A 
ATOM     13  N   UNL     1      -0.301   2.941  -1.691  0.00  0.00    -0.196 NA
ATOM     14  N   UNL     1      -0.272   1.774   0.397  0.00  0.00    -0.296 N 
ATOM     15  C   UNL     1       0.252   2.977   1.064  0.00  0.00    +0.113 C 
ATOM     16  C   UNL     1       0.496   2.647   2.537  0.00  0.00    +0.054 C 
ATOM     17  C   UNL     1       1.307   1.382   2.653  0.00  0.00    -0.041 A 
ATOM     18  C   UNL     1       1.930   1.105   3.861  0.00  0.00    +0.004 A 
ATOM     19  C   UNL     1       2.675  -0.047   4.013  0.00  0.00    +0.000 A 
ATOM     20  C   UNL     1       2.801  -0.929   2.956  0.00  0.00    +0.000 A 
ATOM     21  C   UNL     1       2.183  -0.653   1.753  0.00  0.00    +0.005 A 
ATOM     22  C   UNL     1       1.435   0.505   1.598  0.00  0.00    -0.027 A 
ATOM     23  C   UNL     1       0.784   0.765   0.265  0.00  0.00    +0.143 C 
ENDROOT
BRANCH  11  24
ATOM     24  C   UNL     1      -2.821   0.562  -0.704  0.00  0.00    +0.164 C 
BRANCH  24  25
ATOM     25  C   UNL     1      -3.730   1.250   0.282  0.00  0.00    +0.026 A 
ATOM     26  C   UNL     1      -3.273   1.548   1.555  0.00  0.00    +0.130 A 
ATOM     27  C   UNL     1      -4.107   2.184   2.458  0.00  0.00    +0.039 A 
ATOM     28  C   UNL     1      -5.399   2.512   2.092  0.00  0.00    +0.004 A 
ATOM     29  C   UNL     1      -5.857   2.210   0.824  0.00  0.00    +0.020 A 
ATOM     30  C   UNL     1      -5.023   1.578  -0.082  0.00  0.00    +0.049 A 
ATOM     31 CL   UNL     1      -5.599   1.198  -1.675  0.00  0.00    -0.083 Cl
ATOM     32  F   UNL     1      -2.012   1.222   1.913  0.00  0.00    -0.205 F 
ENDBRANCH  24  25
ENDBRANCH  11  24
TORSDOF 2
