REMARK  Name = ZINC53631712
REMARK  6 active torsions:
REMARK  status: ('A' for Active; 'I' for Inactive)
REMARK    1  A    between atoms: C_8  and  N_11
REMARK    2  A    between atoms: C_15  and  N_16
REMARK    3  A    between atoms: N_16  and  C_17
REMARK    4  A    between atoms: C_17  and  C_18
REMARK    5  A    between atoms: C_18  and  C_19
REMARK    6  A    between atoms: C_25  and  C_27
REMARK                            x       y       z     vdW  Elec       q    Type
REMARK                         _______ _______ _______ _____ _____    ______ ____
ROOT
ATOM      1  N   UNL     1       2.955  -3.464   1.161  0.00  0.00    -0.158 N 
ATOM      2  C   UNL     1       3.280  -4.772   1.162  0.00  0.00    +0.272 C 
ATOM      3  O   UNL     1       3.413  -5.496   0.189  0.00  0.00    -0.268 OA
ATOM      4  C   UNL     1       3.439  -5.150   2.571  0.00  0.00    +0.084 C 
ATOM      5  C   UNL     1       3.772  -6.395   3.078  0.00  0.00    +0.082 C 
ATOM      6  C   UNL     1       3.169  -3.918   3.327  0.00  0.00    +0.175 C 
ATOM      7  N   UNL     1       2.903  -2.982   2.469  0.00  0.00    -0.170 NA
ENDROOT
BRANCH   1  15
ATOM      8  C   UNL     1      -0.017   1.371   0.010  0.00  0.00    +0.002 A 
ATOM      9  C   UNL     1       1.157   2.102   0.002  0.00  0.00    +0.001 A 
ATOM     10  C   UNL     1       2.367   1.427  -0.013  0.00  0.00    +0.016 A 
ATOM     11  C   UNL     1       2.384   0.051  -0.020  0.00  0.00    +0.032 A 
ATOM     12  C   UNL     1       1.215  -0.716  -0.013  0.00  0.00    +0.043 A 
ATOM     13  C   UNL     1       0.002  -0.004   0.002  0.00  0.00    +0.024 A 
ATOM     14  N   UNL     1       1.341  -2.104  -0.022  0.00  0.00    -0.315 N 
ATOM     15  C   UNL     1       2.700  -2.663  -0.039  0.00  0.00    +0.249 C 
ATOM     16  S   UNL     1       3.714  -1.130  -0.039  0.00  0.00    -0.080 S 
ATOM     17  H   UNL     1       0.560  -2.680  -0.018  0.00  0.00    +0.149 HD
ENDBRANCH   1  15
BRANCH   6  18
ATOM     18  C   UNL     1       3.202  -3.768   4.827  0.00  0.00    +0.436 C 
ATOM     19  F   UNL     1       2.891  -2.448   5.170  0.00  0.00    -0.164 F 
ATOM     20  F   UNL     1       2.265  -4.633   5.402  0.00  0.00    -0.164 F 
ATOM     21  F   UNL     1       4.480  -4.084   5.299  0.00  0.00    -0.164 F 
ENDBRANCH   6  18
BRANCH   5  22
ATOM     22  N   UNL     1       3.880  -6.573   4.411  0.00  0.00    -0.349 N 
ATOM     23  H   UNL     1       3.724  -5.830   5.014  0.00  0.00    +0.146 HD
BRANCH  22  24
ATOM     24  C   UNL     1       4.232  -7.890   4.947  0.00  0.00    +0.107 C 
BRANCH  24  25
ATOM     25  C   UNL     1       4.287  -7.821   6.474  0.00  0.00    +0.073 C 
BRANCH  25  26
ATOM     26  C   UNL     1       4.650  -9.175   7.026  0.00  0.00    +0.035 A 
ATOM     27  H   UNL     1       6.496 -11.521   7.933  0.00  0.00    +0.166 HD
ATOM     28  C   UNL     1       5.897  -9.660   7.178  0.00  0.00    +0.105 A 
ATOM     29  N   UNL     1       5.772 -10.916   7.709  0.00  0.00    -0.352 N 
ATOM     30  C   UNL     1       4.452 -11.154   7.864  0.00  0.00    +0.171 A 
ATOM     31  N   UNL     1       3.787 -10.107   7.458  0.00  0.00    -0.350 N 
ATOM     32  H   UNL     1       2.821 -10.018   7.465  0.00  0.00    +0.166 HD
ENDBRANCH  25  26
ENDBRANCH  24  25
ENDBRANCH  22  24
ENDBRANCH   5  22
TORSDOF 6
