REMARK  Name = ZINC01876415
REMARK  7 active torsions:
REMARK  status: ('A' for Active; 'I' for Inactive)
REMARK    1  A    between atoms: C_1  and  O_2
REMARK    2  A    between atoms: O_2  and  C_3
REMARK    3  A    between atoms: C_6  and  C_9
REMARK    4  A    between atoms: C_11  and  C_37
REMARK    5  A    between atoms: C_37  and  C_39
REMARK    6  A    between atoms: C_42  and  O_45
REMARK    7  A    between atoms: O_45  and  C_46
REMARK                            x       y       z     vdW  Elec       q    Type
REMARK                         _______ _______ _______ _____ _____    ______ ____
ROOT
ATOM      1  C   UNL     1      -2.022   6.262   1.474  0.00  0.00    +0.079 C 
ATOM      2  C   UNL     1      -1.286   6.408   0.104  0.00  0.00    +0.173 C 
ATOM      3  N   UNL     1      -1.172   7.791  -0.171  0.00  0.00    -0.235 N 
ATOM      4  C   UNL     1      -0.996   8.498   1.077  0.00  0.00    +0.152 C 
ATOM      5  C   UNL     1      -1.659   7.598   2.157  0.00  0.00    +0.196 C 
ATOM      6  C   UNL     1      -0.631   7.338   3.269  0.00  0.00    +0.330 C 
ATOM      7  O   UNL     1       0.502   7.219   3.023  0.00  0.00    -0.249 OA
ATOM      8  O   UNL     1      -1.047   7.395   4.528  0.00  0.00    -0.421 OA
ATOM      9  C   UNL     1      -2.257   7.972   5.035  0.00  0.00    +0.259 C 
ATOM     10  C   UNL     1      -2.799   7.167   6.184  0.00  0.00    +0.093 C 
ATOM     11  C   UNL     1      -4.054   7.821   6.729  0.00  0.00    +0.008 C 
ATOM     12  C   UNL     1      -3.772   9.222   7.213  0.00  0.00    +0.000 C 
ATOM     13  C   UNL     1      -3.221  10.032   5.983  0.00  0.00    +0.008 C 
ATOM     14  C   UNL     1      -1.939   9.419   5.513  0.00  0.00    +0.093 C 
ATOM     15  O   UNL     1      -3.278   7.974   4.005  0.00  0.00    -0.421 OA
ATOM     16  C   UNL     1      -2.917   8.269   2.674  0.00  0.00    +0.330 C 
ATOM     17  O   UNL     1      -3.695   8.911   2.009  0.00  0.00    -0.249 OA
ATOM     18  C   UNL     1      -1.567   9.823   0.876  0.00  0.00    -0.015 A 
ATOM     19  C   UNL     1      -1.909  10.577   2.021  0.00  0.00    +0.006 A 
ATOM     20  C   UNL     1      -2.455  11.867   1.859  0.00  0.00    +0.000 A 
ATOM     21  C   UNL     1      -2.649  12.392   0.581  0.00  0.00    +0.001 A 
ATOM     22  C   UNL     1      -2.368  11.685  -0.470  0.00  0.00    +0.010 A 
ATOM     23  C   UNL     1      -1.796  10.377  -0.324  0.00  0.00    -0.000 A 
ATOM     24  C   UNL     1      -1.473   9.668  -1.548  0.00  0.00    +0.138 C 
ATOM     25  N   UNL     1      -1.184   8.349  -1.496  0.00  0.00    -0.191 NA
ENDROOT
BRANCH   1  29
ATOM     26  C   UNL     1      -0.667   3.021   3.907  0.00  0.00    +0.120 A 
ATOM     27  C   UNL     1      -2.023   3.196   3.676  0.00  0.00    +0.046 A 
ATOM     28  C   UNL     1      -2.459   4.245   2.889  0.00  0.00    +0.007 A 
ATOM     29  C   UNL     1      -1.544   5.119   2.332  0.00  0.00    -0.040 A 
ATOM     30  C   UNL     1      -0.191   4.943   2.556  0.00  0.00    +0.007 A 
ATOM     31  C   UNL     1       0.249   3.899   3.347  0.00  0.00    +0.046 A 
BRANCH  26  33
ATOM     32  C   UNL     1       1.175   1.870   4.875  0.00  0.00    +0.277 C 
ATOM     33  O   UNL     1      -0.236   1.989   4.680  0.00  0.00    -0.495 OA
ENDBRANCH  26  33
ENDBRANCH   1  29
BRANCH   2  34
ATOM     34  C   UNL     1       0.068   5.750   0.170  0.00  0.00    +0.186 C 
ATOM     35  O   UNL     1       1.068   6.429   0.264  0.00  0.00    -0.290 OA
BRANCH  34  36
ATOM     36  C   UNL     1       0.175   4.286   0.119  0.00  0.00    +0.020 A 
ATOM     37  C   UNL     1       1.433   3.672   0.179  0.00  0.00    +0.015 A 
ATOM     38  C   UNL     1       1.528   2.305   0.132  0.00  0.00    +0.046 A 
ATOM     39  C   UNL     1       0.379   1.528   0.024  0.00  0.00    +0.120 A 
ATOM     40  C   UNL     1      -0.872   2.134  -0.042  0.00  0.00    +0.046 A 
ATOM     41  C   UNL     1      -0.978   3.500   0.010  0.00  0.00    +0.015 A 
BRANCH  39  42
ATOM     42  O   UNL     1       0.478   0.176  -0.023  0.00  0.00    -0.495 OA
ATOM     43  C   UNL     1      -0.741  -0.561  -0.134  0.00  0.00    +0.277 C 
ENDBRANCH  39  42
ENDBRANCH  34  36
ENDBRANCH   2  34
TORSDOF 5
