REMARK  Name = ZINC00500692
REMARK  6 active torsions:
REMARK  status: ('A' for Active; 'I' for Inactive)
REMARK    1  A    between atoms: C_1  and  C_2
REMARK    2  A    between atoms: C_2  and  O_20
REMARK    3  A    between atoms: C_4  and  C_18
REMARK    4  A    between atoms: C_4  and  C_19
REMARK    5  A    between atoms: N_5  and  C_17
REMARK    6  A    between atoms: N_8  and  C_9
REMARK                            x       y       z     vdW  Elec       q    Type
REMARK                         _______ _______ _______ _____ _____    ______ ____
ROOT
ATOM      1  C   UNL     1       0.030   1.739  -0.950  0.00  0.00    +0.064 C 
ATOM      2  C   UNL     1      -0.042   0.249  -0.610  0.00  0.00    +0.140 C 
ATOM      3  C   UNL     1       0.716  -0.556  -1.671  0.00  0.00    +0.080 C 
ATOM      4  C   UNL     1       0.729  -2.029  -1.248  0.00  0.00    +0.037 C 
ATOM      5  N   UNL     1       1.300  -2.138   0.096  0.00  0.00    -0.283 N 
ATOM      6  C   UNL     1       1.192  -1.139   0.983  0.00  0.00    +0.311 C 
ATOM      7  O   UNL     1       1.676  -1.284   2.089  0.00  0.00    -0.252 OA
ATOM      8  N   UNL     1       0.571   0.016   0.699  0.00  0.00    -0.227 N 
ATOM      9  C   UNL     1       2.005  -3.365   0.478  0.00  0.00    +0.134 C 
ATOM     10  C   UNL     1       1.579  -2.836  -2.232  0.00  0.00    +0.031 C 
ATOM     11  C   UNL     1      -0.702  -2.572  -1.241  0.00  0.00    +0.031 C 
ENDROOT
BRANCH   8  12
ATOM     12  C   UNL     1       0.508   1.019   1.674  0.00  0.00    +0.042 A 
ATOM     13  C   UNL     1      -0.707   1.334   2.270  0.00  0.00    +0.025 A 
ATOM     14  C   UNL     1      -0.767   2.324   3.231  0.00  0.00    +0.023 A 
ATOM     15  C   UNL     1       0.381   3.002   3.601  0.00  0.00    +0.059 A 
ATOM     16  C   UNL     1       1.594   2.689   3.009  0.00  0.00    +0.061 A 
ATOM     17  C   UNL     1       1.660   1.695   2.051  0.00  0.00    +0.045 A 
ATOM     18 CL   UNL     1       3.032   3.542   3.476  0.00  0.00    -0.082 Cl
ATOM     19 CL   UNL     1       0.302   4.245   4.810  0.00  0.00    -0.082 Cl
ENDBRANCH   8  12
BRANCH   2  20
ATOM     20  O   UNL     1      -1.409  -0.168  -0.578  0.00  0.00    -0.371 OA
ATOM     21  H   UNL     1      -1.948   0.300   0.074  0.00  0.00    +0.212 HD
ENDBRANCH   2  20
TORSDOF 2
