REMARK  Name = ZINC32116403
REMARK  5 active torsions:
REMARK  status: ('A' for Active; 'I' for Inactive)
REMARK    1  A    between atoms: C_3  and  N_22
REMARK    2  A    between atoms: C_6  and  C_7
REMARK    3  A    between atoms: N_9  and  C_10
REMARK    4  A    between atoms: C_10  and  N_12
REMARK    5  A    between atoms: N_12  and  C_13
REMARK                            x       y       z     vdW  Elec       q    Type
REMARK                         _______ _______ _______ _____ _____    ______ ____
ROOT
ATOM      1  C   UNL     1       5.881   1.815  -0.350  0.00  0.00    +0.250 C 
ATOM      2  O   UNL     1       5.868   3.031  -0.343  0.00  0.00    -0.270 OA
ATOM      3  N   UNL     1       4.726   1.129  -0.241  0.00  0.00    -0.264 N 
ATOM      4  H   UNL     1       4.738   0.029  -0.248  0.00  0.00    +0.157 HD
ENDROOT
BRANCH   1  10
ATOM      5  C   UNL     1       7.181  -0.305  -0.481  0.00  0.00    +0.015 A 
ATOM      6  C   UNL     1       8.380  -0.976  -0.606  0.00  0.00    +0.033 A 
ATOM      7  C   UNL     1       9.564  -0.267  -0.717  0.00  0.00    +0.126 A 
ATOM      8  C   UNL     1       9.553   1.116  -0.710  0.00  0.00    +0.033 A 
ATOM      9  C   UNL     1       8.360   1.799  -0.592  0.00  0.00    +0.015 A 
ATOM     10  C   UNL     1       7.162   1.091  -0.478  0.00  0.00    +0.037 A 
BRANCH   7  11
ATOM     11  N   UNL     1      10.847  -0.993  -0.844  0.00  0.00    +0.056 N 
ATOM     12  O   UNL     1      11.891  -0.373  -0.943  0.00  0.00    -0.126 OA
ATOM     13  O   UNL     1      10.860  -2.211  -0.850  0.00  0.00    -0.126 OA
ENDBRANCH   7  11
ENDBRANCH   1  10
BRANCH   3  14
ATOM     14  C   UNL     1       3.557   1.790  -0.124  0.00  0.00    +0.141 C 
ATOM     15  S   UNL     1       3.539   3.502  -0.115  0.00  0.00    -0.018 S 
BRANCH  14  16
ATOM     16  N   UNL     1       2.403   1.103  -0.015  0.00  0.00    -0.297 N 
ATOM     17  H   UNL     1       2.421   0.006   0.070  0.00  0.00    +0.154 HD
BRANCH  16  18
ATOM     18  C   UNL     1       1.180   1.786  -0.011  0.00  0.00    +0.035 A 
ATOM     19  C   UNL     1       0.969   2.840  -0.890  0.00  0.00    +0.042 A 
ATOM     20  C   UNL     1      -0.235   3.517  -0.881  0.00  0.00    +0.067 A 
ATOM     21  C   UNL     1      -1.239   3.136  -0.001  0.00  0.00    +0.207 A 
ATOM     22  C   UNL     1      -1.029   2.083   0.877  0.00  0.00    +0.067 A 
ATOM     23  C   UNL     1       0.177   1.409   0.873  0.00  0.00    +0.042 A 
ATOM     24 BR   UNL     1      -2.394   1.569   2.081  0.00  0.00    -0.046 Br
ATOM     25  O   UNL     1      -2.426   3.799   0.004  0.00  0.00    -0.286 OA
ATOM     26 BR   UNL     1      -0.519   4.958  -2.072  0.00  0.00    -0.046 Br
ENDBRANCH  16  18
ENDBRANCH  14  16
ENDBRANCH   3  14
TORSDOF 5
