REMARK  Name = ZINC13986895
REMARK  7 active torsions:
REMARK  status: ('A' for Active; 'I' for Inactive)
REMARK    1  A    between atoms: C_1  and  C_2
REMARK    2  A    between atoms: C_5  and  S_23
REMARK    3  A    between atoms: C_7  and  C_8
REMARK    4  A    between atoms: N_10  and  C_11
REMARK    5  A    between atoms: C_11  and  C_12
REMARK    6  A    between atoms: C_12  and  N_68
REMARK    7  A    between atoms: S_23  and  N_26
REMARK                            x       y       z     vdW  Elec       q    Type
REMARK                         _______ _______ _______ _____ _____    ______ ____
ROOT
ATOM      1  C   UNL     1       2.660   4.571  -0.984  0.00  0.00    +0.244 C 
ATOM      2  O   UNL     1       3.794   4.143  -1.078  0.00  0.00    -0.270 OA
ATOM      3  N   UNL     1       2.436   5.899  -1.016  0.00  0.00    -0.313 N 
ATOM      4  H   UNL     1       1.531   6.240  -0.941  0.00  0.00    +0.149 HD
ENDROOT
BRANCH   1  11
ATOM      5  C   UNL     1       3.175   1.741  -0.668  0.00  0.00    +0.044 C 
ATOM      6  C   UNL     1       1.763   2.266  -0.682  0.00  0.00    -0.038 A 
ATOM      7  C   UNL     1       0.701   1.397  -0.544  0.00  0.00    +0.006 A 
ATOM      8  C   UNL     1      -0.597   1.876  -0.562  0.00  0.00    +0.029 A 
ATOM      9  C   UNL     1      -0.838   3.231  -0.709  0.00  0.00    +0.106 A 
ATOM     10  C   UNL     1       0.215   4.111  -0.848  0.00  0.00    +0.041 A 
ATOM     11  C   UNL     1       1.526   3.633  -0.835  0.00  0.00    +0.041 A 
BRANCH   9  12
ATOM     12  S   UNL     1      -2.494   3.832  -0.724  0.00  0.00    +0.061 S 
ATOM     13  O   UNL     1      -3.281   2.874  -0.030  0.00  0.00    -0.153 OA
ATOM     14  O   UNL     1      -2.435   5.197  -0.332  0.00  0.00    -0.153 OA
BRANCH  12  15
ATOM     15  N   UNL     1      -3.007   3.814  -2.299  0.00  0.00    -0.177 NA
ATOM     16  C   UNL     1      -2.872   4.921  -3.257  0.00  0.00    +0.109 C 
ATOM     17  C   UNL     1      -3.511   4.460  -4.584  0.00  0.00    +0.018 C 
ATOM     18  C   UNL     1      -4.479   3.336  -4.129  0.00  0.00    +0.018 C 
ATOM     19  C   UNL     1      -3.680   2.688  -2.970  0.00  0.00    +0.109 C 
ENDBRANCH  12  15
ENDBRANCH   9  12
ENDBRANCH   1  11
BRANCH   3  20
ATOM     20  C   UNL     1       3.559   6.828  -1.164  0.00  0.00    +0.092 C 
BRANCH  20  21
ATOM     21  C   UNL     1       3.054   8.265  -1.018  0.00  0.00    -0.050 C 
ATOM     22  C   UNL     1       1.862   8.484  -1.952  0.00  0.00    -0.010 C 
ATOM     23  C   UNL     1       2.295   8.239  -3.399  0.00  0.00    -0.001 C 
ATOM     24  C   UNL     1       3.416   9.213  -3.767  0.00  0.00    -0.000 C 
ATOM     25  C   UNL     1       4.609   8.994  -2.833  0.00  0.00    -0.001 C 
ATOM     26  C   UNL     1       4.176   9.239  -1.387  0.00  0.00    -0.010 C 
BRANCH  21  32
ATOM     27  C   UNL     1       3.783   8.409   1.286  0.00  0.00    -0.078 C 
ATOM     28  C   UNL     1       3.342   8.801   2.698  0.00  0.00    -0.019 C 
ATOM     29  C   UNL     1       2.222   7.862   3.156  0.00  0.00    -0.004 C 
ATOM     30  C   UNL     1       1.062   7.941   2.160  0.00  0.00    -0.019 C 
ATOM     31  C   UNL     1       1.569   7.574   0.764  0.00  0.00    -0.078 C 
ATOM     32  N   UNL     1       2.628   8.528   0.371  0.00  0.00    +0.384 N 
ATOM     33  H   UNL     1       2.254   9.483   0.431  0.00  0.00    -0.081 HD
ENDBRANCH  21  32
ENDBRANCH  20  21
ENDBRANCH   3  20
TORSDOF 6
