REMARK  Name = ZINC09580170
REMARK  4 active torsions:
REMARK  status: ('A' for Active; 'I' for Inactive)
REMARK    1  A    between atoms: C_6  and  C_7
REMARK    2  A    between atoms: C_7  and  C_8
REMARK    3  A    between atoms: C_8  and  N_10
REMARK    4  A    between atoms: N_12  and  C_23
REMARK                            x       y       z     vdW  Elec       q    Type
REMARK                         _______ _______ _______ _____ _____    ______ ____
ROOT
ATOM      1  N   UNL     1      -3.133  -1.183  -1.473  0.00  0.00    -0.159 NA
ATOM      2  C   UNL     1      -3.508  -1.680  -2.646  0.00  0.00    +0.154 C 
ATOM      3  N   UNL     1      -2.873  -1.530  -3.876  0.00  0.00    -0.276 N 
ATOM      4  C   UNL     1      -3.638  -1.966  -5.003  0.00  0.00    +0.116 C 
ATOM      5  C   UNL     1      -3.069  -2.139  -6.402  0.00  0.00    +0.190 C 
ATOM      6  S   UNL     1      -4.444  -3.095  -7.195  0.00  0.00    -0.028 S 
ATOM      7  O   UNL     1      -3.932  -4.330  -7.676  0.00  0.00    -0.174 OA
ATOM      8  O   UNL     1      -5.153  -2.239  -8.080  0.00  0.00    -0.174 OA
ATOM      9  C   UNL     1      -5.485  -3.413  -5.693  0.00  0.00    +0.182 C 
ATOM     10  C   UNL     1      -4.370  -3.310  -4.629  0.00  0.00    +0.097 C 
ATOM     11  S   UNL     1      -4.945  -2.705  -2.997  0.00  0.00    -0.086 S 
ENDROOT
BRANCH   3  12
ATOM     12  C   UNL     1      -1.586  -0.993  -4.000  0.00  0.00    +0.039 A 
ATOM     13  C   UNL     1      -0.478  -1.761  -3.668  0.00  0.00    +0.027 A 
ATOM     14  C   UNL     1       0.793  -1.233  -3.790  0.00  0.00    +0.051 A 
ATOM     15  C   UNL     1       0.966   0.065  -4.244  0.00  0.00    +0.166 A 
ATOM     16  C   UNL     1      -0.144   0.838  -4.578  0.00  0.00    +0.168 A 
ATOM     17  C   UNL     1      -1.417   0.306  -4.460  0.00  0.00    +0.073 A 
ATOM     18  O   UNL     1       0.288   2.064  -4.993  0.00  0.00    -0.453 OA
ATOM     19  C   UNL     1       1.645   2.174  -4.523  0.00  0.00    +0.466 C 
ATOM     20  O   UNL     1       2.093   0.807  -4.450  0.00  0.00    -0.453 OA
ENDBRANCH   3  12
BRANCH   1  21
ATOM     21  C   UNL     1      -2.116  -0.327  -1.408  0.00  0.00    +0.243 C 
ATOM     22  O   UNL     1      -2.146   0.702  -2.055  0.00  0.00    -0.273 OA
BRANCH  21  23
ATOM     23  C   UNL     1      -0.929  -0.632  -0.531  0.00  0.00    +0.133 C 
BRANCH  23  29
ATOM     24  C   UNL     1      -0.300   1.595   0.422  0.00  0.00    +0.007 A 
ATOM     25  C   UNL     1       0.526   2.701   0.480  0.00  0.00    +0.038 A 
ATOM     26  C   UNL     1       1.627   2.787  -0.355  0.00  0.00    +0.123 A 
ATOM     27  C   UNL     1       1.899   1.764  -1.248  0.00  0.00    +0.038 A 
ATOM     28  C   UNL     1       1.071   0.659  -1.304  0.00  0.00    +0.007 A 
ATOM     29  C   UNL     1      -0.027   0.574  -0.469  0.00  0.00    -0.038 A 
ATOM     30  F   UNL     1       2.435   3.868  -0.300  0.00  0.00    -0.205 F 
ENDBRANCH  23  29
ENDBRANCH  21  23
ENDBRANCH   1  21
TORSDOF 4
