REMARK  Name = ZINC00694424
REMARK  6 active torsions:
REMARK  status: ('A' for Active; 'I' for Inactive)
REMARK    1  A    between atoms: C_1  and  C_2
REMARK    2  A    between atoms: C_3  and  C_25
REMARK    3  A    between atoms: C_4  and  N_9
REMARK    4  A    between atoms: C_6  and  C_8
REMARK    5  A    between atoms: C_15  and  C_17
REMARK    6  A    between atoms: C_25  and  C_26
REMARK                            x       y       z     vdW  Elec       q    Type
REMARK                         _______ _______ _______ _____ _____    ______ ____
ROOT
ATOM      1  C   UNL     1      -7.956   6.293   3.098  0.00  0.00    +0.064 C 
ATOM      2  C   UNL     1      -6.695   7.090   2.889  0.00  0.00    +0.021 A 
ATOM      3  C   UNL     1      -5.806   6.744   1.890  0.00  0.00    +0.016 A 
ATOM      4  C   UNL     1      -4.650   7.512   1.736  0.00  0.00    +0.128 A 
ATOM      5  N   UNL     1      -4.447   8.540   2.554  0.00  0.00    -0.219 NA
ATOM      6  C   UNL     1      -5.325   8.838   3.491  0.00  0.00    +0.106 A 
ATOM      7  N   UNL     1      -6.425   8.133   3.662  0.00  0.00    -0.347 N 
ATOM      8  C   UNL     1      -5.061  10.015   4.395  0.00  0.00    +0.086 C 
ATOM      9  H   UNL     1      -7.123   8.420   4.462  0.00  0.00    +0.167 HD
ENDROOT
BRANCH   4  10
ATOM     10  N   UNL     1      -3.728   7.205   0.749  0.00  0.00    -0.312 N 
ATOM     11  C   UNL     1      -3.703   8.243  -0.290  0.00  0.00    +0.125 C 
ATOM     12  C   UNL     1      -2.810   7.782  -1.447  0.00  0.00    +0.127 C 
ATOM     13  N   UNL     1      -1.493   7.415  -0.903  0.00  0.00    -0.295 N 
ATOM     14  C   UNL     1      -1.445   6.478   0.230  0.00  0.00    +0.127 C 
ATOM     15  C   UNL     1      -2.392   6.995   1.324  0.00  0.00    +0.125 C 
ATOM     16  C   UNL     1      -0.361   7.921  -1.431  0.00  0.00    +0.247 C 
ATOM     17  O   UNL     1      -0.422   8.769  -2.300  0.00  0.00    -0.270 OA
BRANCH  16  18
ATOM     18  C   UNL     1       0.955   7.443  -0.955  0.00  0.00    +0.040 A 
ATOM     19  C   UNL     1       2.042   8.317  -0.907  0.00  0.00    +0.033 A 
ATOM     20  C   UNL     1       3.268   7.864  -0.462  0.00  0.00    +0.043 A 
ATOM     21  C   UNL     1       3.420   6.547  -0.063  0.00  0.00    +0.040 A 
ATOM     22  C   UNL     1       2.347   5.675  -0.114  0.00  0.00    +0.043 A 
ATOM     23  C   UNL     1       1.114   6.116  -0.552  0.00  0.00    +0.033 A 
ATOM     24 CL   UNL     1       2.550   4.023   0.381  0.00  0.00    -0.083 Cl
ATOM     25 CL   UNL     1       4.622   8.950  -0.402  0.00  0.00    -0.083 Cl
ENDBRANCH  16  18
ENDBRANCH   4  10
BRANCH   3  26
ATOM     26  C   UNL     1      -6.076   5.566   0.990  0.00  0.00    +0.075 C 
BRANCH  26  27
ATOM     27  C   UNL     1      -5.547   4.310   1.633  0.00  0.00    -0.040 A 
ATOM     28  C   UNL     1      -4.226   3.943   1.448  0.00  0.00    +0.004 A 
ATOM     29  C   UNL     1      -3.738   2.794   2.041  0.00  0.00    +0.003 A 
ATOM     30  C   UNL     1      -4.572   2.005   2.810  0.00  0.00    +0.038 A 
ATOM     31  C   UNL     1      -5.895   2.368   2.991  0.00  0.00    +0.124 A 
ATOM     32  C   UNL     1      -6.382   3.522   2.401  0.00  0.00    +0.042 A 
ATOM     33  F   UNL     1      -6.711   1.597   3.743  0.00  0.00    -0.205 F 
ENDBRANCH  26  27
ENDBRANCH   3  26
TORSDOF 4
