REMARK  Name = ZINC64930762
REMARK  5 active torsions:
REMARK  status: ('A' for Active; 'I' for Inactive)
REMARK    1  A    between atoms: C_1  and  C_2
REMARK    2  A    between atoms: C_5  and  N_9
REMARK    3  A    between atoms: C_16  and  C_18
REMARK    4  A    between atoms: C_21  and  C_23
REMARK    5  A    between atoms: N_25  and  C_26
REMARK                            x       y       z     vdW  Elec       q    Type
REMARK                         _______ _______ _______ _____ _____    ______ ____
ROOT
ATOM      1  C   UNL     1       0.984  -7.117  -3.316  0.00  0.00    +0.123 A 
ATOM      2  N   UNL     1       2.223  -6.875  -2.938  0.00  0.00    -0.144 NA
ATOM      3  N   UNL     1       3.154  -6.686  -3.771  0.00  0.00    -0.136 NA
ATOM      4  C   UNL     1       2.869  -6.734  -5.070  0.00  0.00    +0.187 A 
ATOM      5  S   UNL     1       1.118  -7.087  -4.996  0.00  0.00    -0.044 S 
ENDROOT
BRANCH   1  13
ATOM      6  N   UNL     1      -0.385  -4.284  -0.379  0.00  0.00    -0.268 N 
ATOM      7  C   UNL     1      -0.357  -5.062  -1.479  0.00  0.00    +0.307 C 
ATOM      8  O   UNL     1      -0.408  -4.555  -2.583  0.00  0.00    -0.252 OA
ATOM      9  N   UNL     1      -0.275  -6.401  -1.356  0.00  0.00    -0.276 N 
ATOM     10  C   UNL     1      -0.214  -7.145  -0.084  0.00  0.00    +0.110 C 
ATOM     11  C   UNL     1      -0.746  -8.559  -0.426  0.00  0.00    +0.021 C 
ATOM     12  C   UNL     1      -0.165  -8.775  -1.848  0.00  0.00    +0.031 C 
ATOM     13  C   UNL     1      -0.236  -7.363  -2.467  0.00  0.00    +0.135 C 
ATOM     14  H   UNL     1      -0.260  -4.680   0.498  0.00  0.00    +0.156 HD
BRANCH   6  19
ATOM     15  C   UNL     1      -1.230   1.305  -0.875  0.00  0.00    +0.044 C 
ATOM     16  C   UNL     1      -1.006  -0.179  -0.742  0.00  0.00    -0.049 A 
ATOM     17  C   UNL     1      -1.371  -1.027  -1.772  0.00  0.00    +0.005 A 
ATOM     18  C   UNL     1      -1.167  -2.388  -1.655  0.00  0.00    +0.025 A 
ATOM     19  C   UNL     1      -0.593  -2.905  -0.501  0.00  0.00    +0.053 A 
ATOM     20  C   UNL     1      -0.226  -2.051   0.532  0.00  0.00    +0.062 A 
ATOM     21  C   UNL     1      -0.429  -0.690   0.406  0.00  0.00    +0.025 A 
ATOM     22 CL   UNL     1       0.491  -2.693   1.977  0.00  0.00    -0.082 Cl
ENDBRANCH   6  19
ENDBRANCH   1  13
BRANCH   4  23
ATOM     23  C   UNL     1       3.748  -6.553  -6.237  0.00  0.00    +0.275 C 
ATOM     24  O   UNL     1       3.291  -6.636  -7.362  0.00  0.00    -0.268 OA
ATOM     25  N   UNL     1       5.059  -6.295  -6.060  0.00  0.00    -0.280 N 
ATOM     26  H   UNL     1       5.438  -6.300  -5.167  0.00  0.00    +0.155 HD
BRANCH  25  27
ATOM     27  C   UNL     1       5.873  -6.019  -7.165  0.00  0.00    +0.037 A 
ATOM     28  C   UNL     1       7.198  -6.437  -7.173  0.00  0.00    +0.027 A 
ATOM     29  C   UNL     1       8.003  -6.165  -8.262  0.00  0.00    +0.051 A 
ATOM     30  C   UNL     1       7.492  -5.475  -9.350  0.00  0.00    +0.166 A 
ATOM     31  C   UNL     1       6.164  -5.054  -9.345  0.00  0.00    +0.168 A 
ATOM     32  C   UNL     1       5.356  -5.332  -8.255  0.00  0.00    +0.072 A 
ATOM     33  O   UNL     1       5.908  -4.404 -10.517  0.00  0.00    -0.453 OA
ATOM     34  C   UNL     1       7.198  -4.073 -11.064  0.00  0.00    +0.466 C 
ATOM     35  O   UNL     1       8.067  -5.088 -10.527  0.00  0.00    -0.453 OA
ENDBRANCH  25  27
ENDBRANCH   4  23
TORSDOF 4
