REMARK  Name = ZINC12153442
REMARK  12 active torsions:
REMARK  status: ('A' for Active; 'I' for Inactive)
REMARK    1  A    between atoms: C_1  and  C_2
REMARK    2  A    between atoms: C_4  and  O_38
REMARK    3  A    between atoms: C_6  and  O_37
REMARK    4  A    between atoms: C_8  and  O_36
REMARK    5  A    between atoms: C_10  and  O_13
REMARK    6  A    between atoms: O_13  and  C_14
REMARK    7  A    between atoms: C_18  and  O_35
REMARK    8  A    between atoms: C_20  and  O_34
REMARK    9  A    between atoms: C_24  and  C_25
REMARK   10  A    between atoms: C_27  and  O_33
REMARK   11  A    between atoms: C_28  and  O_32
REMARK   12  A    between atoms: C_29  and  O_31
REMARK                            x       y       z     vdW  Elec       q    Type
REMARK                         _______ _______ _______ _____ _____    ______ ____
ROOT
ATOM      1  C   UNL     1      -2.164  -0.348   3.844  0.00  0.00    +0.214 A 
ATOM      2  C   UNL     1      -2.362  -1.158   2.696  0.00  0.00    +0.238 A 
ATOM      3  O   UNL     1      -2.422  -0.670   1.579  0.00  0.00    -0.283 OA
ATOM      4  C   UNL     1      -2.488  -2.609   2.905  0.00  0.00    +0.109 A 
ATOM      5  C   UNL     1      -2.681  -3.484   1.827  0.00  0.00    +0.135 A 
ATOM      6  C   UNL     1      -2.801  -4.840   2.065  0.00  0.00    +0.091 A 
ATOM      7  C   UNL     1      -2.729  -5.331   3.364  0.00  0.00    +0.124 A 
ATOM      8  C   UNL     1      -2.539  -4.472   4.435  0.00  0.00    +0.092 A 
ATOM      9  C   UNL     1      -2.416  -3.108   4.217  0.00  0.00    +0.147 A 
ATOM     10  O   UNL     1      -2.231  -2.258   5.249  0.00  0.00    -0.451 OA
ATOM     11  C   UNL     1      -2.109  -0.931   5.074  0.00  0.00    +0.181 A 
ENDROOT
BRANCH  11  12
ATOM     12  C   UNL     1      -1.908  -0.075   6.258  0.00  0.00    +0.028 A 
ATOM     13  C   UNL     1      -0.940  -0.410   7.209  0.00  0.00    +0.061 A 
ATOM     14  C   UNL     1      -0.750   0.398   8.315  0.00  0.00    +0.163 A 
ATOM     15  C   UNL     1      -1.529   1.538   8.487  0.00  0.00    +0.201 A 
ATOM     16  C   UNL     1      -2.498   1.872   7.544  0.00  0.00    +0.163 A 
ATOM     17  C   UNL     1      -2.688   1.071   6.434  0.00  0.00    +0.061 A 
BRANCH  16  18
ATOM     18  O   UNL     1      -3.256   2.988   7.716  0.00  0.00    -0.503 OA
ATOM     19  H   UNL     1      -4.073   2.836   8.211  0.00  0.00    +0.292 HD
ENDBRANCH  16  18
BRANCH  15  20
ATOM     20  O   UNL     1      -1.344   2.328   9.579  0.00  0.00    -0.501 OA
ATOM     21  H   UNL     1      -1.887   2.081  10.339  0.00  0.00    +0.292 HD
ENDBRANCH  15  20
BRANCH  14  22
ATOM     22  O   UNL     1       0.195   0.075   9.238  0.00  0.00    -0.503 OA
ATOM     23  H   UNL     1      -0.129  -0.494   9.950  0.00  0.00    +0.292 HD
ENDBRANCH  14  22
ENDBRANCH  11  12
BRANCH   7  24
ATOM     24  O   UNL     1      -2.849  -6.665   3.586  0.00  0.00    -0.507 OA
ATOM     25  H   UNL     1      -3.758  -6.960   3.733  0.00  0.00    +0.292 HD
ENDBRANCH   7  24
BRANCH   5  26
ATOM     26  O   UNL     1      -2.750  -3.003   0.560  0.00  0.00    -0.506 OA
ATOM     27  H   UNL     1      -3.645  -2.772   0.275  0.00  0.00    +0.292 HD
ENDBRANCH   5  26
BRANCH   1  28
ATOM     28  O   UNL     1      -2.035   1.001   3.718  0.00  0.00    -0.453 OA
BRANCH  28  34
ATOM     29  C   UNL     1      -0.028   1.137   0.036  0.00  0.00    +0.041 C 
ATOM     30  C   UNL     1      -0.769   1.614   1.287  0.00  0.00    +0.150 C 
ATOM     31  C   UNL     1      -0.822   3.144   1.296  0.00  0.00    +0.174 C 
ATOM     32  C   UNL     1      -1.512   3.615   2.580  0.00  0.00    +0.180 C 
ATOM     33  C   UNL     1      -0.757   3.052   3.788  0.00  0.00    +0.214 C 
ATOM     34  C   UNL     1      -0.707   1.526   3.683  0.00  0.00    +0.339 C 
ATOM     35  O   UNL     1      -0.081   1.155   2.452  0.00  0.00    -0.334 OA
BRANCH  33  36
ATOM     36  O   UNL     1       0.573   3.574   3.808  0.00  0.00    -0.383 OA
ATOM     37  H   UNL     1       1.110   3.255   4.546  0.00  0.00    +0.210 HD
ENDBRANCH  33  36
BRANCH  32  38
ATOM     38  O   UNL     1      -1.501   5.043   2.632  0.00  0.00    -0.386 OA
ATOM     39  H   UNL     1      -1.916   5.411   3.424  0.00  0.00    +0.210 HD
ENDBRANCH  32  38
BRANCH  31  40
ATOM     40  O   UNL     1      -1.560   3.603   0.161  0.00  0.00    -0.387 OA
ATOM     41  H   UNL     1      -1.182   3.336  -0.688  0.00  0.00    +0.210 HD
ENDBRANCH  31  40
ENDBRANCH  28  34
ENDBRANCH   1  28
TORSDOF 11
