REMARK  Name = ZINC59438858
REMARK  8 active torsions:
REMARK  status: ('A' for Active; 'I' for Inactive)
REMARK    1  A    between atoms: C_1  and  O_2
REMARK    2  A    between atoms: O_2  and  C_3
REMARK    3  A    between atoms: C_6  and  C_9
REMARK    4  A    between atoms: N_11  and  C_12
REMARK    5  A    between atoms: C_12  and  N_14
REMARK    6  A    between atoms: N_14  and  C_15
REMARK    7  A    between atoms: C_18  and  N_21
REMARK    8  A    between atoms: C_22  and  C_24
REMARK                            x       y       z     vdW  Elec       q    Type
REMARK                         _______ _______ _______ _____ _____    ______ ____
ROOT
ATOM      1  C   UNL     1       3.813  -6.459  -6.603  0.00  0.00    +0.033 A 
ATOM      2  C   UNL     1       4.484  -5.771  -7.606  0.00  0.00    +0.025 A 
ATOM      3  C   UNL     1       5.129  -6.468  -8.608  0.00  0.00    +0.025 A 
ATOM      4  C   UNL     1       5.108  -7.857  -8.612  0.00  0.00    +0.034 A 
ATOM      5  C   UNL     1       4.438  -8.545  -7.609  0.00  0.00    +0.025 A 
ATOM      6  C   UNL     1       3.797  -7.848  -6.604  0.00  0.00    +0.025 A 
ENDROOT
BRANCH   4   7
ATOM      7  N   UNL     1       5.763  -8.564  -9.628  0.00  0.00    -0.282 N 
ATOM      8  C   UNL     1       6.909  -8.085 -10.151  0.00  0.00    +0.248 C 
ATOM      9  O   UNL     1       7.333  -7.002  -9.798  0.00  0.00    -0.270 OA
ATOM     10  H   UNL     1       5.391  -9.398  -9.956  0.00  0.00    +0.155 HD
BRANCH   8  11
ATOM     11  C   UNL     1       7.651  -8.878 -11.154  0.00  0.00    +0.037 A 
ATOM     12  C   UNL     1       7.164 -10.120 -11.566  0.00  0.00    +0.014 A 
ATOM     13  C   UNL     1       7.861 -10.854 -12.502  0.00  0.00    +0.016 A 
ATOM     14  C   UNL     1       9.041 -10.362 -13.034  0.00  0.00    +0.018 A 
ATOM     15  C   UNL     1       9.529  -9.131 -12.629  0.00  0.00    +0.016 A 
ATOM     16  C   UNL     1       8.839  -8.385 -11.697  0.00  0.00    +0.014 A 
ATOM     17 BR   UNL     1       9.991 -11.377 -14.316  0.00  0.00    -0.050 Br
ENDBRANCH   8  11
ENDBRANCH   4   7
BRANCH   1  18
ATOM     18  N   UNL     1       3.158  -5.752  -5.587  0.00  0.00    -0.297 N 
ATOM     19  H   UNL     1       3.573  -4.967  -5.197  0.00  0.00    +0.154 HD
BRANCH  18  20
ATOM     20  C   UNL     1       1.951  -6.163  -5.151  0.00  0.00    +0.141 C 
ATOM     21  S   UNL     1       1.153  -7.459  -5.934  0.00  0.00    -0.018 S 
BRANCH  20  24
ATOM     22  C   UNL     1       0.164  -5.963  -3.661  0.00  0.00    +0.250 C 
ATOM     23  O   UNL     1      -0.402  -6.884  -4.217  0.00  0.00    -0.270 OA
ATOM     24  N   UNL     1       1.372  -5.553  -4.098  0.00  0.00    -0.264 N 
ATOM     25  H   UNL     1       1.823  -4.818  -3.654  0.00  0.00    +0.157 HD
BRANCH  22  29
ATOM     26  C   UNL     1      -1.660  -4.042  -0.343  0.00  0.00    +0.120 A 
ATOM     27  C   UNL     1      -2.310  -5.095  -0.978  0.00  0.00    +0.046 A 
ATOM     28  C   UNL     1      -1.722  -5.720  -2.055  0.00  0.00    +0.016 A 
ATOM     29  C   UNL     1      -0.470  -5.296  -2.509  0.00  0.00    +0.037 A 
ATOM     30  C   UNL     1       0.180  -4.237  -1.867  0.00  0.00    +0.016 A 
ATOM     31  C   UNL     1      -0.418  -3.613  -0.795  0.00  0.00    +0.046 A 
BRANCH  26  33
ATOM     32  C   UNL     1      -3.520  -3.919   1.129  0.00  0.00    +0.277 C 
ATOM     33  O   UNL     1      -2.243  -3.428   0.717  0.00  0.00    -0.495 OA
ENDBRANCH  26  33
ENDBRANCH  22  29
ENDBRANCH  20  24
ENDBRANCH  18  20
ENDBRANCH   1  18
TORSDOF 7
