REMARK  Name = ZINC08882935
REMARK  5 active torsions:
REMARK  status: ('A' for Active; 'I' for Inactive)
REMARK    1  A    between atoms: C_3  and  C_11
REMARK    2  A    between atoms: C_5  and  C_7
REMARK    3  A    between atoms: N_13  and  C_14
REMARK    4  A    between atoms: C_17  and  S_20
REMARK    5  A    between atoms: S_20  and  N_23
REMARK                            x       y       z     vdW  Elec       q    Type
REMARK                         _______ _______ _______ _____ _____    ______ ____
ROOT
ATOM      1  C   UNL     1      -0.014   1.394   0.004  0.00  0.00    +0.034 A 
ATOM      2  C   UNL     1      -1.211   2.076   0.188  0.00  0.00    +0.025 A 
ATOM      3  C   UNL     1      -1.223   3.457   0.194  0.00  0.00    +0.030 A 
ATOM      4  C   UNL     1      -0.047   4.161   0.008  0.00  0.00    +0.106 A 
ATOM      5  C   UNL     1       1.145   3.485  -0.181  0.00  0.00    +0.030 A 
ATOM      6  C   UNL     1       1.165   2.104  -0.183  0.00  0.00    +0.025 A 
ENDROOT
BRANCH   1   9
ATOM      7  C   UNL     1       1.074  -0.666   0.481  0.00  0.00    +0.248 C 
ATOM      8  O   UNL     1       1.984  -0.052   1.003  0.00  0.00    -0.270 OA
ATOM      9  N   UNL     1       0.002  -0.004   0.002  0.00  0.00    -0.282 N 
ATOM     10  H   UNL     1      -0.758  -0.497  -0.345  0.00  0.00    +0.155 HD
BRANCH   7  13
ATOM     11  C   UNL     1       0.168  -4.221  -0.323  0.00  0.00    +0.001 A 
ATOM     12  C   UNL     1       0.096  -2.847  -0.221  0.00  0.00    +0.013 A 
ATOM     13  C   UNL     1       1.142  -2.139   0.373  0.00  0.00    +0.038 A 
ATOM     14  C   UNL     1       2.251  -2.828   0.869  0.00  0.00    +0.025 A 
ATOM     15  C   UNL     1       2.308  -4.202   0.764  0.00  0.00    +0.056 A 
ATOM     16  C   UNL     1       1.270  -4.897   0.170  0.00  0.00    +0.012 A 
BRANCH  15  17
ATOM     17  C   UNL     1       3.503  -4.947   1.299  0.00  0.00    +0.417 C 
ATOM     18  F   UNL     1       3.278  -5.291   2.636  0.00  0.00    -0.166 F 
ATOM     19  F   UNL     1       3.704  -6.109   0.546  0.00  0.00    -0.166 F 
ATOM     20  F   UNL     1       4.638  -4.133   1.212  0.00  0.00    -0.166 F 
ENDBRANCH  15  17
ENDBRANCH   7  13
ENDBRANCH   1   9
BRANCH   4  21
ATOM     21  S   UNL     1      -0.068   5.923   0.009  0.00  0.00    +0.061 S 
ATOM     22  O   UNL     1      -1.217   6.315   0.749  0.00  0.00    -0.153 OA
ATOM     23  O   UNL     1       1.243   6.344   0.359  0.00  0.00    -0.153 OA
BRANCH  21  24
ATOM     24  N   UNL     1      -0.322   6.411  -1.553  0.00  0.00    -0.176 NA
ATOM     25  C   UNL     1       0.809   6.653  -2.456  0.00  0.00    +0.114 C 
ATOM     26  C   UNL     1       0.666   7.992  -3.163  0.00  0.00    +0.025 C 
ATOM     27  C   UNL     1      -0.733   8.177  -3.753  0.00  0.00    +0.017 C 
ATOM     28  C   UNL     1      -1.754   8.052  -2.619  0.00  0.00    +0.052 C 
ATOM     29  C   UNL     1      -1.686   6.618  -2.065  0.00  0.00    +0.119 C 
ATOM     30  C   UNL     1      -1.407   8.995  -1.490  0.00  0.00    +0.026 A 
ATOM     31  C   UNL     1      -2.393   9.412  -0.680  0.00  0.00    +0.022 A 
ATOM     32  C   UNL     1      -2.123  10.234   0.419  0.00  0.00    +0.007 A 
ATOM     33  C   UNL     1      -0.831  10.591   0.673  0.00  0.00    +0.070 A 
ATOM     34  C   UNL     1       0.181  10.146  -0.188  0.00  0.00    +0.251 A 
ATOM     35  O   UNL     1       1.345  10.419   0.057  0.00  0.00    -0.268 OA
ATOM     36  N   UNL     1      -0.118   9.414  -1.290  0.00  0.00    -0.312 N 
ATOM     37  C   UNL     1       0.981   9.135  -2.215  0.00  0.00    +0.130 C 
ENDBRANCH  21  24
ENDBRANCH   4  21
TORSDOF 5
