REMARK  Name = ZINC35227417
REMARK  7 active torsions:
REMARK  status: ('A' for Active; 'I' for Inactive)
REMARK    1  A    between atoms: C_1  and  O_2
REMARK    2  A    between atoms: O_2  and  C_3
REMARK    3  A    between atoms: C_6  and  N_9
REMARK    4  A    between atoms: N_11  and  C_28
REMARK    5  A    between atoms: C_15  and  C_18
REMARK    6  A    between atoms: N_20  and  C_21
REMARK    7  A    between atoms: C_28  and  C_29
REMARK                            x       y       z     vdW  Elec       q    Type
REMARK                         _______ _______ _______ _____ _____    ______ ____
ROOT
ATOM      1  N   UNL     1       2.469  -2.432  -4.298  0.00  0.00    -0.226 NA
ATOM      2  C   UNL     1       3.279  -3.444  -4.095  0.00  0.00    +0.164 C 
ATOM      3  N   UNL     1       3.912  -4.082  -5.148  0.00  0.00    -0.246 N 
ATOM      4  C   UNL     1       4.957  -4.884  -5.013  0.00  0.00    +0.223 C 
ATOM      5  O   UNL     1       5.473  -5.254  -6.046  0.00  0.00    -0.275 OA
ATOM      6  C   UNL     1       5.582  -5.394  -3.760  0.00  0.00    +0.120 C 
ATOM      7  C   UNL     1       5.386  -4.441  -2.579  0.00  0.00    +0.149 C 
ATOM      8  S   UNL     1       3.615  -4.045  -2.462  0.00  0.00    -0.077 S 
ENDROOT
BRANCH   1  12
ATOM      9  C   UNL     1       0.632  -0.574  -1.084  0.00  0.00    +0.120 A 
ATOM     10  C   UNL     1       1.206   0.191  -2.090  0.00  0.00    +0.048 A 
ATOM     11  C   UNL     1       1.819  -0.424  -3.162  0.00  0.00    +0.031 A 
ATOM     12  C   UNL     1       1.861  -1.817  -3.234  0.00  0.00    +0.067 A 
ATOM     13  C   UNL     1       1.283  -2.583  -2.220  0.00  0.00    +0.031 A 
ATOM     14  C   UNL     1       0.677  -1.960  -1.149  0.00  0.00    +0.048 A 
BRANCH   9  16
ATOM     15  C   UNL     1       0.018   1.465  -0.025  0.00  0.00    +0.277 C 
ATOM     16  O   UNL     1       0.028   0.036  -0.029  0.00  0.00    -0.495 OA
ENDBRANCH   9  16
ENDBRANCH   1  12
BRANCH   7  17
ATOM     17  C   UNL     1       5.847  -5.104  -1.307  0.00  0.00    +0.231 C 
ATOM     18  O   UNL     1       5.774  -6.309  -1.190  0.00  0.00    -0.274 OA
ATOM     19  N   UNL     1       6.341  -4.358  -0.299  0.00  0.00    -0.285 N 
ATOM     20  H   UNL     1       6.463  -3.403  -0.417  0.00  0.00    +0.155 HD
BRANCH  19  21
ATOM     21  C   UNL     1       6.679  -4.962   0.918  0.00  0.00    +0.034 A 
ATOM     22  C   UNL     1       6.480  -4.280   2.112  0.00  0.00    +0.026 A 
ATOM     23  C   UNL     1       6.814  -4.878   3.311  0.00  0.00    +0.040 A 
ATOM     24  C   UNL     1       7.349  -6.155   3.325  0.00  0.00    +0.124 A 
ATOM     25  C   UNL     1       7.548  -6.837   2.136  0.00  0.00    +0.040 A 
ATOM     26  C   UNL     1       7.209  -6.245   0.934  0.00  0.00    +0.026 A 
ATOM     27  F   UNL     1       7.676  -6.737   4.499  0.00  0.00    -0.205 F 
ENDBRANCH  19  21
ENDBRANCH   7  17
BRANCH   3  28
ATOM     28  C   UNL     1       3.393  -3.854  -6.499  0.00  0.00    +0.150 C 
BRANCH  28  29
ATOM     29  C   UNL     1       4.089  -2.665  -7.110  0.00  0.00    -0.030 A 
ATOM     30  C   UNL     1       3.567  -1.396  -6.940  0.00  0.00    +0.006 A 
ATOM     31  C   UNL     1       4.204  -0.305  -7.500  0.00  0.00    +0.020 A 
ATOM     32  C   UNL     1       5.365  -0.483  -8.232  0.00  0.00    +0.041 A 
ATOM     33  C   UNL     1       5.887  -1.753  -8.402  0.00  0.00    +0.020 A 
ATOM     34  C   UNL     1       5.251  -2.843  -7.836  0.00  0.00    +0.006 A 
ATOM     35 CL   UNL     1       6.166   0.886  -8.937  0.00  0.00    -0.084 Cl
ENDBRANCH  28  29
ENDBRANCH   3  28
TORSDOF 6
