REMARK  Name = ZINC41290368
REMARK  4 active torsions:
REMARK  status: ('A' for Active; 'I' for Inactive)
REMARK    1  A    between atoms: C_6  and  C_7
REMARK    2  A    between atoms: C_7  and  C_8
REMARK    3  A    between atoms: C_8  and  C_10
REMARK    4  A    between atoms: C_8  and  N_12
REMARK                            x       y       z     vdW  Elec       q    Type
REMARK                         _______ _______ _______ _____ _____    ______ ____
ROOT
ATOM      1  C   UNL     1      -0.017   1.378   0.010  0.00  0.00    +0.007 A 
ATOM      2  C   UNL     1       1.170   2.088   0.002  0.00  0.00    +0.050 A 
ATOM      3  C   UNL     1       2.380   1.416  -0.013  0.00  0.00    +0.166 A 
ATOM      4  C   UNL     1       2.399   0.023  -0.021  0.00  0.00    +0.166 A 
ATOM      5  C   UNL     1       1.207  -0.682  -0.014  0.00  0.00    +0.053 A 
ATOM      6  C   UNL     1       0.002  -0.004   0.002  0.00  0.00    -0.041 A 
ATOM      7  O   UNL     1       3.698  -0.395  -0.036  0.00  0.00    -0.453 OA
ATOM      8  C   UNL     1       4.466   0.750  -0.450  0.00  0.00    +0.466 C 
ATOM      9  O   UNL     1       3.668   1.870  -0.024  0.00  0.00    -0.453 OA
ENDROOT
BRANCH   6  10
ATOM     10  C   UNL     1      -1.294  -0.774   0.010  0.00  0.00    +0.069 C 
BRANCH  10  11
ATOM     11  C   UNL     1      -1.746  -1.026  -1.429  0.00  0.00    +0.164 C 
BRANCH  11  12
ATOM     12  N   UNL     1      -0.777  -1.903  -2.100  0.00  0.00    -0.287 NA
ATOM     13  C   UNL     1      -0.882  -3.297  -1.596  0.00  0.00    +0.085 C 
ATOM     14  C   UNL     1      -0.223  -4.132  -2.722  0.00  0.00    +0.017 C 
ATOM     15  C   UNL     1      -0.682  -3.405  -4.006  0.00  0.00    +0.017 C 
ATOM     16  C   UNL     1      -1.047  -1.979  -3.552  0.00  0.00    +0.085 C 
ENDBRANCH  11  12
BRANCH  11  17
ATOM     17  C   UNL     1      -3.069  -1.671  -1.422  0.00  0.00    +0.082 C 
ATOM     18  N   UNL     1      -4.090  -2.169  -1.416  0.00  0.00    -0.195 NA
ENDBRANCH  11  17
ENDBRANCH  10  11
ENDBRANCH   6  10
TORSDOF 4
