REMARK  Name = ZINC35597804
REMARK  4 active torsions:
REMARK  status: ('A' for Active; 'I' for Inactive)
REMARK    1  A    between atoms: C_1  and  C_2
REMARK    2  A    between atoms: N_12  and  C_13
REMARK    3  A    between atoms: C_15  and  C_17
REMARK    4  A    between atoms: C_17  and  C_22
REMARK                            x       y       z     vdW  Elec       q    Type
REMARK                         _______ _______ _______ _____ _____    ______ ____
ROOT
ATOM      1  C   UNL     1       0.492   1.893  -0.082  0.00  0.00    +0.013 C 
ATOM      2  C   UNL     1       0.443   0.370  -0.217  0.00  0.00    +0.031 C 
ATOM      3  C   UNL     1       1.199  -0.062  -1.477  0.00  0.00    +0.104 C 
ATOM      4  C   UNL     1       1.515  -1.530  -1.446  0.00  0.00    +0.219 C 
ATOM      5  O   UNL     1       1.439  -2.170  -2.474  0.00  0.00    -0.275 OA
ATOM      6  N   UNL     1       1.881  -2.160  -0.309  0.00  0.00    -0.270 N 
ATOM      7  C   UNL     1       1.773  -1.462   0.893  0.00  0.00    +0.128 A 
ATOM      8  C   UNL     1       1.107  -0.268   0.977  0.00  0.00    +0.037 A 
ATOM      9  C   UNL     1       1.182   0.174   2.295  0.00  0.00    +0.152 A 
ATOM     10  N   UNL     1       1.848  -0.723   2.990  0.00  0.00    -0.154 NA
ATOM     11  N   UNL     1       2.222  -1.767   2.125  0.00  0.00    -0.251 N 
ATOM     12  C   UNL     1       2.966  -2.972   2.499  0.00  0.00    +0.174 C 
ATOM     13  N   UNL     1       0.642   1.367   2.794  0.00  0.00    -0.268 N 
ATOM     14  C   UNL     1       0.884   1.735   4.068  0.00  0.00    +0.229 C 
ATOM     15  O   UNL     1       1.635   1.077   4.757  0.00  0.00    -0.274 OA
ATOM     16  H   UNL     1       2.210  -3.073  -0.329  0.00  0.00    +0.156 HD
ATOM     17  H   UNL     1       0.094   1.928   2.223  0.00  0.00    +0.156 HD
ENDROOT
BRANCH  14  18
ATOM     18  C   UNL     1       0.221   2.963   4.636  0.00  0.00    +0.072 C 
ATOM     19  C   UNL     1       0.610   4.202   3.810  0.00  0.00    +0.021 C 
ATOM     20  C   UNL     1       1.333   5.165   4.774  0.00  0.00    +0.001 C 
ATOM     21  C   UNL     1       1.867   4.245   5.901  0.00  0.00    +0.001 C 
ATOM     22  C   UNL     1       0.722   3.217   6.073  0.00  0.00    +0.021 C 
BRANCH  18  23
ATOM     23  C   UNL     1      -1.276   2.789   4.635  0.00  0.00    -0.032 A 
ATOM     24  C   UNL     1      -1.830   1.578   4.267  0.00  0.00    +0.006 A 
ATOM     25  C   UNL     1      -3.203   1.418   4.265  0.00  0.00    +0.020 A 
ATOM     26  C   UNL     1      -4.023   2.471   4.631  0.00  0.00    +0.041 A 
ATOM     27  C   UNL     1      -3.467   3.683   4.999  0.00  0.00    +0.020 A 
ATOM     28  C   UNL     1      -2.094   3.840   5.006  0.00  0.00    +0.006 A 
ATOM     29 CL   UNL     1      -5.747   2.271   4.629  0.00  0.00    -0.084 Cl
ENDBRANCH  18  23
ENDBRANCH  14  18
TORSDOF 2
