REMARK  Name = ZINC64120560
REMARK  4 active torsions:
REMARK  status: ('A' for Active; 'I' for Inactive)
REMARK    1  A    between atoms: C_6  and  C_11
REMARK    2  A    between atoms: C_15  and  N_17
REMARK    3  A    between atoms: C_18  and  C_20
REMARK    4  A    between atoms: C_26  and  C_28
REMARK                            x       y       z     vdW  Elec       q    Type
REMARK                         _______ _______ _______ _____ _____    ______ ____
ROOT
ATOM      1  N   UNL     1       5.067  -6.028   2.120  0.00  0.00    -0.285 N 
ATOM      2  C   UNL     1       5.618  -6.627   3.194  0.00  0.00    +0.220 C 
ATOM      3  O   UNL     1       5.622  -6.062   4.268  0.00  0.00    -0.275 OA
ATOM      4  H   UNL     1       4.995  -6.509   1.280  0.00  0.00    +0.155 HD
ENDROOT
BRANCH   2   5
ATOM      5  C   UNL     1       6.229  -7.997   3.062  0.00  0.00    +0.078 C 
ATOM      6  C   UNL     1       5.162  -8.988   2.592  0.00  0.00    +0.032 C 
ATOM      7  C   UNL     1       5.795 -10.373   2.425  0.00  0.00    +0.108 C 
ATOM      8  N   UNL     1       6.452 -10.748   3.685  0.00  0.00    -0.299 N 
ATOM      9  C   UNL     1       7.431  -9.822   4.273  0.00  0.00    +0.108 C 
ATOM     10  C   UNL     1       6.779  -8.444   4.419  0.00  0.00    +0.032 C 
ATOM     11  C   UNL     1       6.163 -11.917   4.289  0.00  0.00    +0.244 C 
ATOM     12  O   UNL     1       5.354 -12.672   3.794  0.00  0.00    -0.273 OA
BRANCH  11  13
ATOM     13  C   UNL     1       6.846 -12.287   5.581  0.00  0.00    +0.204 C 
ATOM     14  C   UNL     1       8.358 -12.480   5.338  0.00  0.00    +0.043 C 
ATOM     15  C   UNL     1       8.683 -13.702   6.239  0.00  0.00    +0.031 C 
ATOM     16  C   UNL     1       7.368 -14.513   6.120  0.00  0.00    +0.161 C 
ATOM     17  O   UNL     1       6.322 -13.527   6.070  0.00  0.00    -0.367 OA
ENDBRANCH  11  13
ENDBRANCH   2   5
BRANCH   1  22
ATOM     18  C   UNL     1       3.033  -3.014   1.573  0.00  0.00    -0.020 A 
ATOM     19  C   UNL     1       3.674  -2.112   2.403  0.00  0.00    +0.006 A 
ATOM     20  C   UNL     1       4.775  -2.507   3.139  0.00  0.00    +0.002 A 
ATOM     21  C   UNL     1       5.240  -3.804   3.047  0.00  0.00    +0.023 A 
ATOM     22  C   UNL     1       4.599  -4.713   2.215  0.00  0.00    +0.034 A 
ATOM     23  C   UNL     1       3.489  -4.314   1.481  0.00  0.00    +0.029 A 
BRANCH  18  29
ATOM     24  C   UNL     1      -1.059   0.839   2.000  0.00  0.00    +0.001 A 
ATOM     25  C   UNL     1      -0.189   1.536   1.150  0.00  0.00    +0.002 A 
ATOM     26  C   UNL     1       0.854   0.945   0.529  0.00  0.00    +0.026 A 
ATOM     27  C   UNL     1       1.112  -0.440   0.720  0.00  0.00    +0.043 A 
ATOM     28  N   UNL     1       2.042  -1.229   0.239  0.00  0.00    -0.374 N 
ATOM     29  C   UNL     1       1.832  -2.579   0.773  0.00  0.00    +0.133 C 
ATOM     30  C   UNL     1       0.615  -2.488   1.665  0.00  0.00    +0.012 C 
ATOM     31  C   UNL     1       0.208  -1.199   1.613  0.00  0.00    -0.004 A 
ATOM     32  C   UNL     1      -0.903  -0.481   2.250  0.00  0.00    +0.010 A 
ATOM     33  H   UNL     1       2.750  -0.964  -0.369  0.00  0.00    +0.161 HD
ENDBRANCH  18  29
ENDBRANCH   1  22
TORSDOF 4
