REMARK  Name = ZINC09469611
REMARK  5 active torsions:
REMARK  status: ('A' for Active; 'I' for Inactive)
REMARK    1  A    between atoms: C_1  and  C_2
REMARK    2  A    between atoms: C_5  and  C_18
REMARK    3  A    between atoms: N_8  and  C_10
REMARK    4  A    between atoms: C_10  and  C_11
REMARK    5  A    between atoms: C_28  and  N_32
REMARK                            x       y       z     vdW  Elec       q    Type
REMARK                         _______ _______ _______ _____ _____    ______ ____
ROOT
ATOM      1  C   UNL     1      -4.267   2.758   1.673  0.00  0.00    +0.254 C 
ATOM      2  O   UNL     1      -4.937   1.744   1.731  0.00  0.00    -0.269 OA
ATOM      3  N   UNL     1      -4.859   3.943   1.423  0.00  0.00    -0.292 N 
ATOM      4  C   UNL     1      -6.311   4.044   1.217  0.00  0.00    +0.113 C 
ATOM      5  C   UNL     1      -6.929   4.878   2.339  0.00  0.00    +0.056 C 
ATOM      6  C   UNL     1      -6.122   6.162   2.518  0.00  0.00    -0.022 A 
ATOM      7  C   UNL     1      -4.853   6.252   2.061  0.00  0.00    +0.013 A 
ATOM      8  S   UNL     1      -4.315   7.889   2.485  0.00  0.00    -0.072 S 
ATOM      9  C   UNL     1      -5.788   8.455   3.272  0.00  0.00    +0.114 A 
ATOM     10  C   UNL     1      -6.660   7.341   3.179  0.00  0.00    +0.051 A 
ATOM     11  C   UNL     1      -7.961   7.493   3.739  0.00  0.00    +0.128 A 
ATOM     12  N   UNL     1      -8.218   8.676   4.294  0.00  0.00    -0.220 NA
ATOM     13  C   UNL     1      -7.354   9.670   4.344  0.00  0.00    +0.224 A 
ATOM     14  N   UNL     1      -6.127   9.594   3.841  0.00  0.00    -0.228 NA
ATOM     15  C   UNL     1      -4.075   5.191   1.350  0.00  0.00    +0.150 C 
ENDROOT
BRANCH   1  20
ATOM     16  C   UNL     1       0.438  -0.438   3.239  0.00  0.00    +0.068 C 
ATOM     17  C   UNL     1       0.469   1.003   2.801  0.00  0.00    +0.068 A 
ATOM     18  C   UNL     1      -0.672   1.779   2.415  0.00  0.00    +0.031 A 
ATOM     19  C   UNL     1      -2.063   1.634   2.292  0.00  0.00    +0.032 A 
ATOM     20  C   UNL     1      -2.817   2.691   1.874  0.00  0.00    +0.077 A 
ATOM     21  S   UNL     1      -1.597   3.971   1.634  0.00  0.00    -0.064 S 
ATOM     22  C   UNL     1      -0.157   3.045   2.097  0.00  0.00    +0.107 A 
ATOM     23  N   UNL     1       1.178   3.022   2.271  0.00  0.00    -0.252 N 
ATOM     24  N   UNL     1       1.535   1.740   2.709  0.00  0.00    -0.175 NA
BRANCH  23  25
ATOM     25  C   UNL     1       2.096   4.141   2.042  0.00  0.00    +0.180 C 
BRANCH  25  26
ATOM     26  C   UNL     1       2.579   4.110   0.615  0.00  0.00    -0.026 A 
ATOM     27  C   UNL     1       3.726   3.411   0.289  0.00  0.00    +0.008 A 
ATOM     28  C   UNL     1       4.168   3.378  -1.020  0.00  0.00    +0.038 A 
ATOM     29  C   UNL     1       3.467   4.054  -2.004  0.00  0.00    +0.123 A 
ATOM     30  C   UNL     1       2.321   4.759  -1.675  0.00  0.00    +0.038 A 
ATOM     31  C   UNL     1       1.878   4.786  -0.366  0.00  0.00    +0.008 A 
ATOM     32  F   UNL     1       3.900   4.027  -3.283  0.00  0.00    -0.205 F 
ENDBRANCH  25  26
ENDBRANCH  23  25
ENDBRANCH   1  20
BRANCH  11  33
ATOM     33  N   UNL     1      -8.898   6.476   3.708  0.00  0.00    -0.343 N 
ATOM     34  H   UNL     1      -8.617   5.562   3.549  0.00  0.00    +0.144 HD
ATOM     35  H   UNL     1      -9.837   6.678   3.846  0.00  0.00    +0.144 HD
ENDBRANCH  11  33
TORSDOF 4
