REMARK  Name = ZINC04005585
REMARK  8 active torsions:
REMARK  status: ('A' for Active; 'I' for Inactive)
REMARK    1  A    between atoms: C_1  and  C_2
REMARK    2  A    between atoms: N_4  and  C_5
REMARK    3  A    between atoms: C_8  and  S_11
REMARK    4  A    between atoms: S_11  and  N_14
REMARK    5  A    between atoms: N_14  and  C_15
REMARK    6  A    between atoms: N_25  and  C_26
REMARK    7  A    between atoms: C_30  and  S_32
REMARK    8  A    between atoms: S_32  and  N_35
REMARK                            x       y       z     vdW  Elec       q    Type
REMARK                         _______ _______ _______ _____ _____    ______ ____
ROOT
ATOM      1  C   UNL     1      -0.975  -8.355   2.353  0.00  0.00    +0.203 A 
ATOM      2  C   UNL     1      -1.021  -8.677   3.730  0.00  0.00    +0.167 A 
ATOM      3  N   UNL     1      -1.125  -9.931   4.119  0.00  0.00    -0.227 NA
ATOM      4  C   UNL     1      -1.188 -10.909   3.203  0.00  0.00    +0.091 A 
ATOM      5  C   UNL     1      -1.299 -12.254   3.593  0.00  0.00    +0.030 A 
ATOM      6  C   UNL     1      -1.362 -13.229   2.644  0.00  0.00    +0.002 A 
ATOM      7  C   UNL     1      -1.317 -12.913   1.289  0.00  0.00    +0.002 A 
ATOM      8  C   UNL     1      -1.209 -11.619   0.876  0.00  0.00    +0.030 A 
ATOM      9  C   UNL     1      -1.142 -10.588   1.826  0.00  0.00    +0.092 A 
ATOM     10  N   UNL     1      -1.041  -9.306   1.444  0.00  0.00    -0.224 NA
ATOM     11  N   UNL     1      -0.956  -7.665   4.677  0.00  0.00    -0.297 N 
ATOM     12  H   UNL     1      -0.956  -6.737   4.396  0.00  0.00    +0.154 HD
ENDROOT
BRANCH  11  13
ATOM     13  C   UNL     1      -0.889  -7.983   6.036  0.00  0.00    +0.034 A 
ATOM     14  C   UNL     1      -0.229  -9.133   6.451  0.00  0.00    +0.023 A 
ATOM     15  C   UNL     1      -0.166  -9.444   7.795  0.00  0.00    +0.004 A 
ATOM     16  C   UNL     1      -0.759  -8.613   8.728  0.00  0.00    +0.028 A 
ATOM     17  C   UNL     1      -1.417  -7.468   8.319  0.00  0.00    +0.107 A 
ATOM     18  C   UNL     1      -1.479  -7.147   6.976  0.00  0.00    +0.051 A 
BRANCH  17  19
ATOM     19  S   UNL     1      -2.170  -6.412   9.511  0.00  0.00    +0.056 S 
ATOM     20  O   UNL     1      -3.190  -5.694   8.831  0.00  0.00    -0.153 OA
ATOM     21  O   UNL     1      -2.436  -7.215  10.653  0.00  0.00    -0.153 OA
BRANCH  19  22
ATOM     22  N   UNL     1      -1.032  -5.300   9.969  0.00  0.00    -0.204 NA
ATOM     23  H   UNL     1      -1.306  -4.412  10.249  0.00  0.00    +0.144 HD
ATOM     24  H   UNL     1      -0.091  -5.535   9.957  0.00  0.00    +0.144 HD
ENDBRANCH  19  22
ENDBRANCH  17  19
ENDBRANCH  11  13
BRANCH   1  25
ATOM     25  N   UNL     1      -0.866  -7.030   1.958  0.00  0.00    -0.074 NA
BRANCH  25  26
ATOM     26  S   UNL     1      -0.819  -6.648   0.347  0.00  0.00    +0.093 S 
ATOM     27  O   UNL     1      -2.090  -6.990  -0.189  0.00  0.00    -0.148 OA
ATOM     28  O   UNL     1       0.393  -7.187  -0.163  0.00  0.00    -0.148 OA
BRANCH  26  32
ATOM     29  C   UNL     1      -0.458  -2.143   0.051  0.00  0.00    +0.033 A 
ATOM     30  C   UNL     1       0.684  -2.930   0.109  0.00  0.00    +0.025 A 
ATOM     31  C   UNL     1       0.571  -4.304   0.199  0.00  0.00    +0.031 A 
ATOM     32  C   UNL     1      -0.678  -4.895   0.232  0.00  0.00    +0.111 A 
ATOM     33  C   UNL     1      -1.818  -4.114   0.174  0.00  0.00    +0.031 A 
ATOM     34  C   UNL     1      -1.712  -2.740   0.090  0.00  0.00    +0.025 A 
BRANCH  29  38
ATOM     35  C   UNL     1      -1.060   1.535   0.578  0.00  0.00    +0.109 C 
ATOM     36  C   UNL     1      -1.240   0.039   0.587  0.00  0.00    +0.214 C 
ATOM     37  O   UNL     1      -2.189  -0.454   1.159  0.00  0.00    -0.276 OA
ATOM     38  N   UNL     1      -0.347  -0.751  -0.041  0.00  0.00    -0.286 N 
ATOM     39  H   UNL     1       0.374  -0.355  -0.556  0.00  0.00    +0.155 HD
ENDBRANCH  29  38
ENDBRANCH  26  32
ENDBRANCH  25  26
ENDBRANCH   1  25
TORSDOF 7
