REMARK  Name = ZINC38990427
REMARK  8 active torsions:
REMARK  status: ('A' for Active; 'I' for Inactive)
REMARK    1  A    between atoms: C_1  and  C_2
REMARK    2  A    between atoms: C_5  and  N_9
REMARK    3  A    between atoms: C_10  and  C_12
REMARK    4  A    between atoms: C_12  and  S_13
REMARK    5  A    between atoms: S_13  and  C_14
REMARK    6  A    between atoms: C_18  and  C_22
REMARK    7  A    between atoms: N_20  and  N_21
REMARK    8  A    between atoms: C_25  and  C_28
REMARK                            x       y       z     vdW  Elec       q    Type
REMARK                         _______ _______ _______ _____ _____    ______ ____
ROOT
ATOM      1  C   UNL     1       0.599  -8.763   2.626  0.00  0.00    +0.214 C 
ATOM      2  N   UNL     1       1.772  -9.085   1.781  0.00  0.00    -0.228 NA
ATOM      3  N   UNL     1       1.339 -10.239   0.977  0.00  0.00    -0.234 NA
ATOM      4  C   UNL     1      -0.083  -9.927   0.680  0.00  0.00    +0.185 C 
ATOM      5  N   UNL     1      -0.586  -9.299   1.925  0.00  0.00    -0.197 NA
ATOM      6  H   UNL     1       2.017  -8.304   1.191  0.00  0.00    +0.143 HD
ATOM      7  H   UNL     1       1.879 -10.310   0.128  0.00  0.00    +0.143 HD
ENDROOT
BRANCH   4   8
ATOM      8  C   UNL     1      -0.860 -11.209   0.374  0.00  0.00    +0.187 C 
ATOM      9  C   UNL     1      -0.248 -11.937  -0.810  0.00  0.00    +0.034 C 
ATOM     10  C   UNL     1      -1.235 -11.950  -1.726  0.00  0.00    +0.091 C 
ATOM     11  N   UNL     1      -2.342 -11.330  -1.240  0.00  0.00    -0.154 NA
ATOM     12  N   UNL     1      -2.222 -10.894  -0.089  0.00  0.00    -0.176 NA
BRANCH  10  13
ATOM     13  C   UNL     1      -1.129 -12.557  -3.076  0.00  0.00    +0.002 A 
ATOM     14  C   UNL     1       0.055 -13.175  -3.473  0.00  0.00    +0.013 A 
ATOM     15  C   UNL     1       0.149 -13.738  -4.729  0.00  0.00    +0.039 A 
ATOM     16  C   UNL     1      -0.931 -13.690  -5.595  0.00  0.00    +0.123 A 
ATOM     17  C   UNL     1      -2.110 -13.076  -5.205  0.00  0.00    +0.039 A 
ATOM     18  C   UNL     1      -2.215 -12.515  -3.948  0.00  0.00    +0.013 A 
ATOM     19  F   UNL     1      -0.835 -14.242  -6.824  0.00  0.00    -0.205 F 
ENDBRANCH  10  13
ENDBRANCH   4   8
BRANCH   5  20
ATOM     20  N   UNL     1      -1.287 -10.267   2.753  0.00  0.00    -0.264 NA
ATOM     21  H   UNL     1      -1.599  -9.848   3.616  0.00  0.00    +0.137 HD
ATOM     22  H   UNL     1      -2.060 -10.679   2.251  0.00  0.00    +0.137 HD
ENDBRANCH   5  20
BRANCH   1  23
ATOM     23  S   UNL     1       0.447  -6.965   2.820  0.00  0.00    -0.115 S 
BRANCH  23  24
ATOM     24  C   UNL     1       0.310  -6.351   1.119  0.00  0.00    +0.168 C 
BRANCH  24  26
ATOM     25  N   UNL     1       0.059  -4.170  -0.022  0.00  0.00    -0.285 N 
ATOM     26  C   UNL     1       0.176  -4.850   1.136  0.00  0.00    +0.227 C 
ATOM     27  O   UNL     1       0.174  -4.254   2.192  0.00  0.00    -0.275 OA
ATOM     28  H   UNL     1      -0.015  -4.651  -0.861  0.00  0.00    +0.155 HD
BRANCH  25  33
ATOM     29  C   UNL     1       0.008   1.503   0.012  0.00  0.00    +0.045 C 
ATOM     30  C   UNL     1       0.022  -0.004   0.003  0.00  0.00    -0.032 A 
ATOM     31  C   UNL     1       0.777  -0.693   0.934  0.00  0.00    +0.006 A 
ATOM     32  C   UNL     1       0.792  -2.074   0.928  0.00  0.00    +0.023 A 
ATOM     33  C   UNL     1       0.046  -2.771  -0.014  0.00  0.00    +0.035 A 
ATOM     34  C   UNL     1      -0.712  -2.078  -0.948  0.00  0.00    +0.043 A 
ATOM     35  C   UNL     1      -0.726  -0.695  -0.934  0.00  0.00    +0.046 A 
ATOM     36 CL   UNL     1      -1.678   0.174  -2.096  0.00  0.00    -0.083 Cl
ENDBRANCH  25  33
ENDBRANCH  24  26
ENDBRANCH  23  24
ENDBRANCH   1  23
TORSDOF 7
