REMARK  Name = ZINC16185113
REMARK  8 active torsions:
REMARK  status: ('A' for Active; 'I' for Inactive)
REMARK    1  A    between atoms: C_1  and  C_2
REMARK    2  A    between atoms: C_4  and  C_17
REMARK    3  A    between atoms: C_5  and  C_16
REMARK    4  A    between atoms: N_6  and  C_7
REMARK    5  A    between atoms: C_18  and  C_19
REMARK    6  A    between atoms: C_18  and  C_21
REMARK    7  A    between atoms: N_23  and  C_24
REMARK    8  A    between atoms: C_27  and  O_30
REMARK                            x       y       z     vdW  Elec       q    Type
REMARK                         _______ _______ _______ _____ _____    ______ ____
ROOT
ATOM      1  C   UNL     1       6.932  -1.030  -0.135  0.00  0.00    +0.064 C 
ATOM      2  C   UNL     1       6.280  -2.386  -0.204  0.00  0.00    +0.022 A 
ATOM      3  C   UNL     1       4.958  -2.618  -0.147  0.00  0.00    +0.031 A 
ATOM      4  C   UNL     1       4.787  -4.074  -0.252  0.00  0.00    -0.003 A 
ATOM      5  C   UNL     1       6.064  -4.600  -0.361  0.00  0.00    +0.028 A 
ATOM      6  N   UNL     1       6.941  -3.576  -0.336  0.00  0.00    -0.317 N 
ATOM      7  C   UNL     1       6.412  -6.060  -0.488  0.00  0.00    +0.064 C 
ENDROOT
BRANCH   6   8
ATOM      8  C   UNL     1       8.333  -3.713  -0.426  0.00  0.00    +0.050 A 
ATOM      9  C   UNL     1       9.033  -4.371   0.577  0.00  0.00    +0.030 A 
ATOM     10  C   UNL     1      10.405  -4.507   0.489  0.00  0.00    +0.051 A 
ATOM     11  C   UNL     1      11.087  -3.988  -0.600  0.00  0.00    +0.166 A 
ATOM     12  C   UNL     1      10.388  -3.327  -1.608  0.00  0.00    +0.168 A 
ATOM     13  C   UNL     1       9.012  -3.196  -1.521  0.00  0.00    +0.075 A 
ATOM     14  O   UNL     1      11.277  -2.915  -2.557  0.00  0.00    -0.453 OA
ATOM     15  C   UNL     1      12.569  -2.969  -1.924  0.00  0.00    +0.466 C 
ATOM     16  O   UNL     1      12.415  -3.988  -0.919  0.00  0.00    -0.453 OA
ENDBRANCH   6   8
BRANCH   4  17
ATOM     17  C   UNL     1       3.565  -4.794  -0.238  0.00  0.00    +0.033 C 
ATOM     18  C   UNL     1       2.582  -4.469   0.676  0.00  0.00    +0.114 C 
BRANCH  18  19
ATOM     19  C   UNL     1       2.870  -3.517   1.757  0.00  0.00    +0.259 C 
ATOM     20  O   UNL     1       4.006  -3.115   1.927  0.00  0.00    -0.269 OA
ATOM     21  N   UNL     1       1.877  -3.089   2.561  0.00  0.00    -0.281 N 
ATOM     22  H   UNL     1       0.984  -3.457   2.466  0.00  0.00    +0.155 HD
BRANCH  21  23
ATOM     23  C   UNL     1       2.133  -2.113   3.532  0.00  0.00    +0.034 A 
ATOM     24  C   UNL     1       1.166  -1.163   3.834  0.00  0.00    +0.027 A 
ATOM     25  C   UNL     1       1.419  -0.202   4.792  0.00  0.00    +0.047 A 
ATOM     26  C   UNL     1       2.639  -0.184   5.453  0.00  0.00    +0.117 A 
ATOM     27  C   UNL     1       3.605  -1.133   5.151  0.00  0.00    +0.047 A 
ATOM     28  C   UNL     1       3.353  -2.095   4.194  0.00  0.00    +0.027 A 
BRANCH  26  29
ATOM     29  O   UNL     1       2.887   0.763   6.396  0.00  0.00    -0.507 OA
ATOM     30  H   UNL     1       2.630   0.504   7.291  0.00  0.00    +0.292 HD
ENDBRANCH  26  29
ENDBRANCH  21  23
ENDBRANCH  18  19
BRANCH  18  31
ATOM     31  C   UNL     1       1.282  -5.059   0.569  0.00  0.00    +0.104 C 
ATOM     32  N   UNL     1       0.250  -5.528   0.485  0.00  0.00    -0.191 NA
ENDBRANCH  18  31
ENDBRANCH   4  17
TORSDOF 6
