REMARK  Name = ZINC59982458
REMARK  12 active torsions:
REMARK  status: ('A' for Active; 'I' for Inactive)
REMARK    1  A    between atoms: C_1  and  C_2
REMARK    2  A    between atoms: C_5  and  S_9
REMARK    3  A    between atoms: C_7  and  C_8
REMARK    4  A    between atoms: S_9  and  N_12
REMARK    5  A    between atoms: C_15  and  C_18
REMARK    6  A    between atoms: N_20  and  C_21
REMARK    7  A    between atoms: C_21  and  C_22
REMARK    8  A    between atoms: C_22  and  C_23
REMARK    9  A    between atoms: C_22  and  C_24
REMARK   10  A    between atoms: C_22  and  N_25
REMARK   11  A    between atoms: C_27  and  C_34
REMARK   12  A    between atoms: C_30  and  C_33
REMARK                            x       y       z     vdW  Elec       q    Type
REMARK                         _______ _______ _______ _____ _____    ______ ____
ROOT
ATOM      1  N   UNL     1       1.889  -5.841  -0.058  0.00  0.00    -0.177 NA
ATOM      2  C   UNL     1       2.625  -5.953  -1.325  0.00  0.00    +0.110 C 
ATOM      3  C   UNL     1       3.795  -4.965  -1.304  0.00  0.00    +0.030 C 
ATOM      4  C   UNL     1       4.647  -5.215  -0.057  0.00  0.00    +0.077 C 
ATOM      5  C   UNL     1       3.799  -4.986   1.196  0.00  0.00    +0.030 C 
ATOM      6  C   UNL     1       2.630  -5.968   1.204  0.00  0.00    +0.110 C 
ENDROOT
BRANCH   4   7
ATOM      7  C   UNL     1       5.818  -4.266  -0.050  0.00  0.00    +0.216 C 
ATOM      8  O   UNL     1       5.958  -3.469  -0.954  0.00  0.00    -0.276 OA
ATOM      9  N   UNL     1       6.710  -4.304   0.959  0.00  0.00    -0.316 N 
ATOM     10  H   UNL     1       6.598  -4.941   1.682  0.00  0.00    +0.149 HD
BRANCH   9  11
ATOM     11  C   UNL     1       7.849  -3.382   0.966  0.00  0.00    +0.092 C 
BRANCH  11  12
ATOM     12  C   UNL     1       8.631  -3.546   2.270  0.00  0.00    -0.055 C 
ATOM     13  C   UNL     1       9.250  -4.944   2.321  0.00  0.00    -0.008 C 
ATOM     14  C   UNL     1       9.740  -2.494   2.336  0.00  0.00    -0.008 C 
BRANCH  12  15
ATOM     15  N   UNL     1       7.722  -3.372   3.411  0.00  0.00    +0.384 N 
ATOM     16  C   UNL     1       7.101  -2.043   3.342  0.00  0.00    -0.075 C 
ATOM     17  C   UNL     1       6.093  -1.887   4.482  0.00  0.00    -0.031 C 
ATOM     18  C   UNL     1       6.818  -2.044   5.822  0.00  0.00    +0.003 C 
ATOM     19  C   UNL     1       7.524  -3.403   5.853  0.00  0.00    -0.031 C 
ATOM     20  C   UNL     1       8.479  -3.503   4.662  0.00  0.00    -0.075 C 
ATOM     21  C   UNL     1       8.315  -3.538   7.156  0.00  0.00    +0.005 C 
ATOM     22  C   UNL     1       5.010  -2.961   4.358  0.00  0.00    +0.005 C 
ATOM     23  H   UNL     1       7.003  -4.079   3.379  0.00  0.00    -0.081 HD
ENDBRANCH  12  15
ENDBRANCH  11  12
ENDBRANCH   9  11
ENDBRANCH   4   7
BRANCH   1  24
ATOM     24  S   UNL     1       0.255  -5.569  -0.054  0.00  0.00    +0.061 S 
ATOM     25  O   UNL     1      -0.233  -6.050   1.191  0.00  0.00    -0.153 OA
ATOM     26  O   UNL     1      -0.239  -6.041  -1.300  0.00  0.00    -0.153 OA
BRANCH  24  31
ATOM     27  C   UNL     1      -0.561   0.409  -0.031  0.00  0.00    +0.044 C 
ATOM     28  C   UNL     1      -0.357  -1.084  -0.037  0.00  0.00    -0.047 A 
ATOM     29  C   UNL     1      -0.265  -1.764  -1.237  0.00  0.00    +0.005 A 
ATOM     30  C   UNL     1      -0.078  -3.134  -1.242  0.00  0.00    +0.029 A 
ATOM     31  C   UNL     1       0.018  -3.823  -0.047  0.00  0.00    +0.106 A 
ATOM     32  C   UNL     1      -0.073  -3.143   1.152  0.00  0.00    +0.032 A 
ATOM     33  C   UNL     1      -0.256  -1.772   1.158  0.00  0.00    -0.046 A 
ATOM     34  C   UNL     1      -0.350  -1.030   2.466  0.00  0.00    +0.044 C 
ENDBRANCH  24  31
ENDBRANCH   1  24
TORSDOF 6
