REMARK  Name = ZINC15523926
REMARK  5 active torsions:
REMARK  status: ('A' for Active; 'I' for Inactive)
REMARK    1  A    between atoms: C_3  and  N_11
REMARK    2  A    between atoms: C_6  and  C_7
REMARK    3  A    between atoms: C_12  and  C_14
REMARK    4  A    between atoms: C_14  and  N_15
REMARK    5  A    between atoms: C_25  and  C_28
REMARK                            x       y       z     vdW  Elec       q    Type
REMARK                         _______ _______ _______ _____ _____    ______ ____
ROOT
ATOM      1  N   UNL     1       7.158   1.280   0.239  0.00  0.00    +0.386 N 
ATOM      2  C   UNL     1       8.350   2.051   0.585  0.00  0.00    -0.077 C 
ATOM      3  C   UNL     1       9.304   1.174   1.365  0.00  0.00    +0.000 C 
ATOM      4  C   UNL     1      10.312   0.527   0.397  0.00  0.00    +0.104 C 
ATOM      5  N   UNL     1       9.653   0.111  -0.857  0.00  0.00    -0.317 N 
ATOM      6  C   UNL     1       8.349  -0.520  -0.875  0.00  0.00    +0.088 C 
ATOM      7  C   UNL     1       7.246   0.560  -0.973  0.00  0.00    -0.059 C 
ATOM      8  C   UNL     1      10.307   0.333  -2.063  0.00  0.00    +0.121 A 
ATOM      9  C   UNL     1      11.642   0.725  -2.062  0.00  0.00    +0.044 A 
ATOM     10  C   UNL     1      12.281   0.942  -3.269  0.00  0.00    +0.017 A 
ATOM     11  C   UNL     1      11.560   0.760  -4.442  0.00  0.00    +0.073 A 
ATOM     12  C   UNL     1      10.238   0.369  -4.370  0.00  0.00    +0.125 A 
ATOM     13  N   UNL     1       9.656   0.164  -3.204  0.00  0.00    -0.240 NA
ATOM     14  H   UNL     1       6.978   0.626   0.986  0.00  0.00    -0.081 HD
ENDROOT
BRANCH  11  15
ATOM     15  C   UNL     1      12.215   0.985  -5.780  0.00  0.00    +0.419 C 
ATOM     16  F   UNL     1      12.790  -0.210  -6.226  0.00  0.00    -0.166 F 
ATOM     17  F   UNL     1      11.255   1.414  -6.703  0.00  0.00    -0.166 F 
ATOM     18  F   UNL     1      13.209   1.962  -5.655  0.00  0.00    -0.166 F 
ENDBRANCH  11  15
BRANCH   1  19
ATOM     19  C   UNL     1       6.019   2.203   0.148  0.00  0.00    +0.019 C 
BRANCH  19  21
ATOM     20  N   UNL     1       3.558   2.054  -0.048  0.00  0.00    -0.287 N 
ATOM     21  C   UNL     1       4.740   1.413   0.046  0.00  0.00    +0.201 C 
ATOM     22  O   UNL     1       4.774   0.201   0.048  0.00  0.00    -0.278 OA
ATOM     23  H   UNL     1       3.535   3.021  -0.125  0.00  0.00    +0.155 HD
BRANCH  20  26
ATOM     24  C   UNL     1       1.089  -0.559   0.723  0.00  0.00    +0.014 A 
ATOM     25  C   UNL     1       2.269   0.158   0.711  0.00  0.00    +0.024 A 
ATOM     26  C   UNL     1       2.364   1.325  -0.035  0.00  0.00    +0.033 A 
ATOM     27  C   UNL     1       1.270   1.767  -0.768  0.00  0.00    +0.024 A 
ATOM     28  C   UNL     1       0.093   1.046  -0.753  0.00  0.00    +0.014 A 
ATOM     29  C   UNL     1       0.002  -0.116  -0.009  0.00  0.00    +0.055 A 
BRANCH  29  30
ATOM     30  C   UNL     1      -1.285  -0.901   0.006  0.00  0.00    +0.417 C 
ATOM     31  F   UNL     1      -2.097  -0.446   1.050  0.00  0.00    -0.166 F 
ATOM     32  F   UNL     1      -1.950  -0.728  -1.213  0.00  0.00    -0.166 F 
ATOM     33  F   UNL     1      -1.001  -2.258   0.194  0.00  0.00    -0.166 F 
ENDBRANCH  29  30
ENDBRANCH  20  26
ENDBRANCH  19  21
ENDBRANCH   1  19
TORSDOF 5
