REMARK  Name = ZINC66249586
REMARK  7 active torsions:
REMARK  status: ('A' for Active; 'I' for Inactive)
REMARK    1  A    between atoms: C_1  and  C_2
REMARK    2  A    between atoms: N_11  and  S_12
REMARK    3  A    between atoms: S_12  and  C_15
REMARK    4  A    between atoms: C_18  and  O_25
REMARK    5  A    between atoms: C_19  and  N_21
REMARK    6  A    between atoms: C_22  and  C_24
REMARK    7  A    between atoms: O_25  and  C_26
REMARK                            x       y       z     vdW  Elec       q    Type
REMARK                         _______ _______ _______ _____ _____    ______ ____
ROOT
ATOM      1  S   UNL     1       1.986  -6.938   0.311  0.00  0.00    +0.101 S 
ATOM      2  O   UNL     1       0.638  -7.110  -0.105  0.00  0.00    -0.146 OA
ATOM      3  O   UNL     1       3.019  -6.563  -0.590  0.00  0.00    -0.146 OA
ENDROOT
BRANCH   1  13
ATOM      4  C   UNL     1      -0.070   1.538   0.091  0.00  0.00    +0.008 C 
ATOM      5  C   UNL     1      -0.043   0.008   0.072  0.00  0.00    -0.009 C 
ATOM      6  C   UNL     1       0.687  -0.478  -1.183  0.00  0.00    +0.010 C 
ATOM      7  C   UNL     1       0.516  -1.990  -1.330  0.00  0.00    +0.054 C 
ATOM      8  C   UNL     1       0.936  -2.667  -0.027  0.00  0.00    +0.028 A 
ATOM      9  C   UNL     1       1.005  -1.961   1.108  0.00  0.00    +0.013 A 
ATOM     10  S   UNL     1       1.524  -3.146   2.323  0.00  0.00    -0.053 S 
ATOM     11  C   UNL     1       1.628  -4.562   1.237  0.00  0.00    +0.192 A 
ATOM     12  N   UNL     1       1.257  -4.006   0.036  0.00  0.00    -0.336 N 
ATOM     13  N   UNL     1       1.968  -5.797   1.512  0.00  0.00    -0.103 NA
ATOM     14  C   UNL     1       0.707  -0.509   1.309  0.00  0.00    +0.047 C 
ATOM     15  H   UNL     1       1.220  -4.554  -0.763  0.00  0.00    +0.168 HD
ENDBRANCH   1  13
BRANCH   1  16
ATOM     16  C   UNL     1       2.485  -8.460   1.045  0.00  0.00    +0.115 A 
ATOM     17  C   UNL     1       3.827  -8.789   1.105  0.00  0.00    +0.033 A 
ATOM     18  C   UNL     1       4.224  -9.982   1.679  0.00  0.00    +0.049 A 
ATOM     19  C   UNL     1       3.278 -10.851   2.198  0.00  0.00    +0.141 A 
ATOM     20  C   UNL     1       1.927 -10.519   2.138  0.00  0.00    +0.077 A 
ATOM     21  C   UNL     1       1.535  -9.318   1.565  0.00  0.00    +0.056 A 
BRANCH  20  22
ATOM     22  N   UNL     1       0.965 -11.394   2.661  0.00  0.00    -0.283 N 
ATOM     23  C   UNL     1      -0.301 -11.358   2.199  0.00  0.00    +0.214 C 
ATOM     24  O   UNL     1      -0.585 -10.640   1.264  0.00  0.00    -0.276 OA
ATOM     25  C   UNL     1      -1.363 -12.210   2.845  0.00  0.00    +0.109 C 
ATOM     26  H   UNL     1       1.210 -12.026   3.355  0.00  0.00    +0.155 HD
ENDBRANCH  20  22
BRANCH  19  27
ATOM     27  O   UNL     1       3.668 -12.025   2.762  0.00  0.00    -0.493 OA
ATOM     28  C   UNL     1       5.070 -12.299   2.788  0.00  0.00    +0.277 C 
ENDBRANCH  19  27
ENDBRANCH   1  16
TORSDOF 4
