REMARK  Name = ZINC13556337
REMARK  4 active torsions:
REMARK  status: ('A' for Active; 'I' for Inactive)
REMARK    1  A    between atoms: C_6  and  C_7
REMARK    2  A    between atoms: C_7  and  N_8
REMARK    3  A    between atoms: N_20  and  C_21
REMARK    4  A    between atoms: C_21  and  C_23
REMARK                            x       y       z     vdW  Elec       q    Type
REMARK                         _______ _______ _______ _____ _____    ______ ____
ROOT
ATOM      1  N   UNL     1       2.958   0.917  -1.398  0.00  0.00    -0.302 N 
ATOM      2  C   UNL     1       3.837   1.869  -2.065  0.00  0.00    +0.111 C 
ATOM      3  C   UNL     1       4.179   3.195  -1.374  0.00  0.00    +0.189 C 
ATOM      4  S   UNL     1       4.510   4.274  -2.843  0.00  0.00    -0.028 S 
ATOM      5  O   UNL     1       3.642   5.399  -2.797  0.00  0.00    -0.174 OA
ATOM      6  O   UNL     1       5.911   4.475  -2.965  0.00  0.00    -0.174 OA
ATOM      7  C   UNL     1       3.941   3.123  -4.187  0.00  0.00    +0.182 C 
ATOM      8  C   UNL     1       3.026   2.270  -3.353  0.00  0.00    +0.097 C 
ATOM      9  S   UNL     1       2.547   0.606  -3.845  0.00  0.00    -0.086 S 
ATOM     10  C   UNL     1       2.627  -0.135  -2.257  0.00  0.00    +0.150 C 
ATOM     11  N   UNL     1       2.420  -1.408  -1.940  0.00  0.00    -0.159 NA
ENDROOT
BRANCH  11  12
ATOM     12  C   UNL     1       2.110  -2.288  -2.889  0.00  0.00    +0.241 C 
ATOM     13  O   UNL     1       2.018  -1.927  -4.046  0.00  0.00    -0.273 OA
BRANCH  12  14
ATOM     14  C   UNL     1       1.875  -3.733  -2.529  0.00  0.00    +0.077 C 
ATOM     15  C   UNL     1       3.138  -4.310  -1.887  0.00  0.00    +0.013 C 
ATOM     16  C   UNL     1       2.899  -5.777  -1.521  0.00  0.00    +0.001 C 
ATOM     17  C   UNL     1       2.562  -6.569  -2.786  0.00  0.00    +0.000 C 
ATOM     18  C   UNL     1       1.300  -5.991  -3.429  0.00  0.00    +0.001 C 
ATOM     19  C   UNL     1       1.538  -4.525  -3.794  0.00  0.00    +0.013 C 
ENDBRANCH  12  14
ENDBRANCH  11  12
BRANCH   1  20
ATOM     20  C   UNL     1       2.489   1.043  -0.016  0.00  0.00    +0.142 C 
BRANCH  20  26
ATOM     21  C   UNL     1       4.555   0.820   1.378  0.00  0.00    +0.009 A 
ATOM     22  C   UNL     1       5.389   0.096   2.209  0.00  0.00    +0.050 A 
ATOM     23  C   UNL     1       5.056  -1.200   2.568  0.00  0.00    +0.166 A 
ATOM     24  C   UNL     1       3.884  -1.774   2.080  0.00  0.00    +0.167 A 
ATOM     25  C   UNL     1       3.055  -1.044   1.244  0.00  0.00    +0.054 A 
ATOM     26  C   UNL     1       3.392   0.251   0.894  0.00  0.00    -0.026 A 
ATOM     27  O   UNL     1       3.785  -3.046   2.567  0.00  0.00    -0.453 OA
ATOM     28  C   UNL     1       5.107  -3.385   3.025  0.00  0.00    +0.466 C 
ATOM     29  O   UNL     1       5.691  -2.112   3.360  0.00  0.00    -0.453 OA
ENDBRANCH  20  26
ENDBRANCH   1  20
TORSDOF 4
