REMARK  Name = ZINC11785186
REMARK  12 active torsions:
REMARK  status: ('A' for Active; 'I' for Inactive)
REMARK    1  A    between atoms: C_1  and  C_2
REMARK    2  A    between atoms: C_7  and  C_18
REMARK    3  A    between atoms: N_10  and  C_13
REMARK    4  A    between atoms: C_13  and  C_14
REMARK    5  A    between atoms: C_14  and  O_16
REMARK    6  A    between atoms: O_16  and  C_17
REMARK    7  A    between atoms: C_18  and  N_61
REMARK    8  A    between atoms: C_19  and  N_61
REMARK    9  A    between atoms: C_20  and  C_22
REMARK   10  A    between atoms: C_20  and  C_23
REMARK   11  A    between atoms: C_20  and  N_61
REMARK   12  A    between atoms: C_25  and  C_29
REMARK                            x       y       z     vdW  Elec       q    Type
REMARK                         _______ _______ _______ _____ _____    ______ ____
ROOT
ATOM      1  C   UNL     1      -4.525  -0.846  -2.537  0.00  0.00    -0.037 C 
ENDROOT
BRANCH   1   8
ATOM      2  C   UNL     1      -2.373   0.977   4.924  0.00  0.00    +0.044 C 
ATOM      3  C   UNL     1      -2.938   0.493   3.613  0.00  0.00    -0.048 A 
ATOM      4  C   UNL     1      -3.982  -0.423   3.612  0.00  0.00    +0.004 A 
ATOM      5  C   UNL     1      -4.508  -0.875   2.435  0.00  0.00    +0.010 A 
ATOM      6  C   UNL     1      -3.992  -0.411   1.221  0.00  0.00    -0.001 A 
ATOM      7  C   UNL     1      -4.532  -0.875  -0.058  0.00  0.00    +0.017 A 
ATOM      8  C   UNL     1      -3.992  -0.390  -1.204  0.00  0.00    +0.001 A 
ATOM      9  C   UNL     1      -2.937   0.546  -1.151  0.00  0.00    +0.254 A 
ATOM     10  O   UNL     1      -2.470   0.974  -2.192  0.00  0.00    -0.267 OA
ATOM     11  N   UNL     1      -2.430   0.973   0.019  0.00  0.00    -0.297 N 
ATOM     12  C   UNL     1      -2.935   0.518   1.218  0.00  0.00    +0.053 A 
ATOM     13  C   UNL     1      -2.414   0.964   2.429  0.00  0.00    +0.030 A 
BRANCH  11  14
ATOM     14  C   UNL     1      -1.329   1.940   0.019  0.00  0.00    +0.245 C 
BRANCH  14  15
ATOM     15  C   UNL     1      -0.014   1.204   0.009  0.00  0.00    +0.327 C 
ATOM     16  O   UNL     1       0.002  -0.004   0.002  0.00  0.00    -0.249 OA
BRANCH  15  17
ATOM     17  O   UNL     1       1.139   1.891   0.001  0.00  0.00    -0.467 OA
ATOM     18  C   UNL     1       2.367   1.117  -0.015  0.00  0.00    +0.280 C 
ENDBRANCH  15  17
ENDBRANCH  14  15
ENDBRANCH  11  14
ENDBRANCH   1   8
BRANCH   1  20
ATOM     19  C   UNL     1      -6.714   0.113  -2.149  0.00  0.00    -0.095 C 
ATOM     20  N   UNL     1      -5.518   0.138  -3.017  0.00  0.00    +0.386 N 
ATOM     21  H   UNL     1      -5.101   1.076  -2.982  0.00  0.00    -0.081 HD
BRANCH  20  22
ATOM     22  C   UNL     1      -5.898  -0.167  -4.412  0.00  0.00    -0.020 C 
ATOM     23  C   UNL     1      -6.702  -1.467  -4.477  0.00  0.00    -0.007 C 
BRANCH  22  24
ATOM     24  C   UNL     1      -6.734   0.968  -4.947  0.00  0.00    +0.050 A 
ATOM     25  C   UNL     1      -6.861   1.323  -6.290  0.00  0.00    +0.051 A 
ATOM     26  C   UNL     1      -7.703   2.397  -6.361  0.00  0.00    +0.066 A 
ATOM     27  N   UNL     1      -8.086   2.697  -5.089  0.00  0.00    -0.277 N 
ATOM     28  H   UNL     1      -8.700   3.438  -4.817  0.00  0.00    +0.189 HD
ATOM     29  N   UNL     1      -7.467   1.781  -4.229  0.00  0.00    -0.180 NA
BRANCH  26  30
ATOM     30  C   UNL     1      -8.120   3.103  -7.593  0.00  0.00    -0.000 A 
ATOM     31  C   UNL     1      -7.641   2.687  -8.835  0.00  0.00    +0.010 A 
ATOM     32  C   UNL     1      -8.039   3.346  -9.981  0.00  0.00    +0.001 A 
ATOM     33  C   UNL     1      -8.901   4.424  -9.897  0.00  0.00    +0.000 A 
ATOM     34  C   UNL     1      -9.376   4.845  -8.668  0.00  0.00    +0.001 A 
ATOM     35  C   UNL     1      -8.990   4.191  -7.516  0.00  0.00    +0.010 A 
ENDBRANCH  26  30
ENDBRANCH  22  24
ENDBRANCH  20  22
ENDBRANCH   1  20
TORSDOF 8
