REMARK  Name = ZINC40784137
REMARK  4 active torsions:
REMARK  status: ('A' for Active; 'I' for Inactive)
REMARK    1  A    between atoms: C_4  and  C_7
REMARK    2  A    between atoms: N_9  and  N_10
REMARK    3  A    between atoms: C_12  and  N_29
REMARK    4  A    between atoms: C_13  and  N_17
REMARK                            x       y       z     vdW  Elec       q    Type
REMARK                         _______ _______ _______ _____ _____    ______ ____
ROOT
ATOM      1  N   UNL     1       4.917  -2.703  -0.136  0.00  0.00    -0.247 N 
ATOM      2  C   UNL     1       4.950  -4.092  -0.119  0.00  0.00    +0.161 A 
ATOM      3  C   UNL     1       6.169  -4.773  -0.131  0.00  0.00    +0.107 A 
ATOM      4  C   UNL     1       6.144  -6.168  -0.113  0.00  0.00    +0.147 A 
ATOM      5  N   UNL     1       4.969  -6.792  -0.085  0.00  0.00    -0.219 NA
ATOM      6  C   UNL     1       3.841  -6.112  -0.075  0.00  0.00    +0.225 A 
ATOM      7  N   UNL     1       3.820  -4.794  -0.086  0.00  0.00    -0.217 NA
ATOM      8  H   UNL     1       5.746  -2.198  -0.160  0.00  0.00    +0.172 HD
ENDROOT
BRANCH   4   9
ATOM      9  N   UNL     1       7.329  -6.895  -0.125  0.00  0.00    -0.311 N 
ATOM     10  C   UNL     1       7.929  -7.368   1.131  0.00  0.00    +0.125 C 
ATOM     11  C   UNL     1       8.126  -8.886   1.039  0.00  0.00    +0.125 C 
ATOM     12  N   UNL     1       8.801  -9.195  -0.229  0.00  0.00    -0.314 N 
ATOM     13  C   UNL     1       8.202  -8.723  -1.485  0.00  0.00    +0.125 C 
ATOM     14  C   UNL     1       8.002  -7.209  -1.393  0.00  0.00    +0.125 C 
ATOM     15  C   UNL     1       9.986  -9.922  -0.241  0.00  0.00    +0.099 A 
ATOM     16  C   UNL     1      10.466 -10.478   0.941  0.00  0.00    +0.042 A 
ATOM     17  C   UNL     1      11.646 -11.198   0.915  0.00  0.00    +0.005 A 
ATOM     18  C   UNL     1      12.310 -11.340  -0.296  0.00  0.00    +0.018 A 
ATOM     19  C   UNL     1      11.777 -10.762  -1.431  0.00  0.00    +0.084 A 
ATOM     20  N   UNL     1      10.646 -10.084  -1.377  0.00  0.00    -0.350 N 
ATOM     21  H   UNL     1      10.291  -9.691  -2.190  0.00  0.00    +0.166 HD
ENDBRANCH   4   9
BRANCH   1  24
ATOM     22  C   UNL     1       3.657  -0.683  -0.133  0.00  0.00    +0.260 C 
ATOM     23  O   UNL     1       4.695  -0.051  -0.164  0.00  0.00    -0.269 OA
ATOM     24  N   UNL     1       3.688  -2.030  -0.117  0.00  0.00    -0.231 N 
ATOM     25  H   UNL     1       2.860  -2.535  -0.093  0.00  0.00    +0.173 HD
BRANCH  22  29
ATOM     26  C   UNL     1      -0.070   1.355  -0.079  0.00  0.00    +0.000 A 
ATOM     27  C   UNL     1       1.110   2.077  -0.113  0.00  0.00    +0.001 A 
ATOM     28  C   UNL     1       2.324   1.421  -0.131  0.00  0.00    +0.013 A 
ATOM     29  C   UNL     1       2.360   0.026  -0.114  0.00  0.00    +0.038 A 
ATOM     30  C   UNL     1       1.166  -0.697  -0.080  0.00  0.00    +0.013 A 
ATOM     31  C   UNL     1      -0.041  -0.028  -0.062  0.00  0.00    +0.001 A 
ENDBRANCH  22  29
ENDBRANCH   1  24
BRANCH   3  32
ATOM     32  N   UNL     1       7.386  -4.072  -0.162  0.00  0.00    -0.353 N 
ATOM     33  H   UNL     1       7.388  -3.106  -0.248  0.00  0.00    +0.143 HD
ATOM     34  H   UNL     1       8.225  -4.555  -0.096  0.00  0.00    +0.143 HD
ENDBRANCH   3  32
TORSDOF 4
