REMARK  Name = ZINC16300223
REMARK  12 active torsions:
REMARK  status: ('A' for Active; 'I' for Inactive)
REMARK    1  A    between atoms: C_1  and  C_2
REMARK    2  A    between atoms: C_2  and  N_72
REMARK    3  A    between atoms: N_5  and  C_8
REMARK    4  A    between atoms: C_11  and  N_15
REMARK    5  A    between atoms: C_13  and  C_14
REMARK    6  A    between atoms: C_16  and  C_18
REMARK    7  A    between atoms: C_19  and  C_20
REMARK    8  A    between atoms: C_21  and  C_34
REMARK    9  A    between atoms: N_23  and  C_26
REMARK   10  A    between atoms: C_24  and  C_25
REMARK   11  A    between atoms: C_26  and  C_27
REMARK   12  A    between atoms: C_30  and  C_33
REMARK                            x       y       z     vdW  Elec       q    Type
REMARK                         _______ _______ _______ _____ _____    ______ ____
ROOT
ATOM      1  N   UNL     1      -5.165  -2.067  -0.250  0.00  0.00    -0.282 N 
ATOM      2  C   UNL     1      -6.021  -1.865   0.771  0.00  0.00    +0.241 C 
ATOM      3  O   UNL     1      -5.698  -1.156   1.706  0.00  0.00    -0.270 OA
ATOM      4  H   UNL     1      -5.449  -2.568  -1.030  0.00  0.00    +0.155 HD
ENDROOT
BRANCH   1   8
ATOM      5  C   UNL     1      -1.290  -0.539  -0.053  0.00  0.00    +0.033 A 
ATOM      6  C   UNL     1      -1.943  -0.620  -1.276  0.00  0.00    +0.025 A 
ATOM      7  C   UNL     1      -3.226  -1.126  -1.341  0.00  0.00    +0.025 A 
ATOM      8  C   UNL     1      -3.863  -1.554  -0.184  0.00  0.00    +0.034 A 
ATOM      9  C   UNL     1      -3.210  -1.473   1.039  0.00  0.00    +0.028 A 
ATOM     10  C   UNL     1      -1.925  -0.972   1.103  0.00  0.00    -0.028 A 
ATOM     11  C   UNL     1      -1.214  -0.890   2.429  0.00  0.00    +0.046 C 
BRANCH   5  14
ATOM     12  C   UNL     1       2.356  -0.284  -0.642  0.00  0.00    -0.060 C 
ATOM     13  C   UNL     1       0.934  -0.828  -0.803  0.00  0.00    +0.086 C 
ATOM     14  N   UNL     1       0.011  -0.027   0.013  0.00  0.00    -0.333 N 
ATOM     15  C   UNL     1       0.042   1.385  -0.394  0.00  0.00    +0.086 C 
ATOM     16  C   UNL     1       1.464   1.928  -0.233  0.00  0.00    -0.060 C 
ATOM     17  N   UNL     1       2.378   1.129  -1.075  0.00  0.00    +0.382 N 
ATOM     18  H   UNL     1       2.065   1.183  -2.051  0.00  0.00    -0.082 HD
BRANCH  17  20
ATOM     19  C   UNL     1       4.628   0.969  -2.023  0.00  0.00    -0.017 C 
ATOM     20  C   UNL     1       3.752   1.665  -0.979  0.00  0.00    -0.082 C 
ENDBRANCH  17  20
ENDBRANCH   5  14
ENDBRANCH   1   8
BRANCH   2  21
ATOM     21  C   UNL     1      -7.300  -2.478   0.755  0.00  0.00    +0.068 C 
ATOM     22  C   UNL     1      -8.159  -2.275   1.777  0.00  0.00    +0.016 C 
BRANCH  22  23
ATOM     23  C   UNL     1      -9.484  -2.911   1.761  0.00  0.00    +0.018 A 
ATOM     24  C   UNL     1     -10.415  -2.884   0.697  0.00  0.00    +0.067 A 
ATOM     25  N   UNL     1     -11.467  -3.563   1.063  0.00  0.00    -0.175 NA
ATOM     26  N   UNL     1     -11.268  -4.043   2.363  0.00  0.00    -0.263 N 
ATOM     27  C   UNL     1     -10.057  -3.642   2.785  0.00  0.00    +0.044 A 
ATOM     28  C   UNL     1      -9.437  -3.936   4.127  0.00  0.00    +0.066 C 
ATOM     29  C   UNL     1     -10.225  -2.194  -0.629  0.00  0.00    +0.068 C 
BRANCH  26  30
ATOM     30  C   UNL     1     -12.221  -4.846   3.133  0.00  0.00    +0.178 C 
BRANCH  30  31
ATOM     31  C   UNL     1     -13.123  -3.935   3.924  0.00  0.00    -0.026 A 
ATOM     32  C   UNL     1     -12.770  -3.555   5.206  0.00  0.00    +0.006 A 
ATOM     33  C   UNL     1     -13.596  -2.715   5.930  0.00  0.00    +0.004 A 
ATOM     34  C   UNL     1     -14.779  -2.263   5.376  0.00  0.00    -0.050 A 
ATOM     35  C   UNL     1     -15.134  -2.647   4.096  0.00  0.00    +0.004 A 
ATOM     36  C   UNL     1     -14.306  -3.483   3.371  0.00  0.00    +0.006 A 
ATOM     37  C   UNL     1     -15.681  -1.351   6.167  0.00  0.00    +0.044 C 
ENDBRANCH  30  31
ENDBRANCH  26  30
ENDBRANCH  22  23
ENDBRANCH   2  21
TORSDOF 7
