REMARK  Name = ZINC36898017
REMARK  4 active torsions:
REMARK  status: ('A' for Active; 'I' for Inactive)
REMARK    1  A    between atoms: C_1  and  C_2
REMARK    2  A    between atoms: C_4  and  N_11
REMARK    3  A    between atoms: C_5  and  O_9
REMARK    4  A    between atoms: O_9  and  C_10
REMARK                            x       y       z     vdW  Elec       q    Type
REMARK                         _______ _______ _______ _____ _____    ______ ____
ROOT
ATOM      1  N   UNL     1       0.028  -2.768  -2.428  0.00  0.00    -0.283 N 
ATOM      2  C   UNL     1      -1.100  -3.183  -3.133  0.00  0.00    +0.091 A 
ATOM      3  C   UNL     1      -0.641  -3.833  -4.281  0.00  0.00    +0.067 A 
ATOM      4  C   UNL     1      -1.550  -4.360  -5.186  0.00  0.00    +0.028 A 
ATOM      5  C   UNL     1      -2.905  -4.240  -4.949  0.00  0.00    +0.004 A 
ATOM      6  C   UNL     1      -3.361  -3.596  -3.812  0.00  0.00    +0.022 A 
ATOM      7  C   UNL     1      -2.463  -3.068  -2.903  0.00  0.00    +0.067 A 
ATOM      8 CL   UNL     1      -3.039  -2.262  -1.478  0.00  0.00    -0.081 Cl
ATOM      9  N   UNL     1       0.750  -3.792  -4.238  0.00  0.00    -0.333 N 
ATOM     10  C   UNL     1       1.122  -3.143  -3.118  0.00  0.00    +0.163 A 
ATOM     11  S   UNL     1       2.739  -2.844  -2.643  0.00  0.00    -0.013 S 
ATOM     12  H   UNL     1       1.350  -4.165  -4.903  0.00  0.00    +0.168 HD
ENDROOT
BRANCH   1  16
ATOM     13  C   UNL     1      -0.018   1.503   0.010  0.00  0.00    +0.045 C 
ATOM     14  C   UNL     1       0.002  -0.004   0.002  0.00  0.00    -0.030 A 
ATOM     15  C   UNL     1       0.006  -0.687  -1.200  0.00  0.00    +0.034 A 
ATOM     16  C   UNL     1       0.025  -2.074  -1.209  0.00  0.00    +0.091 A 
ATOM     17  C   UNL     1       0.041  -2.775  -0.005  0.00  0.00    +0.145 A 
ATOM     18  C   UNL     1       0.037  -2.084   1.195  0.00  0.00    +0.068 A 
ATOM     19  C   UNL     1       0.023  -0.701   1.197  0.00  0.00    +0.047 A 
ATOM     20 CL   UNL     1       0.025   0.163   2.703  0.00  0.00    -0.083 Cl
BRANCH  17  21
ATOM     21  O   UNL     1       0.059  -4.135  -0.009  0.00  0.00    -0.493 OA
ATOM     22  C   UNL     1       0.074  -4.787   1.262  0.00  0.00    +0.277 C 
ENDBRANCH  17  21
ENDBRANCH   1  16
TORSDOF 2
