REMARK  Name = ZINC64774892
REMARK  8 active torsions:
REMARK  status: ('A' for Active; 'I' for Inactive)
REMARK    1  A    between atoms: C_1  and  C_2
REMARK    2  A    between atoms: C_2  and  C_3
REMARK    3  A    between atoms: N_5  and  C_6
REMARK    4  A    between atoms: C_11  and  C_12
REMARK    5  A    between atoms: C_16  and  S_19
REMARK    6  A    between atoms: S_19  and  C_20
REMARK    7  A    between atoms: C_20  and  C_21
REMARK    8  A    between atoms: N_23  and  C_24
REMARK                            x       y       z     vdW  Elec       q    Type
REMARK                         _______ _______ _______ _____ _____    ______ ____
ROOT
ATOM      1  C   UNL     1      -1.864  -4.587   0.043  0.00  0.00    +0.161 A 
ATOM      2  C   UNL     1      -2.054  -5.981   0.014  0.00  0.00    +0.300 A 
ATOM      3  O   UNL     1      -3.301  -6.510   0.021  0.00  0.00    -0.263 OA
ATOM      4  N   UNL     1      -0.985  -6.767  -0.022  0.00  0.00    -0.180 NA
ATOM      5  C   UNL     1       0.227  -6.221  -0.029  0.00  0.00    +0.213 A 
ATOM      6  N   UNL     1       0.383  -4.904   0.000  0.00  0.00    -0.122 NA
ATOM      7  N   UNL     1      -0.626  -4.106   0.029  0.00  0.00    -0.141 NA
ENDROOT
BRANCH   1  13
ATOM      8  C   UNL     1      -3.112  -2.602  -0.816  0.00  0.00    +0.043 A 
ATOM      9  C   UNL     1      -4.207  -1.752  -0.773  0.00  0.00    +0.024 A 
ATOM     10  C   UNL     1      -5.207  -1.959   0.157  0.00  0.00    +0.002 A 
ATOM     11  C   UNL     1      -5.123  -3.011   1.052  0.00  0.00    +0.001 A 
ATOM     12  C   UNL     1      -4.040  -3.865   1.022  0.00  0.00    +0.012 A 
ATOM     13  C   UNL     1      -3.027  -3.671   0.084  0.00  0.00    +0.029 A 
BRANCH   8  16
ATOM     14  C   UNL     1      -1.764  -1.141  -2.121  0.00  0.00    +0.217 C 
ATOM     15  O   UNL     1      -2.394  -0.197  -1.694  0.00  0.00    -0.275 OA
ATOM     16  N   UNL     1      -2.100  -2.395  -1.757  0.00  0.00    -0.285 N 
ATOM     17  H   UNL     1      -1.639  -3.153  -2.148  0.00  0.00    +0.155 HD
BRANCH  14  19
ATOM     18  C   UNL     1      -0.439   0.587  -3.307  0.00  0.00    +0.013 C 
ATOM     19  C   UNL     1      -0.606  -0.913  -3.058  0.00  0.00    +0.093 C 
ENDBRANCH  14  19
ENDBRANCH   8  16
ENDBRANCH   1  13
BRANCH   5  20
ATOM     20  S   UNL     1       1.647  -7.263  -0.076  0.00  0.00    -0.075 S 
BRANCH  20  21
ATOM     21  C   UNL     1       3.042  -6.104  -0.072  0.00  0.00    +0.173 C 
BRANCH  21  22
ATOM     22  C   UNL     1       4.336  -6.875  -0.111  0.00  0.00    +0.227 C 
ATOM     23  O   UNL     1       4.319  -8.087  -0.139  0.00  0.00    -0.275 OA
ATOM     24  N   UNL     1       5.513  -6.217  -0.114  0.00  0.00    -0.285 N 
ATOM     25  H   UNL     1       5.526  -5.248  -0.158  0.00  0.00    +0.155 HD
BRANCH  24  26
ATOM     26  C   UNL     1       6.714  -6.932  -0.056  0.00  0.00    +0.034 A 
ATOM     27  C   UNL     1       7.798  -6.415   0.642  0.00  0.00    +0.023 A 
ATOM     28  C   UNL     1       8.982  -7.123   0.698  0.00  0.00    +0.003 A 
ATOM     29  C   UNL     1       9.091  -8.345   0.061  0.00  0.00    +0.015 A 
ATOM     30  C   UNL     1       8.013  -8.863  -0.636  0.00  0.00    +0.020 A 
ATOM     31  C   UNL     1       6.823  -8.162  -0.690  0.00  0.00    +0.038 A 
ATOM     32 BR   UNL     1       8.166 -10.535  -1.506  0.00  0.00    -0.050 Br
ENDBRANCH  24  26
ENDBRANCH  21  22
ENDBRANCH  20  21
ENDBRANCH   5  20
TORSDOF 7
