REMARK  Name = ZINC43619963
REMARK  5 active torsions:
REMARK  status: ('A' for Active; 'I' for Inactive)
REMARK    1  A    between atoms: C_1  and  O_2
REMARK    2  A    between atoms: O_2  and  C_3
REMARK    3  A    between atoms: C_8  and  C_9
REMARK    4  A    between atoms: C_9  and  N_10
REMARK    5  A    between atoms: C_15  and  C_24
REMARK                            x       y       z     vdW  Elec       q    Type
REMARK                         _______ _______ _______ _____ _____    ______ ____
ROOT
ATOM      1  N   UNL     1       0.572  -2.894   1.342  0.00  0.00    -0.298 N 
ATOM      2  C   UNL     1       1.515  -1.918   1.897  0.00  0.00    +0.110 C 
ATOM      3  C   UNL     1       1.520  -2.143   3.421  0.00  0.00    +0.003 C 
ATOM      4  C   UNL     1       0.422  -1.270   4.077  0.00  0.00    -0.007 C 
ATOM      5  C   UNL     1      -0.062  -2.189   5.228  0.00  0.00    -0.037 C 
ATOM      6  N   UNL     1      -0.022  -3.557   4.667  0.00  0.00    +0.394 N 
ATOM      7  C   UNL     1       0.958  -3.580   3.544  0.00  0.00    +0.018 C 
ATOM      8  C   UNL     1       0.275  -3.854   2.236  0.00  0.00    +0.206 C 
ATOM      9  O   UNL     1      -0.442  -4.807   2.016  0.00  0.00    -0.277 OA
ATOM     10  C   UNL     1       2.067  -4.585   3.863  0.00  0.00    -0.004 C 
ATOM     11  C   UNL     1       1.408  -5.507   4.925  0.00  0.00    -0.019 C 
ATOM     12  C   UNL     1       0.478  -4.491   5.700  0.00  0.00    -0.077 C 
ATOM     13  H   UNL     1      -0.941  -3.836   4.356  0.00  0.00    -0.079 HD
ENDROOT
BRANCH   5  14
ATOM     14  C   UNL     1      -1.468  -1.827   5.631  0.00  0.00    -0.046 C 
ATOM     15  C   UNL     1      -1.707  -1.362   6.854  0.00  0.00    +0.012 C 
ATOM     16  C   UNL     1      -3.104  -1.053   7.226  0.00  0.00    +0.018 A 
ATOM     17  C   UNL     1      -3.404  -0.307   8.361  0.00  0.00    +0.031 A 
ATOM     18  C   UNL     1      -4.724  -0.029   8.664  0.00  0.00    +0.042 A 
ATOM     19  C   UNL     1      -5.741  -0.488   7.843  0.00  0.00    +0.023 A 
ATOM     20  C   UNL     1      -5.450  -1.234   6.715  0.00  0.00    +0.048 A 
ATOM     21  C   UNL     1      -4.135  -1.526   6.404  0.00  0.00    +0.128 A 
ATOM     22  O   UNL     1      -3.819  -2.287   5.324  0.00  0.00    -0.487 OA
ATOM     23  C   UNL     1      -2.596  -1.986   4.647  0.00  0.00    +0.258 C 
ATOM     24 CL   UNL     1      -5.108   0.899  10.080  0.00  0.00    -0.084 Cl
ENDBRANCH   5  14
BRANCH   1  25
ATOM     25  C   UNL     1       0.018  -2.829  -0.013  0.00  0.00    +0.146 C 
BRANCH  25  31
ATOM     26  C   UNL     1      -1.200  -0.637   0.010  0.00  0.00    +0.125 A 
ATOM     27  C   UNL     1      -2.375   0.101   0.019  0.00  0.00    +0.046 A 
ATOM     28  C   UNL     1      -3.596  -0.545   0.027  0.00  0.00    +0.004 A 
ATOM     29  C   UNL     1      -3.648  -1.927   0.026  0.00  0.00    +0.001 A 
ATOM     30  C   UNL     1      -2.479  -2.665   0.017  0.00  0.00    +0.009 A 
ATOM     31  C   UNL     1      -1.255  -2.023   0.003  0.00  0.00    +0.011 A 
BRANCH  26  33
ATOM     32  C   UNL     1      -0.017   1.425   0.010  0.00  0.00    +0.277 C 
ATOM     33  O   UNL     1       0.002  -0.004   0.002  0.00  0.00    -0.495 OA
ENDBRANCH  26  33
ENDBRANCH  25  31
ENDBRANCH   1  25
TORSDOF 4
