REMARK  Name = ZINC24905992
REMARK  2 active torsions:
REMARK  status: ('A' for Active; 'I' for Inactive)
REMARK    1  A    between atoms: C_1  and  C_2
REMARK    2  A    between atoms: C_4  and  C_27
REMARK                            x       y       z     vdW  Elec       q    Type
REMARK                         _______ _______ _______ _____ _____    ______ ____
ROOT
ATOM      1  C   UNL     1      -3.118  -7.142  -2.105  0.00  0.00    +0.066 C 
ATOM      2  C   UNL     1      -1.996  -6.505  -2.884  0.00  0.00    +0.044 A 
ATOM      3  C   UNL     1      -2.011  -6.513  -4.270  0.00  0.00    +0.046 A 
ATOM      4  C   UNL     1      -0.960  -5.916  -4.948  0.00  0.00    +0.044 A 
ATOM      5  N   UNL     1       0.021  -5.360  -4.256  0.00  0.00    -0.220 NA
ATOM      6  C   UNL     1       0.006  -5.370  -2.932  0.00  0.00    +0.218 A 
ATOM      7  N   UNL     1      -0.981  -5.937  -2.253  0.00  0.00    -0.220 NA
ATOM      8  N   UNL     1       1.049  -4.779  -2.240  0.00  0.00    -0.299 N 
ATOM      9  C   UNL     1       0.850  -4.894  -0.789  0.00  0.00    +0.111 C 
ATOM     10  C   UNL     1       2.087  -4.364  -0.060  0.00  0.00    +0.062 C 
ATOM     11  C   UNL     1       2.318  -2.904  -0.452  0.00  0.00    +0.106 C 
ATOM     12  C   UNL     1       2.470  -2.803  -1.971  0.00  0.00    +0.062 C 
ATOM     13  C   UNL     1       1.222  -3.378  -2.643  0.00  0.00    +0.111 C 
ATOM     14  N   UNL     1       1.198  -2.083  -0.007  0.00  0.00    -0.323 N 
ATOM     15  C   UNL     1       1.215  -0.690  -0.019  0.00  0.00    +0.061 A 
ATOM     16  C   UNL     1       0.002  -0.004   0.002  0.00  0.00    +0.063 A 
ATOM     17  C   UNL     1      -0.017   1.377   0.010  0.00  0.00    +0.128 A 
ATOM     18  C   UNL     1       1.170   2.091   0.002  0.00  0.00    +0.078 A 
ATOM     19  C   UNL     1       2.379   1.415  -0.019  0.00  0.00    +0.154 A 
ATOM     20  C   UNL     1       2.399   0.034  -0.036  0.00  0.00    +0.161 A 
ATOM     21  S   UNL     1       3.945  -0.822  -0.086  0.00  0.00    +0.065 S 
ATOM     22  O   UNL     1       4.701  -0.379   1.032  0.00  0.00    -0.153 OA
ATOM     23  O   UNL     1       4.423  -0.738  -1.422  0.00  0.00    -0.153 OA
ATOM     24  N   UNL     1       3.554  -2.420   0.192  0.00  0.00    -0.167 NA
ATOM     25  F   UNL     1       3.540   2.108  -0.024  0.00  0.00    -0.203 F 
ATOM     26  F   UNL     1      -1.197   2.034   0.019  0.00  0.00    -0.205 F 
ATOM     27  C   UNL     1      -0.935  -5.899  -6.455  0.00  0.00    +0.066 C 
ATOM     28  H   UNL     1       0.279  -2.561   0.363  0.00  0.00    +0.148 HD
ATOM     29  H   UNL     1       4.066  -3.045   0.939  0.00  0.00    +0.150 HD
ENDROOT
TORSDOF 0
