REMARK  Name = ZINC01123003
REMARK  4 active torsions:
REMARK  status: ('A' for Active; 'I' for Inactive)
REMARK    1  A    between atoms: C_3  and  C_10
REMARK    2  A    between atoms: C_5  and  N_7
REMARK    3  A    between atoms: N_25  and  C_26
REMARK    4  A    between atoms: C_26  and  C_27
REMARK                            x       y       z     vdW  Elec       q    Type
REMARK                         _______ _______ _______ _____ _____    ______ ____
ROOT
ATOM      1  C   UNL     1       2.490   1.048  -0.016  0.00  0.00    +0.145 C 
ATOM      2  C   UNL     1       3.090   1.089  -1.397  0.00  0.00    +0.072 A 
ATOM      3  C   UNL     1       2.626   0.596  -2.697  0.00  0.00    +0.199 A 
ATOM      4  O   UNL     1       1.558   0.020  -2.818  0.00  0.00    -0.287 OA
ATOM      5  C   UNL     1       3.515   0.830  -3.851  0.00  0.00    +0.065 A 
ATOM      6  C   UNL     1       3.171   0.402  -5.133  0.00  0.00    +0.030 A 
ATOM      7  C   UNL     1       4.032   0.641  -6.182  0.00  0.00    +0.019 A 
ATOM      8  C   UNL     1       5.233   1.304  -5.963  0.00  0.00    +0.019 A 
ATOM      9  C   UNL     1       5.583   1.731  -4.701  0.00  0.00    +0.048 A 
ATOM     10  C   UNL     1       4.729   1.501  -3.626  0.00  0.00    +0.140 A 
ATOM     11  O   UNL     1       5.061   1.913  -2.389  0.00  0.00    -0.450 OA
ATOM     12  C   UNL     1       4.285   1.723  -1.304  0.00  0.00    +0.199 A 
ATOM     13  C   UNL     1       4.499   2.110   0.113  0.00  0.00    +0.283 C 
ATOM     14  O   UNL     1       5.476   2.696   0.533  0.00  0.00    -0.267 OA
ATOM     15  N   UNL     1       3.455   1.718   0.864  0.00  0.00    -0.279 N 
ATOM     16 BR   UNL     1       3.576   0.067  -7.925  0.00  0.00    -0.050 Br
ENDROOT
BRANCH   1  19
ATOM     17  C   UNL     1      -0.050   3.840   0.022  0.00  0.00    +0.003 A 
ATOM     18  C   UNL     1       1.157   3.165   0.008  0.00  0.00    +0.006 A 
ATOM     19  C   UNL     1       1.175   1.783   0.000  0.00  0.00    -0.020 A 
ATOM     20  C   UNL     1      -0.013   1.076   0.008  0.00  0.00    +0.038 A 
ATOM     21  C   UNL     1      -1.219   1.750   0.017  0.00  0.00    +0.127 A 
ATOM     22  C   UNL     1      -1.238   3.133   0.030  0.00  0.00    +0.033 A 
BRANCH  21  23
ATOM     23  N   UNL     1      -2.490   0.993   0.019  0.00  0.00    +0.056 N 
ATOM     24  O   UNL     1      -2.474  -0.225   0.013  0.00  0.00    -0.126 OA
ATOM     25  O   UNL     1      -3.554   1.588   0.028  0.00  0.00    -0.126 OA
ENDBRANCH  21  23
ENDBRANCH   1  19
BRANCH  15  26
ATOM     26  C   UNL     1       3.308   1.923   2.307  0.00  0.00    +0.144 C 
BRANCH  26  27
ATOM     27  C   UNL     1       3.898   0.749   3.045  0.00  0.00    -0.030 A 
ATOM     28  C   UNL     1       3.107  -0.340   3.358  0.00  0.00    +0.008 A 
ATOM     29  C   UNL     1       3.649  -1.419   4.030  0.00  0.00    +0.038 A 
ATOM     30  C   UNL     1       4.983  -1.404   4.399  0.00  0.00    +0.123 A 
ATOM     31  C   UNL     1       5.774  -0.311   4.090  0.00  0.00    +0.038 A 
ATOM     32  C   UNL     1       5.231   0.765   3.413  0.00  0.00    +0.008 A 
ATOM     33  F   UNL     1       5.513  -2.457   5.061  0.00  0.00    -0.205 F 
ENDBRANCH  26  27
ENDBRANCH  15  26
TORSDOF 4
