REMARK  Name = ZINC21651135
REMARK  11 active torsions:
REMARK  status: ('A' for Active; 'I' for Inactive)
REMARK    1  A    between atoms: C_1  and  C_2
REMARK    2  A    between atoms: C_2  and  C_3
REMARK    3  A    between atoms: C_2  and  C_4
REMARK    4  A    between atoms: C_4  and  C_6
REMARK    5  A    between atoms: C_4  and  N_11
REMARK    6  A    between atoms: C_12  and  C_14
REMARK    7  A    between atoms: C_14  and  S_15
REMARK    8  A    between atoms: S_15  and  C_17
REMARK    9  A    between atoms: C_17  and  C_18
REMARK   10  A    between atoms: N_21  and  C_28
REMARK   11  A    between atoms: C_22  and  N_23
REMARK                            x       y       z     vdW  Elec       q    Type
REMARK                         _______ _______ _______ _____ _____    ______ ____
ROOT
ATOM      1  C   UNL     1      -1.204  -0.907   0.009  0.00  0.00    +0.144 C 
ENDROOT
BRANCH   1   2
ATOM      2  C   UNL     1       0.002  -0.004   0.002  0.00  0.00    +0.027 A 
ATOM      3  C   UNL     1      -0.017   1.393   0.010  0.00  0.00    +0.141 A 
ATOM      4  N   UNL     1       1.219   1.825   0.000  0.00  0.00    -0.173 NA
ATOM      5  N   UNL     1       2.074   0.716  -0.014  0.00  0.00    -0.216 N 
ATOM      6  C   UNL     1       1.302  -0.404  -0.013  0.00  0.00    +0.145 A 
BRANCH   5   7
ATOM      7  C   UNL     1       3.475   0.754  -0.027  0.00  0.00    +0.068 A 
ATOM      8  C   UNL     1       4.204  -0.211   0.656  0.00  0.00    +0.028 A 
ATOM      9  C   UNL     1       5.584  -0.174   0.636  0.00  0.00    +0.002 A 
ATOM     10  C   UNL     1       6.241   0.829  -0.052  0.00  0.00    +0.000 A 
ATOM     11  C   UNL     1       5.519   1.795  -0.728  0.00  0.00    +0.002 A 
ATOM     12  C   UNL     1       4.138   1.760  -0.717  0.00  0.00    +0.028 A 
ENDBRANCH   5   7
BRANCH   6  13
ATOM     13  N   UNL     1       1.761  -1.724  -0.024  0.00  0.00    -0.308 N 
ATOM     14  C   UNL     1       1.293  -2.737   0.764  0.00  0.00    +0.092 A 
ATOM     15  C   UNL     1       1.979  -3.858   0.461  0.00  0.00    +0.019 A 
ATOM     16  C   UNL     1       2.910  -3.526  -0.543  0.00  0.00    +0.019 A 
ATOM     17  C   UNL     1       2.756  -2.215  -0.821  0.00  0.00    +0.092 A 
ENDBRANCH   6  13
ENDBRANCH   1   2
BRANCH   1  18
ATOM     18  S   UNL     1      -1.704  -1.261  -1.698  0.00  0.00    +0.036 S 
ATOM     19  O   UNL     1      -0.663  -1.966  -2.360  0.00  0.00    -0.256 OA
BRANCH  18  20
ATOM     20  C   UNL     1      -3.148  -2.345  -1.517  0.00  0.00    +0.199 C 
BRANCH  20  22
ATOM     21  N   UNL     1      -4.745  -3.523  -2.993  0.00  0.00    -0.307 N 
ATOM     22  C   UNL     1      -3.670  -2.719  -2.880  0.00  0.00    +0.226 C 
ATOM     23  O   UNL     1      -3.122  -2.296  -3.876  0.00  0.00    -0.275 OA
ATOM     24  H   UNL     1      -5.242  -3.907  -2.089  0.00  0.00    +0.149 HD
BRANCH  21  25
ATOM     25  C   UNL     1      -5.253  -3.887  -4.318  0.00  0.00    +0.112 C 
BRANCH  25  26
ATOM     26  C   UNL     1      -5.996  -5.195  -4.230  0.00  0.00    +0.010 A 
ATOM     27  C   UNL     1      -6.003  -6.233  -5.101  0.00  0.00    +0.013 A 
ATOM     28  C   UNL     1      -6.766  -7.348  -4.809  0.00  0.00    +0.008 A 
ATOM     29  C   UNL     1      -7.493  -7.366  -3.665  0.00  0.00    +0.045 A 
ATOM     30  S   UNL     1      -7.102  -5.776  -2.954  0.00  0.00    -0.100 S 
ENDBRANCH  25  26
BRANCH  25  32
ATOM     31  C   UNL     1      -5.446  -1.467  -4.908  0.00  0.00    +0.009 C 
ATOM     32  C   UNL     1      -6.200  -2.795  -4.819  0.00  0.00    +0.008 C 
ATOM     33  C   UNL     1      -6.730  -3.175  -6.203  0.00  0.00    +0.009 C 
ENDBRANCH  25  32
ENDBRANCH  21  25
ENDBRANCH  20  22
ENDBRANCH  18  20
ENDBRANCH   1  18
TORSDOF 9
