REMARK  Name = ZINC21965298
REMARK  8 active torsions:
REMARK  status: ('A' for Active; 'I' for Inactive)
REMARK    1  A    between atoms: C_1  and  C_2
REMARK    2  A    between atoms: N_4  and  C_28
REMARK    3  A    between atoms: C_8  and  N_9
REMARK    4  A    between atoms: N_9  and  C_10
REMARK    5  A    between atoms: C_13  and  S_16
REMARK    6  A    between atoms: S_16  and  N_19
REMARK    7  A    between atoms: N_19  and  C_20
REMARK    8  A    between atoms: C_25  and  O_26
REMARK                            x       y       z     vdW  Elec       q    Type
REMARK                         _______ _______ _______ _____ _____    ______ ____
ROOT
ATOM      1  C   UNL     1       1.165   1.931   0.289  0.00  0.00    +0.031 A 
ATOM      2  C   UNL     1       1.199   3.318   0.221  0.00  0.00    +0.025 A 
ATOM      3  C   UNL     1       2.411   3.975   0.138  0.00  0.00    +0.030 A 
ATOM      4  C   UNL     1       3.590   3.252   0.112  0.00  0.00    +0.109 A 
ATOM      5  C   UNL     1       3.560   1.871   0.174  0.00  0.00    +0.030 A 
ATOM      6  C   UNL     1       2.351   1.209   0.263  0.00  0.00    +0.025 A 
ENDROOT
BRANCH   4   7
ATOM      7  S   UNL     1       5.134   4.093  -0.002  0.00  0.00    +0.072 S 
ATOM      8  O   UNL     1       4.921   5.404   0.503  0.00  0.00    -0.150 OA
ATOM      9  O   UNL     1       6.114   3.218   0.540  0.00  0.00    -0.150 OA
BRANCH   7  10
ATOM     10  N   UNL     1       5.485   4.257  -1.612  0.00  0.00    -0.213 N 
ATOM     11  H   UNL     1       6.398   3.804  -2.025  0.00  0.00    +0.174 HD
BRANCH  10  12
ATOM     12  C   UNL     1       4.620   4.973  -2.447  0.00  0.00    +0.091 A 
ATOM     13  C   UNL     1       3.955   6.091  -1.966  0.00  0.00    +0.048 A 
ATOM     14  C   UNL     1       3.101   6.797  -2.793  0.00  0.00    +0.043 A 
ATOM     15  C   UNL     1       2.907   6.390  -4.102  0.00  0.00    +0.024 A 
ATOM     16  C   UNL     1       3.567   5.275  -4.587  0.00  0.00    +0.049 A 
ATOM     17  C   UNL     1       4.428   4.567  -3.766  0.00  0.00    +0.139 A 
ATOM     18 CL   UNL     1       2.269   8.196  -2.190  0.00  0.00    -0.083 Cl
BRANCH  17  19
ATOM     19  O   UNL     1       5.082   3.475  -4.245  0.00  0.00    -0.505 OA
ATOM     20  H   UNL     1       4.930   3.155  -5.287  0.00  0.00    +0.292 HD
ENDBRANCH  17  19
ENDBRANCH  10  12
ENDBRANCH   7  10
ENDBRANCH   4   7
BRANCH   1  21
ATOM     21  N   UNL     1      -0.060   1.264   0.378  0.00  0.00    -0.320 N 
ATOM     22  H   UNL     1      -0.085   0.166   0.432  0.00  0.00    +0.152 HD
BRANCH  21  30
ATOM     23  C   UNL     1      -4.092   3.374   0.476  0.00  0.00    +0.068 C 
ATOM     24  C   UNL     1      -3.769   1.903   0.520  0.00  0.00    +0.070 C 
ATOM     25  N   UNL     1      -4.626   0.931   0.596  0.00  0.00    -0.176 NA
ATOM     26  N   UNL     1      -3.987  -0.308   0.622  0.00  0.00    -0.156 N 
ATOM     27  C   UNL     1      -2.651  -0.142   0.555  0.00  0.00    +0.273 C 
ATOM     28  O   UNL     1      -1.802  -1.018   0.555  0.00  0.00    -0.268 OA
ATOM     29  C   UNL     1      -2.425   1.307   0.481  0.00  0.00    +0.075 C 
ATOM     30  C   UNL     1      -1.211   1.968   0.398  0.00  0.00    +0.087 C 
BRANCH  26  31
ATOM     31  C   UNL     1      -4.639  -1.546   0.706  0.00  0.00    +0.060 A 
ATOM     32  C   UNL     1      -3.901  -2.721   0.720  0.00  0.00    +0.027 A 
ATOM     33  C   UNL     1      -4.545  -3.939   0.807  0.00  0.00    +0.022 A 
ATOM     34  C   UNL     1      -5.927  -3.990   0.871  0.00  0.00    +0.041 A 
ATOM     35  C   UNL     1      -6.666  -2.820   0.853  0.00  0.00    +0.022 A 
ATOM     36  C   UNL     1      -6.026  -1.599   0.770  0.00  0.00    +0.027 A 
ATOM     37 CL   UNL     1      -6.734  -5.523   0.974  0.00  0.00    -0.084 Cl
ENDBRANCH  26  31
ENDBRANCH  21  30
ENDBRANCH   1  21
TORSDOF 7
