REMARK  Name = ZINC45258501
REMARK  9 active torsions:
REMARK  status: ('A' for Active; 'I' for Inactive)
REMARK    1  A    between atoms: C_1  and  C_2
REMARK    2  A    between atoms: C_2  and  C_32
REMARK    3  A    between atoms: C_5  and  C_11
REMARK    4  A    between atoms: C_11  and  N_12
REMARK    5  A    between atoms: C_23  and  C_25
REMARK    6  A    between atoms: C_28  and  N_31
REMARK    7  A    between atoms: C_32  and  C_33
REMARK    8  A    between atoms: C_32  and  C_34
REMARK    9  A    between atoms: C_32  and  C_35
REMARK                            x       y       z     vdW  Elec       q    Type
REMARK                         _______ _______ _______ _____ _____    ______ ____
ROOT
ATOM      1  N   UNL     1      -3.310  -2.340   0.732  0.00  0.00    +0.382 N 
ATOM      2  C   UNL     1      -2.596  -2.244  -0.547  0.00  0.00    -0.078 C 
ATOM      3  C   UNL     1      -2.692  -3.579  -1.290  0.00  0.00    -0.012 C 
ATOM      4  C   UNL     1      -4.165  -3.908  -1.548  0.00  0.00    -0.030 C 
ATOM      5  C   UNL     1      -4.916  -3.931  -0.214  0.00  0.00    -0.012 C 
ATOM      6  C   UNL     1      -4.737  -2.583   0.489  0.00  0.00    -0.078 C 
ATOM      7  C   UNL     1      -4.775  -2.840  -2.458  0.00  0.00    +0.026 C 
ATOM      8  C   UNL     1      -6.257  -3.154  -2.686  0.00  0.00    +0.108 C 
ATOM      9  N   UNL     1      -6.376  -4.525  -3.199  0.00  0.00    -0.296 N 
ATOM     10  C   UNL     1      -5.749  -5.619  -2.444  0.00  0.00    +0.108 C 
ATOM     11  C   UNL     1      -4.272  -5.278  -2.218  0.00  0.00    +0.026 C 
ATOM     12  C   UNL     1      -7.049  -4.776  -4.340  0.00  0.00    +0.265 C 
ATOM     13  O   UNL     1      -7.394  -3.857  -5.056  0.00  0.00    -0.268 OA
ATOM     14  H   UNL     1      -2.927  -3.100   1.272  0.00  0.00    -0.081 HD
ENDROOT
BRANCH  12  15
ATOM     15  C   UNL     1      -7.367  -6.169  -4.720  0.00  0.00    +0.126 A 
ATOM     16  C   UNL     1      -7.912  -6.434  -5.976  0.00  0.00    +0.035 A 
ATOM     17  C   UNL     1      -8.206  -7.740  -6.321  0.00  0.00    +0.026 A 
ATOM     18  C   UNL     1      -7.942  -8.747  -5.393  0.00  0.00    +0.043 A 
ATOM     19  C   UNL     1      -7.395  -8.406  -4.156  0.00  0.00    +0.134 A 
ATOM     20  N   UNL     1      -7.124  -7.155  -3.863  0.00  0.00    -0.249 NA
BRANCH  18  21
ATOM     21  N   UNL     1      -8.221 -10.075  -5.697  0.00  0.00    -0.357 N 
ATOM     22  H   UNL     1      -8.602 -10.305  -6.559  0.00  0.00    +0.142 HD
ATOM     23  H   UNL     1      -8.036 -10.771  -5.048  0.00  0.00    +0.142 HD
ENDBRANCH  18  21
ENDBRANCH  12  15
BRANCH   1  24
ATOM     24  C   UNL     1      -3.149  -1.083   1.476  0.00  0.00    -0.043 C 
BRANCH  24  29
ATOM     25  C   UNL     1      -0.183  -4.524   3.821  0.00  0.00    +0.056 C 
ATOM     26  C   UNL     1      -0.600  -3.256   4.569  0.00  0.00    +0.117 C 
ATOM     27  C   UNL     1      -1.840  -2.611   3.905  0.00  0.00    +0.087 C 
ATOM     28  C   UNL     1      -1.205  -1.617   2.952  0.00  0.00    -0.001 A 
ATOM     29  C   UNL     1      -1.705  -0.918   1.876  0.00  0.00    -0.057 A 
ATOM     30  C   UNL     1      -0.882  -0.064   1.163  0.00  0.00    +0.002 A 
ATOM     31  C   UNL     1       0.441   0.083   1.536  0.00  0.00    +0.004 A 
ATOM     32  C   UNL     1       0.944  -0.614   2.615  0.00  0.00    +0.046 A 
ATOM     33  C   UNL     1       0.121  -1.473   3.340  0.00  0.00    +0.125 A 
ATOM     34  O   UNL     1       0.401  -2.233   4.434  0.00  0.00    -0.485 OA
BRANCH  26  35
ATOM     35  C   UNL     1      -0.868  -3.562   6.044  0.00  0.00    +0.002 C 
ATOM     36  C   UNL     1       0.398  -4.137   6.683  0.00  0.00    +0.014 C 
ATOM     37  C   UNL     1      -1.265  -2.275   6.768  0.00  0.00    +0.014 C 
ATOM     38  C   UNL     1      -2.003  -4.582   6.155  0.00  0.00    +0.014 C 
ENDBRANCH  26  35
ENDBRANCH  24  29
ENDBRANCH   1  24
TORSDOF 5
