REMARK  Name = ZINC12660966
REMARK  8 active torsions:
REMARK  status: ('A' for Active; 'I' for Inactive)
REMARK    1  A    between atoms: C_1  and  C_2
REMARK    2  A    between atoms: C_12  and  C_14
REMARK    3  A    between atoms: C_12  and  O_32
REMARK    4  A    between atoms: C_15  and  C_16
REMARK    5  A    between atoms: C_23  and  O_24
REMARK    6  A    between atoms: O_24  and  C_25
REMARK    7  A    between atoms: C_31  and  N_80
REMARK    8  A    between atoms: C_41  and  C_42
REMARK                            x       y       z     vdW  Elec       q    Type
REMARK                         _______ _______ _______ _____ _____    ______ ____
ROOT
ATOM      1  C   UNL     1       4.924   4.460  -4.219  0.00  0.00    +0.011 C 
ATOM      2  C   UNL     1       4.055   3.456  -3.434  0.00  0.00    -0.025 C 
ATOM      3  C   UNL     1       2.624   3.915  -3.583  0.00  0.00    +0.007 C 
ATOM      4  C   UNL     1       1.692   3.289  -2.547  0.00  0.00    +0.005 C 
ATOM      5  C   UNL     1       2.228   3.647  -1.158  0.00  0.00    +0.002 C 
ATOM      6  C   UNL     1       3.561   2.926  -0.974  0.00  0.00    -0.003 C 
ATOM      7  C   UNL     1       4.583   3.407  -2.001  0.00  0.00    +0.002 C 
ATOM      8  C   UNL     1       5.745   2.382  -2.054  0.00  0.00    +0.052 C 
ATOM      9  C   UNL     1       5.459   1.450  -3.244  0.00  0.00    +0.127 C 
ATOM     10  C   UNL     1       4.296   2.069  -4.040  0.00  0.00    +0.055 C 
ATOM     11  C   UNL     1       3.362   1.416  -1.060  0.00  0.00    +0.008 C 
ATOM     12  C   UNL     1       2.422   0.947   0.054  0.00  0.00    +0.032 C 
ATOM     13  C   UNL     1       1.137   1.750   0.001  0.00  0.00    -0.060 C 
ATOM     14  C   UNL     1      -0.013   1.076   0.008  0.00  0.00    +0.046 C 
ATOM     15  C   UNL     1      -1.290   1.793   0.030  0.00  0.00    +0.156 C 
ATOM     16  O   UNL     1      -2.332   1.237  -0.259  0.00  0.00    -0.293 OA
ATOM     17  C   UNL     1      -1.258   3.254   0.420  0.00  0.00    +0.080 C 
ATOM     18  C   UNL     1      -0.111   3.924  -0.333  0.00  0.00    +0.019 C 
ATOM     19  C   UNL     1       1.222   3.243  -0.079  0.00  0.00    -0.007 C 
ATOM     20  C   UNL     1       1.738   3.758   1.270  0.00  0.00    +0.016 C 
ENDROOT
BRANCH   9  21
ATOM     21  C   UNL     1       6.657   1.359  -4.105  0.00  0.00    -0.069 C 
ATOM     22  C   UNL     1       7.609   1.286  -4.789  0.00  0.00    -0.110 C 
BRANCH  22  23
ATOM     23  C   UNL     1       8.802   1.195  -5.646  0.00  0.00    +0.043 C 
ATOM     24  C   UNL     1       9.935   0.588  -4.859  0.00  0.00    -0.001 A 
ATOM     25  C   UNL     1      10.314  -0.727  -5.026  0.00  0.00    -0.039 A 
ATOM     26  C   UNL     1      11.360  -1.246  -4.279  0.00  0.00    +0.053 A 
ATOM     27  C   UNL     1      12.032  -0.454  -3.363  0.00  0.00    +0.170 A 
ATOM     28  C   UNL     1      11.655   0.874  -3.194  0.00  0.00    +0.208 A 
ATOM     29  C   UNL     1      10.607   1.391  -3.943  0.00  0.00    +0.168 A 
ATOM     30  O   UNL     1      12.460   1.440  -2.247  0.00  0.00    -0.449 OA
ATOM     31  C   UNL     1      13.596   0.562  -2.134  0.00  0.00    +0.467 C 
ATOM     32  O   UNL     1      13.074  -0.722  -2.523  0.00  0.00    -0.452 OA
ATOM     33  C   UNL     1       9.619  -1.631  -6.012  0.00  0.00    +0.017 C 
ATOM     34  C   UNL     1       8.275  -1.026  -6.417  0.00  0.00    -0.072 C 
ATOM     35  C   UNL     1       7.329   0.901  -7.542  0.00  0.00    -0.094 C 
ATOM     36  N   UNL     1       8.515   0.371  -6.831  0.00  0.00    +0.390 N 
ATOM     37  H   UNL     1       9.323   0.399  -7.463  0.00  0.00    -0.080 HD
BRANCH  29  38
ATOM     38  O   UNL     1      10.234   2.689  -3.779  0.00  0.00    -0.491 OA
ATOM     39  C   UNL     1       9.235   2.958  -2.794  0.00  0.00    +0.277 C 
ENDBRANCH  29  38
ENDBRANCH  22  23
ENDBRANCH   9  21
BRANCH   9  40
ATOM     40  O   UNL     1       5.113   0.137  -2.799  0.00  0.00    -0.377 OA
ATOM     41  H   UNL     1       5.809  -0.302  -2.291  0.00  0.00    +0.211 HD
ENDBRANCH   9  40
TORSDOF 4
