REMARK  Name = ZINC12661517
REMARK  12 active torsions:
REMARK  status: ('A' for Active; 'I' for Inactive)
REMARK    1  A    between atoms: C_1  and  O_2
REMARK    2  A    between atoms: O_2  and  C_3
REMARK    3  A    between atoms: C_5  and  C_17
REMARK    4  A    between atoms: C_8  and  O_9
REMARK    5  A    between atoms: O_9  and  C_10
REMARK    6  A    between atoms: C_10  and  C_11
REMARK    7  A    between atoms: N_18  and  N_19
REMARK    8  A    between atoms: N_28  and  C1*_29
REMARK    9  A    between atoms: C2*_31  and  O2*_41
REMARK   10  A    between atoms: C3*_33  and  O3*_40
REMARK   11  A    between atoms: C4*_35  and  C5*_38
REMARK   12  A    between atoms: C5*_38  and  O5*_39
REMARK                            x       y       z     vdW  Elec       q    Type
REMARK                         _______ _______ _______ _____ _____    ______ ____
ROOT
ATOM      1  N   UNL     1      -4.837   0.932   0.031  0.00  0.00    -0.206 N 
ATOM      2  C   UNL     1      -6.039   1.610   0.040  0.00  0.00    +0.220 A 
ATOM      3  N   UNL     1      -6.170   2.913   0.047  0.00  0.00    -0.208 NA
ATOM      4  C   UNL     1      -7.488   3.233   0.055  0.00  0.00    +0.149 A 
ATOM      5  C   UNL     1      -8.209   4.439   0.064  0.00  0.00    +0.147 A 
ATOM      6  N   UNL     1      -9.537   4.383   0.070  0.00  0.00    -0.219 NA
ATOM      7  C   UNL     1     -10.172   3.226   0.068  0.00  0.00    +0.225 A 
ATOM      8  N   UNL     1      -9.539   2.072   0.060  0.00  0.00    -0.216 NA
ATOM      9  C   UNL     1      -8.211   2.029   0.053  0.00  0.00    +0.169 A 
ATOM     10  N   UNL     1      -7.275   1.021   0.038  0.00  0.00    -0.266 N 
ATOM     11  N   UNL     1      -7.551   5.658   0.067  0.00  0.00    -0.341 N 
ATOM     12  H   UNL     1      -4.826  -0.038   0.026  0.00  0.00    +0.177 HD
ATOM     13  H   UNL     1      -6.974   5.723   0.881  0.00  0.00    +0.144 HD
ATOM     14  H   UNL     1      -8.059   6.484   0.073  0.00  0.00    +0.144 HD
ENDROOT
BRANCH  10  15
ATOM     15  C1* UNL     1      -7.550  -0.418   0.025  0.00  0.00    +0.255 C 
ATOM     16  C2* UNL     1      -7.287  -1.012  -1.382  0.00  0.00    +0.195 C 
ATOM     17  C3* UNL     1      -7.001  -2.498  -1.059  0.00  0.00    +0.178 C 
ATOM     18  C4* UNL     1      -6.600  -2.491   0.429  0.00  0.00    +0.177 C 
ATOM     19  O4* UNL     1      -6.613  -1.122   0.868  0.00  0.00    -0.346 OA
BRANCH  17  20
ATOM     20  O3* UNL     1      -8.175  -3.288  -1.256  0.00  0.00    -0.386 OA
ATOM     21  H3* UNL     1      -8.053  -4.229  -1.068  0.00  0.00    +0.210 HD
ENDBRANCH  17  20
BRANCH  16  22
ATOM     22  O2* UNL     1      -6.151  -0.394  -1.992  0.00  0.00    -0.385 OA
ATOM     23  H2* UNL     1      -5.946  -0.732  -2.874  0.00  0.00    +0.210 HD
ENDBRANCH  16  22
BRANCH  18  24
ATOM     24  C5* UNL     1      -5.197  -3.079   0.593  0.00  0.00    +0.190 C 
BRANCH  24  25
ATOM     25  O5* UNL     1      -4.880  -3.176   1.983  0.00  0.00    -0.392 OA
ATOM     26  H5* UNL     1      -4.003  -3.542   2.162  0.00  0.00    +0.210 HD
ENDBRANCH  24  25
ENDBRANCH  18  24
ENDBRANCH  10  15
BRANCH   1  28
ATOM     27  C   UNL     1      -2.500   1.009   0.020  0.00  0.00    +0.138 C 
ATOM     28  N   UNL     1      -3.631   1.646   0.029  0.00  0.00    -0.188 NA
BRANCH  27  31
ATOM     29  C   UNL     1       1.174   1.785   0.000  0.00  0.00    +0.162 A 
ATOM     30  C   UNL     1      -0.013   1.076   0.008  0.00  0.00    +0.059 A 
ATOM     31  C   UNL     1      -1.231   1.760   0.017  0.00  0.00    -0.002 A 
ATOM     32  C   UNL     1      -1.244   3.157   0.030  0.00  0.00    +0.013 A 
ATOM     33  C   UNL     1      -0.056   3.857   0.022  0.00  0.00    +0.050 A 
ATOM     34  C   UNL     1       1.153   3.178   0.007  0.00  0.00    +0.162 A 
BRANCH  29  36
ATOM     35  C   UNL     1       2.308  -0.305  -0.021  0.00  0.00    +0.277 C 
ATOM     36  O   UNL     1       2.362   1.123  -0.014  0.00  0.00    -0.491 OA
ENDBRANCH  29  36
BRANCH  34  37
ATOM     37  O   UNL     1       2.322   3.873  -0.001  0.00  0.00    -0.484 OA
BRANCH  37  38
ATOM     38  C   UNL     1       2.228   5.299   0.006  0.00  0.00    +0.264 C 
BRANCH  38  39
ATOM     39  C   UNL     1       3.613   5.894  -0.004  0.00  0.00    -0.010 A 
ATOM     40  C   UNL     1       4.257   6.166   1.188  0.00  0.00    +0.007 A 
ATOM     41  C   UNL     1       5.530   6.706   1.177  0.00  0.00    +0.000 A 
ATOM     42  C   UNL     1       6.153   6.985  -0.025  0.00  0.00    +0.000 A 
ATOM     43  C   UNL     1       5.506   6.718  -1.217  0.00  0.00    +0.000 A 
ATOM     44  C   UNL     1       4.236   6.172  -1.207  0.00  0.00    +0.007 A 
ENDBRANCH  38  39
ENDBRANCH  37  38
ENDBRANCH  34  37
ENDBRANCH  27  31
ENDBRANCH   1  28
TORSDOF 11
