REMARK  Name = ZINC51030302
REMARK  12 active torsions:
REMARK  status: ('A' for Active; 'I' for Inactive)
REMARK    1  A    between atoms: C_1  and  C_2
REMARK    2  A    between atoms: C_2  and  C_3
REMARK    3  A    between atoms: C_3  and  C_5
REMARK    4  A    between atoms: C_3  and  C_6
REMARK    5  A    between atoms: C_9  and  N_12
REMARK    6  A    between atoms: N_12  and  C_13
REMARK    7  A    between atoms: C_15  and  C_16
REMARK    8  A    between atoms: C_15  and  C_18
REMARK    9  A    between atoms: C_18  and  C_20
REMARK   10  A    between atoms: C_20  and  N_21
REMARK   11  A    between atoms: C_22  and  C_24
REMARK   12  A    between atoms: C_27  and  C_29
REMARK                            x       y       z     vdW  Elec       q    Type
REMARK                         _______ _______ _______ _____ _____    ______ ____
ROOT
ATOM      1  C   UNL     1      -0.297  -6.749  -2.534  0.00  0.00    +0.262 C 
ATOM      2  O   UNL     1      -0.816  -6.002  -3.526  0.00  0.00    -0.269 OA
ATOM      3  C   UNL     1      -0.465  -8.137  -2.543  0.00  0.00    +0.157 C 
ENDROOT
BRANCH   1   4
ATOM      4  N   UNL     1       0.393  -6.154  -1.523  0.00  0.00    -0.281 N 
ATOM      5  H   UNL     1       0.836  -6.697  -0.853  0.00  0.00    +0.155 HD
BRANCH   4   9
ATOM      6  C   UNL     1       0.600  -2.000  -1.307  0.00  0.00    -0.044 A 
ATOM      7  C   UNL     1       1.671  -2.767  -0.887  0.00  0.00    +0.006 A 
ATOM      8  C   UNL     1       1.606  -4.144  -0.957  0.00  0.00    +0.023 A 
ATOM      9  C   UNL     1       0.462  -4.760  -1.450  0.00  0.00    +0.034 A 
ATOM     10  C   UNL     1      -0.612  -3.986  -1.871  0.00  0.00    +0.023 A 
ATOM     11  C   UNL     1      -0.542  -2.609  -1.793  0.00  0.00    +0.006 A 
BRANCH   6  12
ATOM     12  C   UNL     1       0.675  -0.496  -1.229  0.00  0.00    +0.016 C 
ATOM     13  C   UNL     1       1.839   0.001  -2.087  0.00  0.00    +0.012 C 
BRANCH  12  15
ATOM     14  C   UNL     1       0.846   1.454   0.323  0.00  0.00    +0.004 C 
ATOM     15  C   UNL     1       0.894  -0.072   0.225  0.00  0.00    +0.004 C 
ENDBRANCH  12  15
ENDBRANCH   6  12
ENDBRANCH   4   9
ENDBRANCH   1   4
BRANCH   3  16
ATOM     16  C   UNL     1       0.087  -8.932  -1.489  0.00  0.00    +0.108 C 
ATOM     17  N   UNL     1       0.526  -9.563  -0.652  0.00  0.00    -0.191 NA
ENDBRANCH   3  16
BRANCH   3  18
ATOM     18  C   UNL     1      -1.179  -8.753  -3.591  0.00  0.00    +0.195 C 
ATOM     19  O   UNL     1      -1.648  -8.078  -4.486  0.00  0.00    -0.289 OA
BRANCH  18  20
ATOM     20  C   UNL     1      -1.361 -10.249  -3.600  0.00  0.00    +0.185 C 
BRANCH  20  21
ATOM     21  N   UNL     1      -2.132 -10.640  -4.783  0.00  0.00    -0.304 N 
ATOM     22  C   UNL     1      -2.418 -11.938  -5.002  0.00  0.00    +0.251 C 
ATOM     23  O   UNL     1      -2.037 -12.786  -4.217  0.00  0.00    -0.270 OA
ATOM     24  H   UNL     1      -2.436  -9.964  -5.409  0.00  0.00    +0.149 HD
BRANCH  22  25
ATOM     25  C   UNL     1      -3.190 -12.329  -6.186  0.00  0.00    +0.074 A 
ATOM     26  C   UNL     1      -3.592 -13.593  -6.589  0.00  0.00    +0.021 A 
ATOM     27  C   UNL     1      -4.312 -13.646  -7.758  0.00  0.00    +0.011 A 
ATOM     28  C   UNL     1      -4.576 -12.494  -8.423  0.00  0.00    -0.013 A 
ATOM     29  S   UNL     1      -3.861 -11.302  -7.479  0.00  0.00    -0.089 S 
ATOM     30  C   UNL     1      -5.340 -12.322  -9.710  0.00  0.00    +0.051 C 
ENDBRANCH  22  25
ENDBRANCH  20  21
ENDBRANCH  18  20
ENDBRANCH   3  18
TORSDOF 9
