REMARK  Name = ZINC44218749
REMARK  10 active torsions:
REMARK  status: ('A' for Active; 'I' for Inactive)
REMARK    1  A    between atoms: C_3  and  N_22
REMARK    2  A    between atoms: C_6  and  C_7
REMARK    3  A    between atoms: C_7  and  C_8
REMARK    4  A    between atoms: C_7  and  C_15
REMARK    5  A    between atoms: C_8  and  C_10
REMARK    6  A    between atoms: C_8  and  N_14
REMARK    7  A    between atoms: C_10  and  C_11
REMARK    8  A    between atoms: C_15  and  C_17
REMARK    9  A    between atoms: C_15  and  N_21
REMARK   10  A    between atoms: C_17  and  C_18
REMARK                            x       y       z     vdW  Elec       q    Type
REMARK                         _______ _______ _______ _____ _____    ______ ____
ROOT
ATOM      1  C   UNL     1      -1.384  -0.875   0.071  0.00  0.00    -0.009 C 
ENDROOT
BRANCH   1   7
ATOM      2  C   UNL     1       0.023   1.192   0.181  0.00  0.00    +0.006 A 
ATOM      3  C   UNL     1       1.242   1.824   0.341  0.00  0.00    +0.033 A 
ATOM      4  C   UNL     1       2.383   1.077   0.565  0.00  0.00    +0.126 A 
ATOM      5  C   UNL     1       2.305  -0.302   0.630  0.00  0.00    +0.033 A 
ATOM      6  C   UNL     1       1.086  -0.933   0.471  0.00  0.00    +0.006 A 
ATOM      7  C   UNL     1      -0.055  -0.187   0.245  0.00  0.00    -0.047 A 
BRANCH   4   8
ATOM      8  N   UNL     1       3.689   1.753   0.736  0.00  0.00    +0.056 N 
ATOM      9  O   UNL     1       3.757   2.959   0.678  0.00  0.00    -0.126 OA
ATOM     10  O   UNL     1       4.687   1.100   0.932  0.00  0.00    -0.126 OA
ENDBRANCH   4   8
ENDBRANCH   1   7
BRANCH   1  11
ATOM     11  C   UNL     1      -1.431  -1.553  -1.300  0.00  0.00    -0.058 C 
BRANCH  11  12
ATOM     12  N   UNL     1      -1.224  -0.547  -2.351  0.00  0.00    +0.381 N 
ATOM     13  H   UNL     1      -1.256  -0.994  -3.255  0.00  0.00    -0.090 HD
ATOM     14  H   UNL     1      -1.951   0.151  -2.296  0.00  0.00    -0.090 HD
ATOM     15  H   UNL     1      -0.325  -0.108  -2.224  0.00  0.00    -0.090 HD
ENDBRANCH  11  12
BRANCH  11  16
ATOM     16  C   UNL     1      -0.330  -2.612  -1.384  0.00  0.00    +0.109 C 
BRANCH  16  17
ATOM     17  C   UNL     1      -0.467  -3.378  -2.674  0.00  0.00    +0.354 C 
ATOM     18  O   UNL     1      -1.362  -3.102  -3.455  0.00  0.00    -0.246 OA
ATOM     19  O   UNL     1       0.318  -4.273  -2.938  0.00  0.00    -0.246 OA
ENDBRANCH  16  17
ENDBRANCH  11  16
ENDBRANCH   1  11
BRANCH   1  20
ATOM     20  C   UNL     1      -1.561  -1.928   1.167  0.00  0.00    -0.058 C 
BRANCH  20  21
ATOM     21  N   UNL     1      -1.516  -1.278   2.483  0.00  0.00    +0.381 N 
ATOM     22  H   UNL     1      -2.258  -0.597   2.547  0.00  0.00    -0.090 HD
ATOM     23  H   UNL     1      -1.632  -1.972   3.206  0.00  0.00    -0.090 HD
ATOM     24  H   UNL     1      -0.626  -0.817   2.600  0.00  0.00    -0.090 HD
ENDBRANCH  20  21
BRANCH  20  25
ATOM     25  C   UNL     1      -2.910  -2.627   0.990  0.00  0.00    +0.109 C 
BRANCH  25  26
ATOM     26  C   UNL     1      -3.032  -3.746   1.992  0.00  0.00    +0.354 C 
ATOM     27  O   UNL     1      -2.123  -3.964   2.775  0.00  0.00    -0.246 OA
ATOM     28  O   UNL     1      -4.038  -4.433   2.019  0.00  0.00    -0.246 OA
ENDBRANCH  25  26
ENDBRANCH  20  25
ENDBRANCH   1  20
TORSDOF 10
