REMARK  Name = ZINC05732519
REMARK  14 active torsions:
REMARK  status: ('A' for Active; 'I' for Inactive)
REMARK    1  A    between atoms: C_1  and  C_2
REMARK    2  A    between atoms: C_5  and  S_8
REMARK    3  A    between atoms: S_8  and  O_11
REMARK    4  A    between atoms: O_11  and  C_12
REMARK    5  A    between atoms: C_12  and  C_13
REMARK    6  A    between atoms: C_13  and  C_15
REMARK    7  A    between atoms: C_13  and  O_21
REMARK    8  A    between atoms: N_16  and  N_17
REMARK    9  A    between atoms: O_21  and  C_22
REMARK   10  A    between atoms: C_22  and  O_23
REMARK   11  A    between atoms: O_23  and  C_24
REMARK   12  A    between atoms: C_24  and  C_26
REMARK   13  A    between atoms: C_24  and  C_27
REMARK   14  A    between atoms: N_28  and  N_29
REMARK                            x       y       z     vdW  Elec       q    Type
REMARK                         _______ _______ _______ _____ _____    ______ ____
ROOT
ATOM      1  C   UNL     1      -1.351  -1.899  -0.262  0.00  0.00    +0.191 C 
ENDROOT
BRANCH   1   2
ATOM      2  C   UNL     1      -0.228  -2.211  -1.218  0.00  0.00    +0.137 C 
ATOM      3  N   UNL     1       0.820  -2.814  -0.799  0.00  0.00    -0.189 NA
BRANCH   3   4
ATOM      4  N   UNL     1       1.907  -3.010  -1.661  0.00  0.00    -0.191 N 
ATOM      5  C   UNL     1       2.972  -3.727  -1.251  0.00  0.00    +0.317 C 
ATOM      6  O   UNL     1       3.952  -3.823  -1.965  0.00  0.00    -0.251 OA
ATOM      7  N   UNL     1       2.951  -4.336  -0.049  0.00  0.00    -0.312 N 
ATOM      8  H   UNL     1       1.893  -2.630  -2.554  0.00  0.00    +0.179 HD
ATOM      9  H   UNL     1       2.145  -4.320   0.489  0.00  0.00    +0.147 HD
ATOM     10  H   UNL     1       3.743  -4.791   0.278  0.00  0.00    +0.147 HD
ENDBRANCH   3   4
ENDBRANCH   1   2
BRANCH   1  11
ATOM     11  C   UNL     1      -1.640  -0.397  -0.287  0.00  0.00    +0.231 C 
BRANCH  11  12
ATOM     12  O   UNL     1      -0.438   0.324  -0.009  0.00  0.00    -0.231 OA
BRANCH  12  13
ATOM     13  S   UNL     1      -0.609   1.836  -0.008  0.00  0.00    +0.112 S 
ATOM     14  O   UNL     1       0.696   2.392   0.074  0.00  0.00    -0.142 OA
ATOM     15  O   UNL     1      -1.503   2.144  -1.069  0.00  0.00    -0.142 OA
BRANCH  13  20
ATOM     16  C   UNL     1      -3.436   3.310   5.114  0.00  0.00    +0.044 C 
ATOM     17  C   UNL     1      -2.730   2.942   3.835  0.00  0.00    -0.050 A 
ATOM     18  C   UNL     1      -1.349   2.892   3.797  0.00  0.00    +0.005 A 
ATOM     19  C   UNL     1      -0.701   2.554   2.624  0.00  0.00    +0.030 A 
ATOM     20  C   UNL     1      -1.435   2.266   1.488  0.00  0.00    +0.117 A 
ATOM     21  C   UNL     1      -2.815   2.321   1.524  0.00  0.00    +0.030 A 
ATOM     22  C   UNL     1      -3.463   2.654   2.699  0.00  0.00    +0.005 A 
ENDBRANCH  13  20
ENDBRANCH  12  13
ENDBRANCH  11  12
ENDBRANCH   1  11
BRANCH   1  23
ATOM     23  O   UNL     1      -0.973  -2.290   1.059  0.00  0.00    -0.343 OA
BRANCH  23  24
ATOM     24  C   UNL     1      -2.079  -2.559   1.924  0.00  0.00    +0.324 C 
BRANCH  24  25
ATOM     25  O   UNL     1      -2.653  -3.823   1.583  0.00  0.00    -0.346 OA
BRANCH  25  26
ATOM     26  C   UNL     1      -1.895  -4.947   2.035  0.00  0.00    +0.160 C 
ATOM     27  C   UNL     1      -0.862  -5.326   0.972  0.00  0.00    +0.044 C 
BRANCH  26  28
ATOM     28  C   UNL     1      -2.819  -6.112   2.276  0.00  0.00    +0.134 C 
ATOM     29  N   UNL     1      -2.901  -6.634   3.442  0.00  0.00    -0.189 NA
BRANCH  29  30
ATOM     30  N   UNL     1      -3.760  -7.718   3.665  0.00  0.00    -0.191 N 
ATOM     31  C   UNL     1      -3.846  -8.268   4.893  0.00  0.00    +0.317 C 
ATOM     32  O   UNL     1      -4.592  -9.208   5.087  0.00  0.00    -0.251 OA
ATOM     33  N   UNL     1      -3.106  -7.775   5.905  0.00  0.00    -0.312 N 
ATOM     34  H   UNL     1      -4.294  -8.073   2.937  0.00  0.00    +0.179 HD
ATOM     35  H   UNL     1      -2.511  -7.025   5.750  0.00  0.00    +0.147 HD
ATOM     36  H   UNL     1      -3.167  -8.171   6.789  0.00  0.00    +0.147 HD
ENDBRANCH  29  30
ENDBRANCH  26  28
ENDBRANCH  25  26
ENDBRANCH  24  25
ENDBRANCH  23  24
ENDBRANCH   1  23
TORSDOF 12
