REMARK  Name = ZINC21160958
REMARK  3 active torsions:
REMARK  status: ('A' for Active; 'I' for Inactive)
REMARK    1  A    between atoms: C_1  and  C_2
REMARK    2  A    between atoms: C_12  and  C_16
REMARK    3  A    between atoms: C_18  and  N_19
REMARK                            x       y       z     vdW  Elec       q    Type
REMARK                         _______ _______ _______ _____ _____    ______ ____
ROOT
ATOM      1  C   UNL     1       3.410   3.884  -3.505  0.00  0.00    +0.047 C 
ATOM      2  C   UNL     1       4.014   3.661  -2.142  0.00  0.00    -0.007 A 
ATOM      3  C   UNL     1       3.236   3.043  -1.084  0.00  0.00    +0.077 A 
ATOM      4  C   UNL     1       3.910   2.891   0.141  0.00  0.00    +0.117 A 
ATOM      5  N   UNL     1       3.326   2.344   1.203  0.00  0.00    -0.226 NA
ATOM      6  C   UNL     1       2.095   1.920   1.149  0.00  0.00    +0.114 A 
ATOM      7  N   UNL     1       1.362   2.023  -0.000  0.00  0.00    -0.296 N 
ATOM      8  C   UNL     1       1.884   2.567  -1.112  0.00  0.00    +0.263 A 
ATOM      9  O   UNL     1       1.218   2.655  -2.129  0.00  0.00    -0.267 OA
ATOM     10  C   UNL     1      -0.019   1.523   0.010  0.00  0.00    +0.127 C 
ATOM     11  C   UNL     1       0.002  -0.004   0.002  0.00  0.00    +0.025 C 
ATOM     12  C   UNL     1       0.036  -0.560   1.415  0.00  0.00    -0.012 C 
ATOM     13  C   UNL     1       1.323  -0.211   2.140  0.00  0.00    +0.011 C 
ATOM     14  C   UNL     1       1.440   1.297   2.359  0.00  0.00    +0.075 C 
ATOM     15  C   UNL     1      -0.101  -2.083   1.353  0.00  0.00    +0.007 C 
ATOM     16  S   UNL     1       5.518   3.568  -0.182  0.00  0.00    -0.053 S 
ATOM     17  C   UNL     1       5.286   4.033  -1.887  0.00  0.00    +0.079 A 
ENDROOT
BRANCH  17  18
ATOM     18  N   UNL     1       6.201   4.638  -2.752  0.00  0.00    -0.263 N 
ATOM     19  C   UNL     1       7.440   4.940  -2.317  0.00  0.00    +0.310 C 
ATOM     20  O   UNL     1       7.762   4.687  -1.172  0.00  0.00    -0.252 OA
ATOM     21  N   UNL     1       8.323   5.524  -3.151  0.00  0.00    -0.248 N 
ATOM     22  C   UNL     1       9.601   5.836  -2.703  0.00  0.00    +0.165 A 
ATOM     23  N   UNL     1      10.130   5.647  -1.510  0.00  0.00    -0.233 NA
ATOM     24  C   UNL     1      11.374   6.001  -1.250  0.00  0.00    +0.120 A 
ATOM     25  C   UNL     1      12.101   6.578  -2.237  0.00  0.00    +0.068 A 
ATOM     26  S   UNL     1      10.909   6.581  -3.569  0.00  0.00    -0.060 S 
ATOM     27  H   UNL     1       5.910   4.867  -3.787  0.00  0.00    +0.157 HD
ATOM     28  H   UNL     1       8.032   5.753  -4.187  0.00  0.00    +0.158 HD
ENDBRANCH  17  18
TORSDOF 1
