REMARK  Name = ZINC17208185
REMARK  7 active torsions:
REMARK  status: ('A' for Active; 'I' for Inactive)
REMARK    1  A    between atoms: C_1  and  C_2
REMARK    2  A    between atoms: C_5  and  N_9
REMARK    3  A    between atoms: C_7  and  C_8
REMARK    4  A    between atoms: C_13  and  N_27
REMARK    5  A    between atoms: C_14  and  N_24
REMARK    6  A    between atoms: N_17  and  C_18
REMARK    7  A    between atoms: C_18  and  C_19
REMARK                            x       y       z     vdW  Elec       q    Type
REMARK                         _______ _______ _______ _____ _____    ______ ____
ROOT
ATOM      1  N   UNL     1       0.033  -4.117  -0.019  0.00  0.00    -0.326 N 
ATOM      2  C   UNL     1      -0.053  -4.785  -1.184  0.00  0.00    +0.209 A 
ATOM      3  N   UNL     1      -0.053  -4.087  -2.357  0.00  0.00    -0.312 N 
ATOM      4  H   UNL     1       0.008  -3.119  -2.344  0.00  0.00    +0.170 HD
ATOM      5  C   UNL     1      -0.138  -4.742  -3.537  0.00  0.00    +0.131 A 
ATOM      6  C   UNL     1      -0.225  -6.142  -3.527  0.00  0.00    +0.203 A 
ATOM      7  C   UNL     1      -0.221  -6.805  -2.300  0.00  0.00    +0.157 A 
ATOM      8  N   UNL     1      -0.129  -6.104  -1.169  0.00  0.00    -0.197 NA
ATOM      9  N   UNL     1      -0.305  -8.180  -2.257  0.00  0.00    -0.320 N 
ATOM     10  H   UNL     1      -0.304  -8.692  -3.081  0.00  0.00    +0.148 HD
ATOM     11  H   UNL     1       0.145  -4.604   0.812  0.00  0.00    +0.169 HD
ENDROOT
BRANCH   1  16
ATOM     12  C   UNL     1      -0.261   1.497   0.027  0.00  0.00    +0.044 C 
ATOM     13  C   UNL     1      -0.182  -0.008   0.014  0.00  0.00    -0.047 A 
ATOM     14  C   UNL     1       0.759  -0.641   0.817  0.00  0.00    +0.005 A 
ATOM     15  C   UNL     1       0.864  -1.998   0.836  0.00  0.00    +0.026 A 
ATOM     16  C   UNL     1      -0.037  -2.793  -0.008  0.00  0.00    +0.042 A 
ATOM     17  C   UNL     1      -1.016  -2.083  -0.840  0.00  0.00    +0.029 A 
ATOM     18  C   UNL     1      -1.057  -0.722  -0.795  0.00  0.00    -0.046 A 
ATOM     19  C   UNL     1      -2.061   0.019  -1.640  0.00  0.00    +0.044 C 
ENDBRANCH   1  16
BRANCH   6  20
ATOM     20  N   UNL     1      -0.320  -6.901  -4.795  0.00  0.00    +0.063 N 
ATOM     21  O   UNL     1       0.774  -7.226  -5.452  0.00  0.00    -0.126 OA
ATOM     22  O   UNL     1      -1.500  -7.250  -5.267  0.00  0.00    -0.126 OA
ENDBRANCH   6  20
BRANCH   5  23
ATOM     23  N   UNL     1      -0.139  -4.053  -4.715  0.00  0.00    -0.343 N 
ATOM     24  H   UNL     1      -0.005  -3.092  -4.716  0.00  0.00    +0.144 HD
ATOM     25  H   UNL     1      -0.275  -4.525  -5.552  0.00  0.00    +0.144 HD
ENDBRANCH   5  23
BRANCH   9  26
ATOM     26  C   UNL     1      -0.398  -8.868  -0.967  0.00  0.00    +0.177 C 
BRANCH  26  27
ATOM     27  C   UNL     1      -0.479 -10.355  -1.196  0.00  0.00    +0.122 A 
ATOM     28  C   UNL     1       0.567 -11.198  -1.266  0.00  0.00    +0.046 A 
ATOM     29  C   UNL     1       0.037 -12.490  -1.490  0.00  0.00    +0.041 A 
ATOM     30  C   UNL     1      -1.300 -12.359  -1.542  0.00  0.00    +0.195 A 
ATOM     31  O   UNL     1      -1.608 -11.065  -1.357  0.00  0.00    -0.466 OA
ENDBRANCH  26  27
ENDBRANCH   9  26
TORSDOF 5
