REMARK  Name = ZINC01636812
REMARK  6 active torsions:
REMARK  status: ('A' for Active; 'I' for Inactive)
REMARK    1  A    between atoms: C_4  and  C_7
REMARK    2  A    between atoms: N_9  and  C_10
REMARK    3  A    between atoms: C_10  and  C_21
REMARK    4  A    between atoms: C_11  and  C_12
REMARK    5  A    between atoms: N_23  and  N_24
REMARK    6  A    between atoms: N_24  and  C_25
REMARK                            x       y       z     vdW  Elec       q    Type
REMARK                         _______ _______ _______ _____ _____    ______ ____
ROOT
ATOM      1  C   UNL     1      -1.321   6.644  -0.043  0.00  0.00    +0.098 C 
ATOM      2  C   UNL     1      -1.295   7.991   0.093  0.00  0.00    +0.036 C 
ENDROOT
BRANCH   2   3
ATOM      3  C   UNL     1      -0.032   8.723  -0.072  0.00  0.00    -0.019 A 
ATOM      4  C   UNL     1       1.167   8.166   0.389  0.00  0.00    +0.012 A 
ATOM      5  C   UNL     1       2.351   8.853   0.228  0.00  0.00    +0.050 A 
ATOM      6  C   UNL     1       2.359  10.101  -0.380  0.00  0.00    +0.166 A 
ATOM      7  C   UNL     1       1.167  10.664  -0.837  0.00  0.00    +0.167 A 
ATOM      8  C   UNL     1      -0.024   9.980  -0.685  0.00  0.00    +0.057 A 
ATOM      9  O   UNL     1       1.444  11.882  -1.389  0.00  0.00    -0.453 OA
ATOM     10  C   UNL     1       2.863  11.878  -1.635  0.00  0.00    +0.466 C 
ATOM     11  O   UNL     1       3.379  10.966  -0.647  0.00  0.00    -0.453 OA
ENDBRANCH   2   3
BRANCH   1  14
ATOM     12  C   UNL     1      -2.506   4.589   0.143  0.00  0.00    +0.248 C 
ATOM     13  O   UNL     1      -1.482   3.987  -0.116  0.00  0.00    -0.270 OA
ATOM     14  N   UNL     1      -2.488   5.933   0.254  0.00  0.00    -0.277 N 
ATOM     15  H   UNL     1      -3.285   6.406   0.539  0.00  0.00    +0.155 HD
BRANCH  12  19
ATOM     16  C   UNL     1      -6.138   2.459   0.699  0.00  0.00    +0.000 A 
ATOM     17  C   UNL     1      -4.974   1.771   0.404  0.00  0.00    +0.001 A 
ATOM     18  C   UNL     1      -3.791   2.457   0.222  0.00  0.00    +0.013 A 
ATOM     19  C   UNL     1      -3.770   3.848   0.336  0.00  0.00    +0.037 A 
ATOM     20  C   UNL     1      -4.946   4.536   0.639  0.00  0.00    +0.013 A 
ATOM     21  C   UNL     1      -6.124   3.838   0.814  0.00  0.00    +0.001 A 
ENDBRANCH  12  19
ENDBRANCH   1  14
BRANCH   1  22
ATOM     22  C   UNL     1      -0.122   5.930  -0.502  0.00  0.00    +0.274 C 
ATOM     23  O   UNL     1       0.539   5.281   0.287  0.00  0.00    -0.267 OA
ATOM     24  N   UNL     1       0.245   5.993  -1.797  0.00  0.00    -0.231 N 
ATOM     25  H   UNL     1      -0.238   6.568  -2.411  0.00  0.00    +0.173 HD
BRANCH  24  26
ATOM     26  N   UNL     1       1.326   5.229  -2.257  0.00  0.00    -0.264 N 
ATOM     27  H   UNL     1       1.762   4.599  -1.662  0.00  0.00    +0.170 HD
BRANCH  26  28
ATOM     28  C   UNL     1       1.770   5.372  -3.562  0.00  0.00    +0.055 A 
ATOM     29  C   UNL     1       1.097   6.185  -4.462  0.00  0.00    +0.045 A 
ATOM     30  C   UNL     1       1.567   6.307  -5.762  0.00  0.00    +0.113 A 
ATOM     31  N   UNL     1       2.640   5.672  -6.174  0.00  0.00    -0.255 NA
ATOM     32  C   UNL     1       3.338   4.872  -5.361  0.00  0.00    +0.074 A 
ATOM     33  C   UNL     1       2.925   4.693  -4.019  0.00  0.00    +0.023 A 
ATOM     34  C   UNL     1       3.661   3.854  -3.170  0.00  0.00    +0.013 A 
ATOM     35  C   UNL     1       4.768   3.219  -3.646  0.00  0.00    +0.021 A 
ATOM     36  C   UNL     1       5.178   3.392  -4.967  0.00  0.00    +0.043 A 
ATOM     37  C   UNL     1       4.485   4.200  -5.817  0.00  0.00    +0.048 A 
ATOM     38 CL   UNL     1       6.595   2.566  -5.537  0.00  0.00    -0.083 Cl
ENDBRANCH  26  28
ENDBRANCH  24  26
ENDBRANCH   1  22
TORSDOF 6
