REMARK  Name = ZINC57688922
REMARK  9 active torsions:
REMARK  status: ('A' for Active; 'I' for Inactive)
REMARK    1  A    between atoms: C_1  and  C_2
REMARK    2  A    between atoms: C_4  and  C_23
REMARK    3  A    between atoms: C_5  and  O_9
REMARK    4  A    between atoms: C_6  and  C_8
REMARK    5  A    between atoms: O_9  and  C_10
REMARK    6  A    between atoms: C_10  and  C_11
REMARK    7  A    between atoms: C_11  and  C_12
REMARK    8  A    between atoms: C_12  and  C_14
REMARK    9  A    between atoms: C_12  and  C_16
REMARK                            x       y       z     vdW  Elec       q    Type
REMARK                         _______ _______ _______ _____ _____    ______ ____
ROOT
ATOM      1  C   UNL     1       1.338  -4.761  -0.031  0.00  0.00    +0.230 C 
ENDROOT
BRANCH   1   2
ATOM      2  O   UNL     1       0.057  -4.129  -0.021  0.00  0.00    -0.491 OA
BRANCH   2   7
ATOM      3  C   UNL     1      -0.018   1.503   0.010  0.00  0.00    +0.044 C 
ATOM      4  C   UNL     1       0.002  -0.004   0.002  0.00  0.00    -0.050 A 
ATOM      5  C   UNL     1       0.006  -0.688  -1.200  0.00  0.00    +0.010 A 
ATOM      6  C   UNL     1       0.024  -2.069  -1.210  0.00  0.00    -0.008 A 
ATOM      7  C   UNL     1       0.039  -2.770  -0.013  0.00  0.00    +0.126 A 
ATOM      8  C   UNL     1       0.036  -2.082   1.191  0.00  0.00    -0.008 A 
ATOM      9  C   UNL     1       0.023  -0.701   1.196  0.00  0.00    +0.010 A 
ATOM     10  C   UNL     1       0.052  -2.841   2.493  0.00  0.00    +0.047 C 
ATOM     11  C   UNL     1       0.027  -2.813  -2.520  0.00  0.00    +0.047 C 
ENDBRANCH   2   7
ENDBRANCH   1   2
BRANCH   1  12
ATOM     12  C   UNL     1       1.157  -6.280  -0.038  0.00  0.00    +0.064 C 
BRANCH  12  13
ATOM     13  C   UNL     1       2.529  -6.957  -0.049  0.00  0.00    +0.125 C 
BRANCH  13  14
ATOM     14  C   UNL     1       2.354  -8.450   0.068  0.00  0.00    -0.028 A 
ATOM     15  C   UNL     1       1.639  -9.139  -0.894  0.00  0.00    +0.005 A 
ATOM     16  C   UNL     1       1.478 -10.508  -0.789  0.00  0.00    +0.003 A 
ATOM     17  C   UNL     1       2.031 -11.189   0.279  0.00  0.00    +0.038 A 
ATOM     18  C   UNL     1       2.747 -10.500   1.243  0.00  0.00    +0.124 A 
ATOM     19  C   UNL     1       2.913  -9.130   1.133  0.00  0.00    +0.043 A 
ATOM     20  F   UNL     1       3.287 -11.165   2.288  0.00  0.00    -0.205 F 
ENDBRANCH  13  14
BRANCH  13  21
ATOM     21  C   UNL     1       3.222  -6.642  -1.308  0.00  0.00    +0.071 C 
ATOM     22  N   UNL     1       3.757  -6.398  -2.281  0.00  0.00    -0.196 NA
ENDBRANCH  13  21
ENDBRANCH  12  13
ENDBRANCH   1  12
TORSDOF 6
