REMARK  Name = ZINC36626995
REMARK  4 active torsions:
REMARK  status: ('A' for Active; 'I' for Inactive)
REMARK    1  A    between atoms: C_1  and  C_2
REMARK    2  A    between atoms: C_12  and  C_14
REMARK    3  A    between atoms: C_14  and  N_15
REMARK    4  A    between atoms: C_23  and  C_25
REMARK                            x       y       z     vdW  Elec       q    Type
REMARK                         _______ _______ _______ _____ _____    ______ ____
ROOT
ATOM      1  C   UNL     1       0.083  -1.135   7.296  0.00  0.00    +0.214 C 
ENDROOT
BRANCH   1  13
ATOM      2  C   UNL     1      -0.018   1.503   0.010  0.00  0.00    +0.046 C 
ATOM      3  C   UNL     1       0.002  -0.004   0.002  0.00  0.00    -0.024 A 
ATOM      4  C   UNL     1       0.005  -0.675  -1.193  0.00  0.00    +0.005 A 
ATOM      5  C   UNL     1       0.024  -2.061  -1.246  0.00  0.00    +0.001 A 
ATOM      6  C   UNL     1       0.040  -2.784  -0.067  0.00  0.00    +0.017 A 
ATOM      7  C   UNL     1       0.036  -2.121   1.134  0.00  0.00    +0.041 A 
ATOM      8  C   UNL     1       0.023  -0.710   1.227  0.00  0.00    +0.083 A 
ATOM      9  N   UNL     1       0.027  -0.206   2.480  0.00  0.00    -0.224 NA
ATOM     10  C   UNL     1       0.047  -0.969   3.547  0.00  0.00    +0.165 A 
ATOM     11  S   UNL     1       0.051  -2.611   2.842  0.00  0.00    -0.052 S 
ATOM     12  N   UNL     1       0.054  -0.597   4.882  0.00  0.00    -0.263 N 
ATOM     13  C   UNL     1       0.075  -1.540   5.845  0.00  0.00    +0.237 C 
ATOM     14  O   UNL     1       0.088  -2.714   5.543  0.00  0.00    -0.274 OA
ATOM     15  H   UNL     1       0.044   0.343   5.123  0.00  0.00    +0.157 HD
ENDBRANCH   1  13
BRANCH   1  16
ATOM     16  N   UNL     1       0.106  -2.334   8.137  0.00  0.00    -0.215 N 
ATOM     17  C   UNL     1      -0.997  -2.972   8.579  0.00  0.00    +0.247 C 
ATOM     18  O   UNL     1      -2.153  -2.675   8.363  0.00  0.00    -0.273 OA
ATOM     19  C   UNL     1      -0.490  -4.136   9.398  0.00  0.00    +0.115 C 
ATOM     20  C   UNL     1      -0.962  -4.015  10.843  0.00  0.00    +0.035 C 
ATOM     21  C   UNL     1      -2.490  -4.103  10.890  0.00  0.00    +0.003 C 
ATOM     22  C   UNL     1      -2.941  -5.440  10.298  0.00  0.00    +0.000 C 
ATOM     23  C   UNL     1      -2.478  -5.539   8.844  0.00  0.00    +0.006 C 
ATOM     24  C   UNL     1      -0.951  -5.456   8.789  0.00  0.00    +0.018 C 
ATOM     25  C   UNL     1      -0.488  -5.534   7.332  0.00  0.00    +0.010 C 
ATOM     26  N   UNL     1       0.972  -4.016   9.322  0.00  0.00    -0.285 N 
ATOM     27  C   UNL     1       1.226  -2.936   8.559  0.00  0.00    +0.310 C 
ATOM     28  O   UNL     1       2.345  -2.548   8.287  0.00  0.00    -0.252 OA
ATOM     29  H   UNL     1       1.625  -4.601   9.736  0.00  0.00    +0.151 HD
ENDBRANCH   1  16
TORSDOF 2
