REMARK  Name = ZINC13017904
REMARK  4 active torsions:
REMARK  status: ('A' for Active; 'I' for Inactive)
REMARK    1  A    between atoms: C_3  and  N_16
REMARK    2  A    between atoms: C_5  and  S_7
REMARK    3  A    between atoms: S_7  and  N_10
REMARK    4  A    between atoms: C_17  and  C_19
REMARK                            x       y       z     vdW  Elec       q    Type
REMARK                         _______ _______ _______ _____ _____    ______ ____
ROOT
ATOM      1  C   UNL     1       0.112   1.159  -0.753  0.00  0.00    +0.004 A 
ATOM      2  C   UNL     1       1.298   1.867  -0.757  0.00  0.00    +0.023 A 
ATOM      3  C   UNL     1       2.381   1.408  -0.019  0.00  0.00    +0.036 A 
ATOM      4  C   UNL     1       2.268   0.238   0.721  0.00  0.00    +0.052 A 
ATOM      5  C   UNL     1       1.080  -0.465   0.721  0.00  0.00    +0.114 A 
ATOM      6  C   UNL     1       0.003  -0.006  -0.015  0.00  0.00    +0.029 A 
ENDROOT
BRANCH   3   7
ATOM      7  N   UNL     1       3.583   2.123  -0.021  0.00  0.00    -0.281 N 
ATOM      8  C   UNL     1       3.568   3.467  -0.116  0.00  0.00    +0.255 C 
ATOM      9  O   UNL     1       2.509   4.066  -0.103  0.00  0.00    -0.269 OA
ATOM     10  H   UNL     1       4.428   1.651   0.045  0.00  0.00    +0.155 HD
BRANCH   8  11
ATOM     11  C   UNL     1       4.827   4.208  -0.235  0.00  0.00    +0.075 A 
ATOM     12  C   UNL     1       5.033   5.566  -0.337  0.00  0.00    +0.024 A 
ATOM     13  C   UNL     1       6.356   6.000  -0.466  0.00  0.00    -0.036 A 
ATOM     14  C   UNL     1       7.307   5.049  -0.521  0.00  0.00    -0.006 A 
ATOM     15  S   UNL     1       6.496   3.591  -0.278  0.00  0.00    -0.088 S 
ATOM     16  C   UNL     1       8.787   5.103  -0.810  0.00  0.00    +0.043 C 
ATOM     17  C   UNL     1       9.268   6.522  -1.111  0.00  0.00    +0.005 C 
ATOM     18  C   UNL     1       9.459   7.315   0.171  0.00  0.00    +0.000 C 
ATOM     19  C   UNL     1       8.400   7.014   1.213  0.00  0.00    +0.000 C 
ATOM     20  C   UNL     1       7.193   7.899   0.887  0.00  0.00    +0.005 C 
ATOM     21  C   UNL     1       6.637   7.496  -0.478  0.00  0.00    +0.036 C 
ENDBRANCH   8  11
ENDBRANCH   3   7
BRANCH   5  22
ATOM     22  S   UNL     1       0.936  -1.950   1.658  0.00  0.00    +0.100 S 
ATOM     23  O   UNL     1      -0.103  -2.711   1.057  0.00  0.00    -0.146 OA
ATOM     24  O   UNL     1       2.254  -2.456   1.822  0.00  0.00    -0.146 OA
BRANCH  22  25
ATOM     25  N   UNL     1       0.401  -1.526   3.167  0.00  0.00    -0.118 NA
ATOM     26  C   UNL     1       0.208  -2.438   4.064  0.00  0.00    +0.117 C 
ATOM     27  N   UNL     1       0.417  -3.779   3.886  0.00  0.00    -0.331 N 
ATOM     28  C   UNL     1       0.571  -4.425   5.199  0.00  0.00    +0.103 C 
ATOM     29  C   UNL     1      -0.296  -3.572   6.152  0.00  0.00    +0.026 C 
ATOM     30  C   UNL     1      -0.277  -2.185   5.475  0.00  0.00    +0.074 C 
ATOM     31  H   UNL     1       0.458  -4.232   3.029  0.00  0.00    +0.147 HD
ENDBRANCH  22  25
ENDBRANCH   5  22
TORSDOF 4
