REMARK  Name = ZINC15998882
REMARK  5 active torsions:
REMARK  status: ('A' for Active; 'I' for Inactive)
REMARK    1  A    between atoms: C_1  and  C_2
REMARK    2  A    between atoms: C_4  and  N_36
REMARK    3  A    between atoms: C_5  and  O_34
REMARK    4  A    between atoms: C_7  and  N_8
REMARK    5  A    between atoms: O_34  and  C_35
REMARK                            x       y       z     vdW  Elec       q    Type
REMARK                         _______ _______ _______ _____ _____    ______ ____
ROOT
ATOM      1  N   UNL     1       0.212   6.243   2.240  0.00  0.00    -0.210 N 
ATOM      2  C   UNL     1       1.033   7.145   1.690  0.00  0.00    +0.228 C 
ATOM      3  O   UNL     1       0.992   8.340   1.885  0.00  0.00    -0.275 OA
ATOM      4  C   UNL     1       2.035   6.435   0.782  0.00  0.00    +0.074 C 
ATOM      5  C   UNL     1       1.754   6.807  -0.685  0.00  0.00    -0.054 C 
ATOM      6  C   UNL     1       2.946   7.605  -1.246  0.00  0.00    -0.016 C 
ATOM      7  C   UNL     1       3.890   6.556  -1.865  0.00  0.00    -0.020 C 
ATOM      8  C   UNL     1       3.208   5.197  -1.606  0.00  0.00    -0.076 C 
ATOM      9  N   UNL     1       1.745   5.508  -1.424  0.00  0.00    +0.395 N 
ATOM     10  C   UNL     1       1.123   4.557  -0.487  0.00  0.00    +0.053 C 
ATOM     11  C   UNL     1       1.616   4.945   0.911  0.00  0.00    +0.089 C 
ATOM     12  C   UNL     1       0.449   4.978   1.873  0.00  0.00    +0.229 C 
ATOM     13  O   UNL     1      -0.174   4.010   2.252  0.00  0.00    -0.275 OA
ATOM     14  C   UNL     1       1.488   3.138  -0.823  0.00  0.00    -0.026 A 
ATOM     15  C   UNL     1       2.686   2.466  -0.917  0.00  0.00    +0.024 A 
ATOM     16  C   UNL     1       2.702   1.123  -1.255  0.00  0.00    +0.041 A 
ATOM     17  C   UNL     1       1.512   0.461  -1.498  0.00  0.00    +0.022 A 
ATOM     18  C   UNL     1       0.310   1.131  -1.405  0.00  0.00    +0.025 A 
ATOM     19  C   UNL     1       0.285   2.482  -1.066  0.00  0.00    +0.036 A 
ATOM     20  N   UNL     1      -0.786   3.367  -0.917  0.00  0.00    -0.286 N 
ATOM     21  C   UNL     1      -0.379   4.604  -0.573  0.00  0.00    +0.212 C 
ATOM     22  O   UNL     1      -1.085   5.570  -0.375  0.00  0.00    -0.277 OA
ATOM     23 CL   UNL     1       4.211   0.274  -1.374  0.00  0.00    -0.084 Cl
ATOM     24  H   UNL     1      -1.816   3.016  -1.080  0.00  0.00    +0.155 HD
ATOM     25  H   UNL     1       1.201   5.485  -2.380  0.00  0.00    -0.079 HD
ENDROOT
BRANCH   1  32
ATOM     26  C   UNL     1       0.822   6.356   5.016  0.00  0.00    +0.046 C 
ATOM     27  C   UNL     1      -0.558   6.661   4.493  0.00  0.00    -0.026 A 
ATOM     28  C   UNL     1      -1.567   7.012   5.369  0.00  0.00    +0.041 A 
ATOM     29  C   UNL     1      -2.834   7.287   4.893  0.00  0.00    +0.168 A 
ATOM     30  C   UNL     1      -3.096   7.217   3.532  0.00  0.00    +0.152 A 
ATOM     31  C   UNL     1      -2.085   6.870   2.649  0.00  0.00    +0.072 A 
ATOM     32  C   UNL     1      -0.813   6.594   3.130  0.00  0.00    +0.050 A 
BRANCH  29  33
ATOM     33  N   UNL     1      -3.914   7.658   5.836  0.00  0.00    +0.060 N 
ATOM     34  O   UNL     1      -3.684   7.720   7.030  0.00  0.00    -0.126 OA
ATOM     35  O   UNL     1      -5.031   7.901   5.417  0.00  0.00    -0.126 OA
ENDBRANCH  29  33
BRANCH  30  36
ATOM     36  O   UNL     1      -4.343   7.488   3.065  0.00  0.00    -0.493 OA
ATOM     37  C   UNL     1      -4.541   7.396   1.652  0.00  0.00    +0.277 C 
ENDBRANCH  30  36
ENDBRANCH   1  32
TORSDOF 3
