REMARK  Name = ZINC06586133
REMARK  6 active torsions:
REMARK  status: ('A' for Active; 'I' for Inactive)
REMARK    1  A    between atoms: C_1  and  C_2
REMARK    2  A    between atoms: C_7  and  C_9
REMARK    3  A    between atoms: C_7  and  C_10
REMARK    4  A    between atoms: N_13  and  C_17
REMARK    5  A    between atoms: C_17  and  C_18
REMARK    6  A    between atoms: N_20  and  C_21
REMARK                            x       y       z     vdW  Elec       q    Type
REMARK                         _______ _______ _______ _____ _____    ______ ____
ROOT
ATOM      1  C   UNL     1      -0.033   1.512   0.036  0.00  0.00    +0.007 C 
ATOM      2  C   UNL     1      -0.005  -0.019   0.019  0.00  0.00    -0.011 C 
ATOM      3  C   UNL     1       0.719  -0.497  -1.242  0.00  0.00    +0.038 C 
ATOM      4  C   UNL     1       0.709  -2.018  -1.295  0.00  0.00    +0.113 C 
ATOM      5  C   UNL     1       1.266  -2.655  -0.038  0.00  0.00    +0.041 C 
ATOM      6  C   UNL     1       0.791  -2.050   1.271  0.00  0.00    -0.032 C 
ATOM      7  C   UNL     1       0.760  -0.526   1.239  0.00  0.00    +0.009 C 
ATOM      8  C   UNL     1       1.776  -2.476   2.381  0.00  0.00    +0.011 C 
ATOM      9  C   UNL     1      -0.589  -2.594   1.651  0.00  0.00    +0.011 C 
ATOM     10  C   UNL     1      -0.666  -2.537  -1.635  0.00  0.00    +0.247 C 
ATOM     11  O   UNL     1      -1.717  -2.297  -1.080  0.00  0.00    -0.273 OA
ATOM     12  N   UNL     1      -0.504  -3.322  -2.722  0.00  0.00    -0.215 N 
ATOM     13  C   UNL     1       0.749  -3.263  -3.186  0.00  0.00    +0.310 C 
ATOM     14  O   UNL     1       1.137  -3.872  -4.165  0.00  0.00    -0.252 OA
ATOM     15  N   UNL     1       1.530  -2.457  -2.447  0.00  0.00    -0.285 N 
ATOM     16  H   UNL     1       2.448  -2.204  -2.620  0.00  0.00    +0.151 HD
ENDROOT
BRANCH  12  17
ATOM     17  C   UNL     1      -1.567  -4.136  -3.315  0.00  0.00    +0.214 C 
BRANCH  17  18
ATOM     18  C   UNL     1      -2.296  -3.328  -4.358  0.00  0.00    +0.235 C 
ATOM     19  O   UNL     1      -1.959  -2.185  -4.584  0.00  0.00    -0.274 OA
ATOM     20  N   UNL     1      -3.321  -3.876  -5.040  0.00  0.00    -0.284 N 
ATOM     21  H   UNL     1      -3.547  -4.810  -4.908  0.00  0.00    +0.155 HD
BRANCH  20  22
ATOM     22  C   UNL     1      -4.059  -3.097  -5.938  0.00  0.00    +0.036 A 
ATOM     23  C   UNL     1      -5.424  -3.307  -6.082  0.00  0.00    +0.043 A 
ATOM     24  C   UNL     1      -6.151  -2.536  -6.970  0.00  0.00    +0.044 A 
ATOM     25  C   UNL     1      -5.519  -1.556  -7.715  0.00  0.00    +0.040 A 
ATOM     26  C   UNL     1      -4.159  -1.345  -7.574  0.00  0.00    +0.044 A 
ATOM     27  C   UNL     1      -3.429  -2.109  -6.683  0.00  0.00    +0.043 A 
ATOM     28 CL   UNL     1      -3.370  -0.115  -8.511  0.00  0.00    -0.083 Cl
ATOM     29 CL   UNL     1      -7.858  -2.798  -7.151  0.00  0.00    -0.083 Cl
ENDBRANCH  20  22
ENDBRANCH  17  18
ENDBRANCH  12  17
TORSDOF 3
