REMARK  Name = ZINC63426969
REMARK  10 active torsions:
REMARK  status: ('A' for Active; 'I' for Inactive)
REMARK    1  A    between atoms: C_1  and  C_2
REMARK    2  A    between atoms: C_6  and  C_33
REMARK    3  A    between atoms: C_7  and  N_8
REMARK    4  A    between atoms: C_9  and  C_11
REMARK    5  A    between atoms: C_11  and  S_12
REMARK    6  A    between atoms: S_12  and  C_13
REMARK    7  A    between atoms: C_17  and  C_23
REMARK    8  A    between atoms: N_19  and  C_20
REMARK    9  A    between atoms: C_20  and  C_21
REMARK   10  A    between atoms: C_23  and  C_24
REMARK                            x       y       z     vdW  Elec       q    Type
REMARK                         _______ _______ _______ _____ _____    ______ ____
ROOT
ATOM      1  C   UNL     1      -0.768   0.318   7.798  0.00  0.00    +0.200 C 
ATOM      2  N   UNL     1       0.490   1.110   7.792  0.00  0.00    -0.229 NA
ATOM      3  N   UNL     1       0.106   2.349   8.487  0.00  0.00    -0.237 NA
ATOM      4  C   UNL     1      -1.274   2.620   8.024  0.00  0.00    +0.145 C 
ATOM      5  N   UNL     1      -1.835   1.323   7.587  0.00  0.00    -0.257 NA
ATOM      6  H   UNL     1       0.791   1.304   6.848  0.00  0.00    +0.143 HD
ATOM      7  H   UNL     1       0.134   2.225   9.488  0.00  0.00    +0.142 HD
ENDROOT
BRANCH   1   8
ATOM      8  S   UNL     1      -0.761  -0.894   6.449  0.00  0.00    -0.116 S 
BRANCH   8   9
ATOM      9  C   UNL     1      -0.515   0.110   4.958  0.00  0.00    +0.168 C 
BRANCH   9  11
ATOM     10  N   UNL     1      -0.317  -0.257   2.520  0.00  0.00    -0.284 N 
ATOM     11  C   UNL     1      -0.489  -0.787   3.747  0.00  0.00    +0.227 C 
ATOM     12  O   UNL     1      -0.624  -1.985   3.877  0.00  0.00    -0.275 OA
ATOM     13  H   UNL     1      -0.160   0.695   2.420  0.00  0.00    +0.155 HD
BRANCH  10  20
ATOM     14  C   UNL     1       1.700   0.063   0.538  0.00  0.00    +0.045 C 
ATOM     15  C   UNL     1       0.600  -0.958   0.398  0.00  0.00    -0.029 A 
ATOM     16  C   UNL     1       0.553  -1.776  -0.714  0.00  0.00    +0.005 A 
ATOM     17  C   UNL     1      -0.456  -2.712  -0.843  0.00  0.00    +0.001 A 
ATOM     18  C   UNL     1      -1.421  -2.833   0.140  0.00  0.00    +0.005 A 
ATOM     19  C   UNL     1      -1.380  -2.018   1.254  0.00  0.00    -0.029 A 
ATOM     20  C   UNL     1      -0.365  -1.080   1.389  0.00  0.00    +0.039 A 
ATOM     21  C   UNL     1      -2.432  -2.150   2.325  0.00  0.00    +0.045 C 
ENDBRANCH  10  20
ENDBRANCH   9  11
ENDBRANCH   8   9
ENDBRANCH   1   8
BRANCH   5  22
ATOM     22  C   UNL     1      -3.039   0.981   8.356  0.00  0.00    +0.115 C 
BRANCH  22  23
ATOM     23  C   UNL     1      -3.647  -0.282   7.802  0.00  0.00    -0.019 C 
ATOM     24  C   UNL     1      -3.868  -1.304   8.591  0.00  0.00    +0.005 C 
ENDBRANCH  22  23
ENDBRANCH   5  22
BRANCH   4  25
ATOM     25  C   UNL     1      -2.109   3.192   9.172  0.00  0.00    +0.069 C 
BRANCH  25  26
ATOM     26  C   UNL     1      -1.536   4.519   9.598  0.00  0.00    -0.039 C 
ATOM     27  C   UNL     1      -1.932   5.745   9.186  0.00  0.00    -0.001 A 
ATOM     28  C   UNL     1      -2.973   6.193   8.254  0.00  0.00    +0.010 A 
ATOM     29  C   UNL     1      -3.135   7.518   8.039  0.00  0.00    +0.001 A 
ATOM     30  C   UNL     1      -2.336   8.473   8.683  0.00  0.00    +0.002 A 
ATOM     31  C   UNL     1      -1.359   8.138   9.553  0.00  0.00    +0.026 A 
ATOM     32  C   UNL     1      -1.101   6.772   9.854  0.00  0.00    +0.043 A 
ATOM     33  N   UNL     1      -0.227   6.204  10.648  0.00  0.00    -0.380 N 
ATOM     34  C   UNL     1      -0.407   4.749  10.577  0.00  0.00    +0.144 C 
ATOM     35  H   UNL     1       0.428   6.667  11.193  0.00  0.00    +0.160 HD
ENDBRANCH  25  26
ENDBRANCH   4  25
TORSDOF 8
