REMARK  Name = ZINC59124167
REMARK  6 active torsions:
REMARK  status: ('A' for Active; 'I' for Inactive)
REMARK    1  A    between atoms: C_1  and  C_2
REMARK    2  A    between atoms: C_5  and  C_8
REMARK    3  A    between atoms: N_18  and  C_25
REMARK    4  A    between atoms: C_20  and  C_22
REMARK    5  A    between atoms: C_22  and  C_24
REMARK    6  A    between atoms: C_30  and  N_31
REMARK                            x       y       z     vdW  Elec       q    Type
REMARK                         _______ _______ _______ _____ _____    ______ ____
ROOT
ATOM      1  C   UNL     1       0.059  -4.275  -0.021  0.00  0.00    +0.110 C 
ATOM      2  C   UNL     1      -1.128  -4.843   0.762  0.00  0.00    -0.023 A 
ATOM      3  C   UNL     1      -2.444  -4.396   0.619  0.00  0.00    +0.005 A 
ATOM      4  C   UNL     1      -3.473  -4.946   1.346  0.00  0.00    +0.000 A 
ATOM      5  C   UNL     1      -3.204  -5.966   2.239  0.00  0.00    +0.000 A 
ATOM      6  C   UNL     1      -1.912  -6.412   2.389  0.00  0.00    +0.008 A 
ATOM      7  C   UNL     1      -0.856  -5.859   1.657  0.00  0.00    +0.003 A 
ATOM      8  C   UNL     1       0.588  -6.273   1.762  0.00  0.00    +0.181 C 
ATOM      9  S   UNL     1       1.493  -4.921   0.940  0.00  0.00    -0.105 S 
ATOM     10  N   UNL     1       1.059  -6.537   3.112  0.00  0.00    -0.190 N 
ATOM     11  N   UNL     1       1.557  -7.815   3.309  0.00  0.00    -0.167 NA
ATOM     12  C   UNL     1       1.600  -8.715   2.355  0.00  0.00    +0.160 C 
ATOM     13  S   UNL     1       0.908  -7.869   0.938  0.00  0.00    -0.058 S 
ENDROOT
BRANCH   1  18
ATOM     14  C   UNL     1      -0.018   1.503   0.010  0.00  0.00    +0.044 C 
ATOM     15  C   UNL     1       0.002  -0.004   0.002  0.00  0.00    -0.050 A 
ATOM     16  C   UNL     1       0.006  -0.689  -1.199  0.00  0.00    +0.003 A 
ATOM     17  C   UNL     1       0.025  -2.071  -1.206  0.00  0.00    +0.005 A 
ATOM     18  C   UNL     1       0.040  -2.768  -0.013  0.00  0.00    -0.030 A 
ATOM     19  C   UNL     1       0.037  -2.084   1.188  0.00  0.00    +0.005 A 
ATOM     20  C   UNL     1       0.023  -0.702   1.195  0.00  0.00    +0.003 A 
ENDBRANCH   1  18
BRANCH  10  21
ATOM     21  C   UNL     1       1.014  -5.581   4.126  0.00  0.00    +0.085 A 
ATOM     22  C   UNL     1      -0.190  -4.966   4.451  0.00  0.00    +0.027 A 
ATOM     23  C   UNL     1      -0.230  -4.020   5.456  0.00  0.00    +0.002 A 
ATOM     24  C   UNL     1       0.924  -3.685   6.139  0.00  0.00    +0.002 A 
ATOM     25  C   UNL     1       2.124  -4.294   5.819  0.00  0.00    +0.035 A 
ATOM     26  C   UNL     1       2.171  -5.245   4.819  0.00  0.00    +0.149 A 
BRANCH  26  27
ATOM     27  N   UNL     1       3.454  -5.902   4.481  0.00  0.00    +0.058 N 
ATOM     28  O   UNL     1       4.460  -5.609   5.083  0.00  0.00    -0.126 OA
ATOM     29  O   UNL     1       3.496  -6.731   3.602  0.00  0.00    -0.126 OA
ENDBRANCH  26  27
ENDBRANCH  10  21
BRANCH  12  30
ATOM     30  C   UNL     1       2.081 -10.045   2.429  0.00  0.00    +0.186 C 
ATOM     31  O   UNL     1       2.051 -10.757   1.446  0.00  0.00    -0.290 OA
ATOM     32  C   UNL     1       2.630 -10.576   3.728  0.00  0.00    +0.094 C 
ENDBRANCH  12  30
TORSDOF 4
