REMARK  Name = ZINC63791076
REMARK  7 active torsions:
REMARK  status: ('A' for Active; 'I' for Inactive)
REMARK    1  A    between atoms: C_1  and  C_2
REMARK    2  A    between atoms: C_4  and  C_9
REMARK    3  A    between atoms: C_5  and  C_8
REMARK    4  A    between atoms: N_11  and  C_12
REMARK    5  A    between atoms: C_12  and  C_13
REMARK    6  A    between atoms: C_13  and  C_15
REMARK    7  A    between atoms: C_13  and  C_22
REMARK                            x       y       z     vdW  Elec       q    Type
REMARK                         _______ _______ _______ _____ _____    ______ ____
ROOT
ATOM      1  C   UNL     1      -2.689   1.528  -4.117  0.00  0.00    +0.066 C 
ENDROOT
BRANCH   1   2
ATOM      2  C   UNL     1      -3.731   1.655  -5.199  0.00  0.00    -0.033 C 
ATOM      3  C   UNL     1      -3.610   1.279  -6.493  0.00  0.00    -0.000 A 
ATOM      4  C   UNL     1      -2.515   0.662  -7.251  0.00  0.00    +0.010 A 
ATOM      5  C   UNL     1      -2.694   0.398  -8.565  0.00  0.00    +0.001 A 
ATOM      6  C   UNL     1      -3.897   0.696  -9.219  0.00  0.00    +0.002 A 
ATOM      7  C   UNL     1      -4.949   1.263  -8.590  0.00  0.00    +0.026 A 
ATOM      8  C   UNL     1      -4.870   1.584  -7.207  0.00  0.00    +0.043 A 
ATOM      9  N   UNL     1      -5.737   2.128  -6.387  0.00  0.00    -0.380 N 
ATOM     10  C   UNL     1      -5.125   2.224  -5.057  0.00  0.00    +0.145 C 
ATOM     11  H   UNL     1      -6.633   2.416  -6.620  0.00  0.00    +0.160 HD
ENDBRANCH   1   2
BRANCH   1  12
ATOM     12  C   UNL     1      -2.364   2.893  -3.570  0.00  0.00    -0.020 A 
ATOM     13  C   UNL     1      -3.356   3.658  -2.984  0.00  0.00    +0.006 A 
ATOM     14  C   UNL     1      -3.057   4.910  -2.482  0.00  0.00    +0.000 A 
ATOM     15  C   UNL     1      -1.767   5.400  -2.565  0.00  0.00    +0.001 A 
ATOM     16  C   UNL     1      -0.774   4.637  -3.151  0.00  0.00    +0.020 A 
ATOM     17  C   UNL     1      -1.071   3.380  -3.649  0.00  0.00    +0.045 A 
ATOM     18 CL   UNL     1       0.176   2.418  -4.379  0.00  0.00    -0.083 Cl
ENDBRANCH   1  12
BRANCH   1  19
ATOM     19  C   UNL     1      -3.229   0.642  -2.992  0.00  0.00    +0.117 C 
BRANCH  19  22
ATOM     20  C   UNL     1      -2.424  -0.335  -0.910  0.00  0.00    +0.244 C 
ATOM     21  O   UNL     1      -3.524  -0.834  -0.754  0.00  0.00    -0.270 OA
ATOM     22  N   UNL     1      -2.176   0.421  -1.998  0.00  0.00    -0.311 N 
ATOM     23  H   UNL     1      -1.300   0.818  -2.123  0.00  0.00    +0.149 HD
BRANCH  20  26
ATOM     24  C   UNL     1      -0.019   1.526   0.010  0.00  0.00    +0.046 C 
ATOM     25  C   UNL     1       0.002  -0.004   0.002  0.00  0.00    +0.182 C 
ATOM     26  C   UNL     1      -1.408  -0.549   0.050  0.00  0.00    +0.066 C 
ATOM     27  C   UNL     1      -1.513  -1.277   1.178  0.00  0.00    +0.046 C 
ATOM     28  N   UNL     1      -0.343  -1.273   1.871  0.00  0.00    -0.269 N 
ATOM     29  O   UNL     1       0.633  -0.501   1.191  0.00  0.00    -0.266 OA
ATOM     30  C   UNL     1      -2.761  -2.001   1.614  0.00  0.00    +0.066 C 
ATOM     31  H   UNL     1      -0.196  -1.733   2.712  0.00  0.00    +0.194 HD
ENDBRANCH  20  26
ENDBRANCH  19  22
ENDBRANCH   1  19
TORSDOF 5
