REMARK  Name = ZINC28288904
REMARK  10 active torsions:
REMARK  status: ('A' for Active; 'I' for Inactive)
REMARK    1  A    between atoms: C_1  and  C_2
REMARK    2  A    between atoms: C_2  and  N_3
REMARK    3  A    between atoms: N_3  and  C_4
REMARK    4  A    between atoms: N_3  and  C_6
REMARK    5  A    between atoms: C_4  and  C_5
REMARK    6  A    between atoms: C_6  and  C_8
REMARK    7  A    between atoms: C_6  and  C_25
REMARK    8  A    between atoms: C_8  and  N_9
REMARK    9  A    between atoms: C_10  and  C_12
REMARK   10  A    between atoms: C_19  and  C_23
REMARK                            x       y       z     vdW  Elec       q    Type
REMARK                         _______ _______ _______ _____ _____    ______ ____
ROOT
ATOM      1  N   UNL     1      -1.608   1.506  -1.268  0.00  0.00    -0.310 N 
ATOM      2  C   UNL     1      -1.349   1.218  -2.559  0.00  0.00    +0.279 C 
ATOM      3  O   UNL     1      -0.446   0.456  -2.842  0.00  0.00    -0.267 OA
ATOM      4  H   UNL     1      -2.426   2.196  -1.012  0.00  0.00    +0.149 HD
ENDROOT
BRANCH   2   5
ATOM      5  C   UNL     1      -2.165   1.831  -3.633  0.00  0.00    +0.193 A 
ATOM      6  C   UNL     1      -1.878   1.528  -4.922  0.00  0.00    +0.103 A 
ATOM      7  C   UNL     1      -2.691   2.131  -5.989  0.00  0.00    +0.193 A 
ATOM      8  O   UNL     1      -2.481   1.890  -7.165  0.00  0.00    -0.287 OA
ATOM      9  C   UNL     1      -3.768   3.047  -5.568  0.00  0.00    +0.065 A 
ATOM     10  C   UNL     1      -4.591   3.675  -6.502  0.00  0.00    +0.035 A 
ATOM     11  C   UNL     1      -5.587   4.524  -6.068  0.00  0.00    +0.045 A 
ATOM     12  C   UNL     1      -5.769   4.752  -4.710  0.00  0.00    -0.029 A 
ATOM     13  C   UNL     1      -4.962   4.137  -3.778  0.00  0.00    +0.051 A 
ATOM     14  C   UNL     1      -3.951   3.276  -4.194  0.00  0.00    +0.140 A 
ATOM     15  O   UNL     1      -3.155   2.669  -3.292  0.00  0.00    -0.450 OA
ATOM     16  C   UNL     1      -6.862   5.683  -4.251  0.00  0.00    +0.045 C 
ATOM     17 CL   UNL     1      -6.617   5.311  -7.223  0.00  0.00    -0.083 Cl
ENDBRANCH   2   5
BRANCH   1  18
ATOM     18  C   UNL     1      -0.802   0.900  -0.206  0.00  0.00    +0.094 C 
BRANCH  18  19
ATOM     19  C   UNL     1      -1.197   1.504   1.143  0.00  0.00    -0.019 C 
BRANCH  19  20
ATOM     20  C   UNL     1      -0.386   0.862   2.239  0.00  0.00    -0.041 A 
ATOM     21  C   UNL     1       0.656   1.556   2.825  0.00  0.00    +0.003 A 
ATOM     22  C   UNL     1       1.397   0.969   3.833  0.00  0.00    +0.000 A 
ATOM     23  C   UNL     1       1.104  -0.317   4.248  0.00  0.00    +0.001 A 
ATOM     24  C   UNL     1       0.066  -1.014   3.659  0.00  0.00    +0.020 A 
ATOM     25  C   UNL     1      -0.680  -0.424   2.654  0.00  0.00    +0.043 A 
ATOM     26 CL   UNL     1      -1.983  -1.300   1.913  0.00  0.00    -0.083 Cl
ENDBRANCH  19  20
BRANCH  19  27
ATOM     27  N   UNL     1      -0.940   2.950   1.126  0.00  0.00    +0.385 N 
ATOM     28  H   UNL     1      -0.543   3.235   2.112  0.00  0.00    -0.081 HD
BRANCH  27  30
ATOM     29  C   UNL     1       1.461   2.926   0.643  0.00  0.00    -0.017 C 
ATOM     30  C   UNL     1       0.072   3.293   0.117  0.00  0.00    -0.081 C 
ENDBRANCH  27  30
BRANCH  27  31
ATOM     31  C   UNL     1      -2.181   3.704   0.904  0.00  0.00    -0.081 C 
ATOM     32  C   UNL     1      -3.021   3.690   2.183  0.00  0.00    -0.017 C 
ENDBRANCH  27  31
ENDBRANCH  19  27
ENDBRANCH  18  19
ENDBRANCH   1  18
TORSDOF 7
