REMARK  Name = ZINC02911803
REMARK  6 active torsions:
REMARK  status: ('A' for Active; 'I' for Inactive)
REMARK    1  A    between atoms: C_1  and  C_2
REMARK    2  A    between atoms: C_5  and  N_9
REMARK    3  A    between atoms: C_6  and  C_8
REMARK    4  A    between atoms: C_10  and  C_12
REMARK    5  A    between atoms: C_13  and  C_34
REMARK    6  A    between atoms: C_17  and  C_21
REMARK                            x       y       z     vdW  Elec       q    Type
REMARK                         _______ _______ _______ _____ _____    ______ ____
ROOT
ATOM      1  C   UNL     1      -0.150  -6.271  -1.173  0.00  0.00    +0.080 A 
ATOM      2  C   UNL     1      -0.251  -7.114  -2.237  0.00  0.00    -0.019 A 
ATOM      3  C   UNL     1      -0.328  -8.497  -2.026  0.00  0.00    +0.051 A 
ATOM      4  C   UNL     1      -0.437  -9.552  -2.981  0.00  0.00    +0.133 A 
ATOM      5  N   UNL     1      -0.497 -10.803  -2.556  0.00  0.00    -0.217 NA
ATOM      6  C   UNL     1      -0.459 -11.114  -1.273  0.00  0.00    +0.129 A 
ATOM      7  N   UNL     1      -0.359 -10.186  -0.341  0.00  0.00    -0.225 NA
ATOM      8  C   UNL     1      -0.293  -8.913  -0.672  0.00  0.00    +0.114 A 
ATOM      9  S   UNL     1      -0.151  -7.386   0.220  0.00  0.00    -0.064 S 
ATOM     10  C   UNL     1      -0.532 -12.563  -0.864  0.00  0.00    +0.088 C 
ATOM     11  N   UNL     1      -0.480  -9.270  -4.331  0.00  0.00    -0.312 N 
ATOM     12  C   UNL     1       0.760  -9.075  -5.095  0.00  0.00    +0.125 C 
ATOM     13  C   UNL     1       0.763 -10.046  -6.281  0.00  0.00    +0.125 C 
ATOM     14  N   UNL     1      -0.524  -9.937  -6.982  0.00  0.00    -0.314 N 
ATOM     15  C   UNL     1      -1.765 -10.132  -6.218  0.00  0.00    +0.125 C 
ATOM     16  C   UNL     1      -1.768  -9.166  -5.033  0.00  0.00    +0.125 C 
ATOM     17  C   UNL     1      -0.568  -9.653  -8.342  0.00  0.00    +0.099 A 
ATOM     18  C   UNL     1       0.615  -9.600  -9.073  0.00  0.00    +0.042 A 
ATOM     19  C   UNL     1       0.556  -9.316 -10.426  0.00  0.00    +0.005 A 
ATOM     20  C   UNL     1      -0.687  -9.095 -11.004  0.00  0.00    +0.018 A 
ATOM     21  C   UNL     1      -1.819  -9.163 -10.218  0.00  0.00    +0.084 A 
ATOM     22  N   UNL     1      -1.734  -9.441  -8.931  0.00  0.00    -0.350 N 
ATOM     23  C   UNL     1      -0.280  -6.562  -3.639  0.00  0.00    +0.046 C 
ATOM     24  H   UNL     1      -2.546  -9.487  -8.402  0.00  0.00    +0.166 HD
ENDROOT
BRANCH   1  26
ATOM     25  N   UNL     1       0.042  -4.137  -0.007  0.00  0.00    -0.281 N 
ATOM     26  C   UNL     1      -0.058  -4.806  -1.173  0.00  0.00    +0.255 C 
ATOM     27  O   UNL     1      -0.072  -4.195  -2.225  0.00  0.00    -0.269 OA
ATOM     28  H   UNL     1       0.114  -4.626   0.828  0.00  0.00    +0.155 HD
BRANCH  25  33
ATOM     29  C   UNL     1       0.042   1.535   0.019  0.00  0.00    +0.044 C 
ATOM     30  C   UNL     1       0.042   0.028   0.012  0.00  0.00    -0.050 A 
ATOM     31  C   UNL     1       0.634  -0.657  -1.033  0.00  0.00    +0.005 A 
ATOM     32  C   UNL     1       0.637  -2.038  -1.042  0.00  0.00    +0.024 A 
ATOM     33  C   UNL     1       0.042  -2.739  -0.000  0.00  0.00    +0.037 A 
ATOM     34  C   UNL     1      -0.552  -2.048   1.048  0.00  0.00    -0.029 A 
ATOM     35  C   UNL     1      -0.546  -0.667   1.053  0.00  0.00    +0.008 A 
ATOM     36  C   UNL     1      -1.199  -2.804   2.179  0.00  0.00    +0.045 C 
ENDBRANCH  25  33
ENDBRANCH   1  26
TORSDOF 2
