REMARK  Name = ZINC04178223
REMARK  8 active torsions:
REMARK  status: ('A' for Active; 'I' for Inactive)
REMARK    1  A    between atoms: C_1  and  C_2
REMARK    2  A    between atoms: N_8  and  C_9
REMARK    3  A    between atoms: C_9  and  C_11
REMARK    4  A    between atoms: C_9  and  C_19
REMARK    5  A    between atoms: C_14  and  O_17
REMARK    6  A    between atoms: O_17  and  C_18
REMARK    7  A    between atoms: C_25  and  C_30
REMARK    8  A    between atoms: C_28  and  O_29
REMARK                            x       y       z     vdW  Elec       q    Type
REMARK                         _______ _______ _______ _____ _____    ______ ____
ROOT
ATOM      1  C   UNL     1      -0.042  -2.088   3.577  0.00  0.00    +0.136 C 
ENDROOT
BRANCH   1   2
ATOM      2  C   UNL     1      -1.228  -1.159   3.602  0.00  0.00    +0.021 A 
ATOM      3  C   UNL     1      -1.810  -0.758   2.402  0.00  0.00    +0.010 A 
ATOM      4  C   UNL     1      -2.883   0.081   2.389  0.00  0.00    +0.010 A 
ATOM      5  C   UNL     1      -3.413   0.551   3.602  0.00  0.00    +0.004 A 
ATOM      6  C   UNL     1      -4.522   1.418   3.630  0.00  0.00    +0.012 A 
ATOM      7  C   UNL     1      -4.984   1.835   4.845  0.00  0.00    +0.023 A 
ATOM      8  C   UNL     1      -4.359   1.400   6.013  0.00  0.00    +0.039 A 
ATOM      9  N   UNL     1      -3.328   0.592   5.982  0.00  0.00    -0.248 NA
ATOM     10  C   UNL     1      -2.827   0.147   4.826  0.00  0.00    +0.113 A 
ATOM     11  C   UNL     1      -1.720  -0.727   4.800  0.00  0.00    +0.148 A 
ATOM     12  C   UNL     1      -4.884   1.871   7.345  0.00  0.00    +0.065 C 
BRANCH  11  13
ATOM     13  O   UNL     1      -1.143  -1.133   5.961  0.00  0.00    -0.504 OA
ATOM     14  H   UNL     1      -0.431  -0.555   6.270  0.00  0.00    +0.292 HD
ENDBRANCH  11  13
ENDBRANCH   1   2
BRANCH   1  22
ATOM     15  C   UNL     1      -3.147  -6.050   4.551  0.00  0.00    +0.044 C 
ATOM     16  C   UNL     1      -2.381  -5.566   3.347  0.00  0.00    -0.046 A 
ATOM     17  C   UNL     1      -2.464  -6.238   2.134  0.00  0.00    +0.021 A 
ATOM     18  C   UNL     1      -1.751  -5.768   1.050  0.00  0.00    +0.084 A 
ATOM     19  N   UNL     1      -0.994  -4.692   1.153  0.00  0.00    -0.350 N 
ATOM     20  C   UNL     1      -0.888  -4.024   2.291  0.00  0.00    +0.097 A 
ATOM     21  C   UNL     1      -1.584  -4.438   3.423  0.00  0.00    +0.045 A 
ATOM     22  N   UNL     1      -0.079  -2.895   2.355  0.00  0.00    -0.320 N 
ATOM     23  H   UNL     1       0.461  -2.642   1.590  0.00  0.00    +0.148 HD
ATOM     24  H   UNL     1      -0.503  -4.383   0.376  0.00  0.00    +0.166 HD
ENDBRANCH   1  22
BRANCH   1  25
ATOM     25  C   UNL     1       1.229  -1.280   3.608  0.00  0.00    -0.023 A 
ATOM     26  C   UNL     1       1.633  -0.586   2.482  0.00  0.00    +0.009 A 
ATOM     27  C   UNL     1       2.799   0.155   2.507  0.00  0.00    +0.046 A 
ATOM     28  C   UNL     1       3.564   0.203   3.663  0.00  0.00    +0.120 A 
ATOM     29  C   UNL     1       3.157  -0.495   4.791  0.00  0.00    +0.046 A 
ATOM     30  C   UNL     1       1.988  -1.230   4.763  0.00  0.00    +0.009 A 
BRANCH  28  31
ATOM     31  O   UNL     1       4.712   0.930   3.690  0.00  0.00    -0.495 OA
ATOM     32  C   UNL     1       5.449   0.934   4.914  0.00  0.00    +0.277 C 
ENDBRANCH  28  31
ENDBRANCH   1  25
TORSDOF 5
