REMARK  Name = ZINC38704952
REMARK  11 active torsions:
REMARK  status: ('A' for Active; 'I' for Inactive)
REMARK    1  A    between atoms: C_1  and  C_2
REMARK    2  A    between atoms: C_4  and  C_33
REMARK    3  A    between atoms: C_5  and  C_9
REMARK    4  A    between atoms: C_6  and  O_8
REMARK    5  A    between atoms: N_17  and  C_30
REMARK    6  A    between atoms: C_18  and  C_20
REMARK    7  A    between atoms: C_23  and  O_28
REMARK    8  A    between atoms: C_24  and  O_26
REMARK    9  A    between atoms: O_26  and  C_27
REMARK   10  A    between atoms: O_28  and  C_29
REMARK   11  A    between atoms: C_30  and  C_31
REMARK                            x       y       z     vdW  Elec       q    Type
REMARK                         _______ _______ _______ _____ _____    ______ ____
ROOT
ATOM      1  C   UNL     1       0.061  -4.346  -0.118  0.00  0.00    +0.102 A 
ATOM      2  C   UNL     1       0.161  -5.137   1.031  0.00  0.00    +0.035 A 
ATOM      3  C   UNL     1       0.122  -6.446   0.593  0.00  0.00    +0.126 A 
ATOM      4  N   UNL     1       0.004  -6.387  -0.767  0.00  0.00    -0.272 N 
ATOM      5  H   UNL     1      -0.047  -7.157  -1.355  0.00  0.00    +0.189 HD
ATOM      6  N   UNL     1      -0.035  -5.161  -1.151  0.00  0.00    -0.173 NA
ATOM      7  C   UNL     1       0.223  -7.332   1.758  0.00  0.00    +0.266 C 
ATOM      8  O   UNL     1       0.219  -8.547   1.709  0.00  0.00    -0.268 OA
ATOM      9  N   UNL     1       0.321  -6.609   2.888  0.00  0.00    -0.281 N 
ATOM     10  C   UNL     1       0.291  -5.186   2.529  0.00  0.00    +0.142 C 
ENDROOT
BRANCH   1  15
ATOM     11  C   UNL     1       0.047   1.414  -0.312  0.00  0.00    +0.044 C 
ATOM     12  C   UNL     1       0.049  -0.092  -0.260  0.00  0.00    -0.047 A 
ATOM     13  C   UNL     1       0.901  -0.809  -1.081  0.00  0.00    +0.007 A 
ATOM     14  C   UNL     1       0.909  -2.189  -1.039  0.00  0.00    -0.037 A 
ATOM     15  C   UNL     1       0.057  -2.863  -0.167  0.00  0.00    +0.047 A 
ATOM     16  C   UNL     1      -0.803  -2.136   0.661  0.00  0.00    +0.127 A 
ATOM     17  C   UNL     1      -0.797  -0.751   0.613  0.00  0.00    +0.049 A 
ATOM     18  C   UNL     1       1.838  -2.966  -1.935  0.00  0.00    +0.044 C 
BRANCH  16  19
ATOM     19  O   UNL     1      -1.638  -2.784   1.514  0.00  0.00    -0.506 OA
ATOM     20  H   UNL     1      -1.289  -2.877   2.412  0.00  0.00    +0.292 HD
ENDBRANCH  16  19
ENDBRANCH   1  15
BRANCH  10  21
ATOM     21  C   UNL     1       1.569  -4.514   2.961  0.00  0.00    -0.019 A 
ATOM     22  C   UNL     1       2.785  -5.129   2.727  0.00  0.00    +0.009 A 
ATOM     23  C   UNL     1       3.960  -4.516   3.121  0.00  0.00    +0.050 A 
ATOM     24  C   UNL     1       3.921  -3.283   3.752  0.00  0.00    +0.162 A 
ATOM     25  C   UNL     1       2.697  -2.664   3.987  0.00  0.00    +0.162 A 
ATOM     26  C   UNL     1       1.523  -3.281   3.585  0.00  0.00    +0.055 A 
BRANCH  25  27
ATOM     27  O   UNL     1       2.653  -1.454   4.606  0.00  0.00    -0.491 OA
ATOM     28  C   UNL     1       1.362  -0.878   4.814  0.00  0.00    +0.277 C 
ENDBRANCH  25  27
BRANCH  24  29
ATOM     29  O   UNL     1       5.076  -2.680   4.141  0.00  0.00    -0.491 OA
ATOM     30  C   UNL     1       6.294  -3.374   3.867  0.00  0.00    +0.277 C 
ENDBRANCH  24  29
ENDBRANCH  10  21
BRANCH   9  31
ATOM     31  C   UNL     1       0.437  -7.150   4.245  0.00  0.00    +0.135 C 
BRANCH  31  32
ATOM     32  C   UNL     1       1.893  -7.336   4.588  0.00  0.00    -0.016 C 
ATOM     33  C   UNL     1       2.388  -6.780   5.666  0.00  0.00    +0.005 C 
ENDBRANCH  31  32
ENDBRANCH   9  31
TORSDOF 7
