REMARK  Name = ZINC23718917
REMARK  6 active torsions:
REMARK  status: ('A' for Active; 'I' for Inactive)
REMARK    1  A    between atoms: C_3  and  C_6
REMARK    2  A    between atoms: C_6  and  C_8
REMARK    3  A    between atoms: C_6  and  N_26
REMARK    4  A    between atoms: C_8  and  N_9
REMARK    5  A    between atoms: N_15  and  C_18
REMARK    6  A    between atoms: C_18  and  C_19
REMARK                            x       y       z     vdW  Elec       q    Type
REMARK                         _______ _______ _______ _____ _____    ______ ____
ROOT
ATOM      1  N   UNL     1       0.113  -0.362  -1.200  0.00  0.00    -0.300 N 
ATOM      2  C   UNL     1      -0.109  -1.690  -1.270  0.00  0.00    +0.302 C 
ATOM      3  O   UNL     1      -0.674  -2.260  -0.357  0.00  0.00    -0.253 OA
ATOM      4  N   UNL     1       0.296  -2.385  -2.351  0.00  0.00    -0.283 N 
ATOM      5  C   UNL     1       0.170  -3.850  -2.397  0.00  0.00    +0.124 C 
ATOM      6  C   UNL     1      -0.543  -4.231  -3.704  0.00  0.00    +0.104 C 
ATOM      7  N   UNL     1       0.174  -3.634  -4.839  0.00  0.00    -0.295 NA
ATOM      8  C   UNL     1       0.147  -2.167  -4.774  0.00  0.00    +0.104 C 
ATOM      9  C   UNL     1       0.882  -1.700  -3.513  0.00  0.00    +0.124 C 
ATOM     10  H   UNL     1       0.550   0.168  -2.059  0.00  0.00    +0.150 HD
ENDROOT
BRANCH   1  11
ATOM     11  C   UNL     1      -0.227   0.375   0.019  0.00  0.00    +0.098 C 
BRANCH  11  12
ATOM     12  C   UNL     1       0.122   1.853  -0.164  0.00  0.00    +0.016 C 
BRANCH  12  13
ATOM     13  N   UNL     1      -0.546   2.369  -1.367  0.00  0.00    +0.387 N 
ATOM     14  C   UNL     1      -1.999   2.062  -1.341  0.00  0.00    -0.078 C 
ATOM     15  C   UNL     1      -2.595   3.086  -2.340  0.00  0.00    -0.020 C 
ATOM     16  C   UNL     1      -1.748   4.354  -2.082  0.00  0.00    -0.020 C 
ATOM     17  C   UNL     1      -0.446   3.843  -1.437  0.00  0.00    -0.078 C 
ATOM     18  H   UNL     1      -0.042   1.889  -2.218  0.00  0.00    -0.081 HD
ENDBRANCH  12  13
BRANCH  12  21
ATOM     19  C   UNL     1      -0.410   3.696   2.983  0.00  0.00    +0.041 A 
ATOM     20  C   UNL     1       0.422   2.978   2.093  0.00  0.00    +0.043 A 
ATOM     21  C   UNL     1      -0.340   2.632   1.040  0.00  0.00    +0.093 A 
ATOM     22  O   UNL     1      -1.585   3.092   1.248  0.00  0.00    -0.469 OA
ATOM     23  C   UNL     1      -1.633   3.739   2.424  0.00  0.00    +0.195 A 
ENDBRANCH  12  21
ENDBRANCH  11  12
ENDBRANCH   1  11
BRANCH   7  24
ATOM     24  C   UNL     1      -0.368  -4.115  -6.117  0.00  0.00    +0.119 C 
BRANCH  24  25
ATOM     25  C   UNL     1      -0.102  -5.592  -6.252  0.00  0.00    -0.033 A 
ATOM     26  C   UNL     1       1.064  -6.031  -6.852  0.00  0.00    +0.006 A 
ATOM     27  C   UNL     1       1.312  -7.386  -6.971  0.00  0.00    +0.020 A 
ATOM     28  C   UNL     1       0.388  -8.302  -6.499  0.00  0.00    +0.041 A 
ATOM     29  C   UNL     1      -0.780  -7.861  -5.904  0.00  0.00    +0.020 A 
ATOM     30  C   UNL     1      -1.025  -6.506  -5.780  0.00  0.00    +0.006 A 
ATOM     31 CL   UNL     1       0.696 -10.003  -6.654  0.00  0.00    -0.084 Cl
ENDBRANCH  24  25
ENDBRANCH   7  24
TORSDOF 6
