REMARK  Name = ZINC15956216
REMARK  13 active torsions:
REMARK  status: ('A' for Active; 'I' for Inactive)
REMARK    1  A    between atoms: CD1_1  and  CG1_2
REMARK    2  A    between atoms: CG1_2  and  CB_3
REMARK    3  A    between atoms: CB_3  and  CG2_5
REMARK    4  A    between atoms: CB_3  and  CA_6
REMARK    5  A    between atoms: CA_6  and  C_8
REMARK    6  A    between atoms: CA_6  and  N_10
REMARK    7  A    between atoms: C_11  and  C_13
REMARK    8  A    between atoms: C_13  and  N_14
REMARK    9  A    between atoms: C_15  and  C_17
REMARK   10  A    between atoms: C_17  and  C_18
REMARK   11  A    between atoms: C_19  and  C_39
REMARK   12  A    between atoms: C_23  and  C_33
REMARK   13  A    between atoms: C_27  and  C_32
REMARK                            x       y       z     vdW  Elec       q    Type
REMARK                         _______ _______ _______ _____ _____    ______ ____
ROOT
ATOM      1  C   UNK A   0      -0.017   1.407   0.010  0.00  0.00    +0.049 A 
ATOM      2  C   UNK A   0       1.151   2.098   0.002  0.00  0.00    -0.029 A 
ATOM      3  C   UNK A   0       2.405   1.338  -0.014  0.00  0.00    +0.022 A 
ATOM      4  C   UNK A   0       3.637   1.994  -0.024  0.00  0.00    +0.024 A 
ATOM      5  C   UNK A   0       4.804   1.246  -0.038  0.00  0.00    +0.029 A 
ATOM      6  C   UNK A   0       6.240   1.587  -0.050  0.00  0.00    +0.028 A 
ATOM      7  C   UNK A   0       6.900   0.407  -0.063  0.00  0.00    +0.204 A 
ATOM      8  O   UNK A   0       6.023  -0.612  -0.060  0.00  0.00    -0.462 OA
ATOM      9  C   UNK A   0       4.752  -0.162  -0.046  0.00  0.00    +0.142 A 
ATOM     10  C   UNK A   0       3.523  -0.807  -0.037  0.00  0.00    +0.035 A 
ATOM     11  C   UNK A   0       2.352  -0.071  -0.021  0.00  0.00    +0.146 A 
ATOM     12  O   UNK A   0       1.152  -0.695  -0.013  0.00  0.00    -0.422 OA
ATOM     13  C   UNK A   0       0.002  -0.004   0.002  0.00  0.00    +0.341 A 
ATOM     14  O   UNK A   0      -1.054  -0.611   0.009  0.00  0.00    -0.245 OA
ATOM     15  C   UNK A   0       3.465  -2.313  -0.045  0.00  0.00    +0.051 C 
ATOM     16  C   UNK A   0       1.159   3.605   0.010  0.00  0.00    +0.045 C 
ENDROOT
BRANCH   6  17
ATOM     17  C   UNK A   0       6.836   2.944  -0.048  0.00  0.00    -0.014 A 
ATOM     18  C   UNK A   0       6.403   3.899  -0.967  0.00  0.00    +0.008 A 
ATOM     19  C   UNK A   0       6.958   5.163  -0.958  0.00  0.00    +0.001 A 
ATOM     20  C   UNK A   0       7.950   5.479  -0.047  0.00  0.00    +0.000 A 
ATOM     21  C   UNK A   0       8.387   4.533   0.863  0.00  0.00    +0.001 A 
ATOM     22  C   UNK A   0       7.836   3.268   0.867  0.00  0.00    +0.008 A 
ENDBRANCH   6  17
BRANCH   1  23
ATOM     23  C   UNK A   0      -1.331   2.145   0.020  0.00  0.00    +0.138 C 
BRANCH  23  25
ATOM     24  N   UNK A   0      -2.917   3.030   1.700  0.00  0.00    -0.306 N 
ATOM     25  C   UNK A   0      -1.762   2.383   1.444  0.00  0.00    +0.218 C 
ATOM     26  O   UNK A   0      -1.071   1.992   2.361  0.00  0.00    -0.275 OA
ATOM     27  H   UNK A   0      -3.470   3.343   0.967  0.00  0.00    +0.149 HD
BRANCH  24  28
ATOM     28  C   UNK A   0      -3.336   3.262   3.084  0.00  0.00    +0.200 C 
BRANCH  28  30
ATOM     29  N   ILE A   1      -5.232   4.323   4.266  0.00  0.00    -0.301 N 
ATOM     30  C   UNK A   0      -4.650   3.999   3.094  0.00  0.00    +0.231 C 
ATOM     31  O   UNK A   0      -5.184   4.302   2.048  0.00  0.00    -0.274 OA
ATOM     32  H   ILE A   1      -4.805   4.081   5.103  0.00  0.00    +0.150 HD
BRANCH  29  33
ATOM     33  CA  ILE A   1      -6.509   5.040   4.276  0.00  0.00    +0.189 C 
BRANCH  33  34
ATOM     34  C   ILE A   1      -6.255   6.521   4.159  0.00  0.00    +0.376 C 
ATOM     35  O   ILE A   1      -5.123   6.935   4.076  0.00  0.00    -0.244 OA
ATOM     36  OXT ILE A   1      -7.286   7.380   4.147  0.00  0.00    -0.244 OA
ENDBRANCH  33  34
BRANCH  33  37
ATOM     37  CB  ILE A   1      -7.246   4.751   5.585  0.00  0.00    +0.017 C 
ATOM     38  CG2 ILE A   1      -6.449   5.328   6.757  0.00  0.00    +0.010 C 
BRANCH  37  40
ATOM     39  CD1 ILE A   1      -9.416   5.006   6.798  0.00  0.00    +0.004 C 
ATOM     40  CG1 ILE A   1      -8.632   5.398   5.544  0.00  0.00    +0.002 C 
ENDBRANCH  37  40
ENDBRANCH  33  37
ENDBRANCH  29  33
ENDBRANCH  28  30
ENDBRANCH  24  28
ENDBRANCH  23  25
ENDBRANCH   1  23
TORSDOF 9
