REMARK  Name = ZINC38556689
REMARK  2 active torsions:
REMARK  status: ('A' for Active; 'I' for Inactive)
REMARK    1  A    between atoms: C_6  and  C_7
REMARK    2  A    between atoms: C_19  and  C_21
REMARK                            x       y       z     vdW  Elec       q    Type
REMARK                         _______ _______ _______ _____ _____    ______ ____
ROOT
ATOM      1  C   UNL     1      -1.265  -0.748   0.011  0.00  0.00    +0.079 C 
ATOM      2  N   UNL     1      -2.378  -0.101   0.003  0.00  0.00    -0.176 NA
ATOM      3  N   UNL     1      -3.566  -0.543   0.038  0.00  0.00    -0.258 N 
ATOM      4  C   UNL     1      -3.915  -1.746   0.447  0.00  0.00    +0.151 C 
ATOM      5  S   UNL     1      -2.639  -2.841   1.004  0.00  0.00    -0.085 S 
ATOM      6  C   UNL     1      -1.209  -2.259   0.028  0.00  0.00    +0.134 C 
ATOM      7  N   UNL     1      -5.230  -2.139   0.442  0.00  0.00    -0.307 N 
ATOM      8  C   UNL     1      -6.293  -1.191   0.080  0.00  0.00    +0.126 C 
ATOM      9  C   UNL     1      -7.114  -1.789  -1.069  0.00  0.00    +0.127 C 
ATOM     10  N   UNL     1      -7.485  -3.166  -0.713  0.00  0.00    -0.295 N 
ATOM     11  C   UNL     1      -6.422  -4.115  -0.351  0.00  0.00    +0.127 C 
ATOM     12  C   UNL     1      -5.600  -3.518   0.792  0.00  0.00    +0.126 C 
ATOM     13  C   UNL     1      -8.776  -3.552  -0.718  0.00  0.00    +0.248 C 
ATOM     14  O   UNL     1      -9.639  -2.782  -1.091  0.00  0.00    -0.270 OA
ATOM     15  H   UNL     1      -4.273   0.050  -0.259  0.00  0.00    +0.191 HD
ENDROOT
BRANCH  13  16
ATOM     16  C   UNL     1      -9.142  -4.911  -0.270  0.00  0.00    +0.055 A 
ATOM     17  C   UNL     1      -8.547  -6.028  -0.861  0.00  0.00    +0.017 A 
ATOM     18  C   UNL     1      -8.892  -7.293  -0.439  0.00  0.00    +0.039 A 
ATOM     19  C   UNL     1      -9.829  -7.460   0.570  0.00  0.00    +0.125 A 
ATOM     20  C   UNL     1     -10.424  -6.356   1.160  0.00  0.00    +0.059 A 
ATOM     21  C   UNL     1     -10.082  -5.083   0.750  0.00  0.00    +0.056 A 
ATOM     22 CL   UNL     1     -10.822  -3.701   1.494  0.00  0.00    -0.083 Cl
ATOM     23  F   UNL     1     -10.164  -8.703   0.979  0.00  0.00    -0.205 F 
ENDBRANCH  13  16
BRANCH   1  29
ATOM     24  C   UNL     1      -0.022   1.407  -0.018  0.00  0.00    +0.011 A 
ATOM     25  C   UNL     1       1.164   2.109  -0.029  0.00  0.00    +0.020 A 
ATOM     26  C   UNL     1       2.373   1.433  -0.026  0.00  0.00    +0.041 A 
ATOM     27  C   UNL     1       2.400   0.049  -0.011  0.00  0.00    +0.020 A 
ATOM     28  C   UNL     1       1.222  -0.667   0.001  0.00  0.00    +0.011 A 
ATOM     29  C   UNL     1      -0.003   0.008  -0.002  0.00  0.00    -0.001 A 
ATOM     30 CL   UNL     1       3.862   2.326  -0.042  0.00  0.00    -0.084 Cl
ENDBRANCH   1  29
TORSDOF 2
