REMARK  Name = ZINC09311966
REMARK  5 active torsions:
REMARK  status: ('A' for Active; 'I' for Inactive)
REMARK    1  A    between atoms: C_3  and  C_10
REMARK    2  A    between atoms: C_5  and  N_7
REMARK    3  A    between atoms: C_10  and  C_12
REMARK    4  A    between atoms: C_22  and  C_24
REMARK    5  A    between atoms: N_28  and  C_31
REMARK                            x       y       z     vdW  Elec       q    Type
REMARK                         _______ _______ _______ _____ _____    ______ ____
ROOT
ATOM      1  C   UNL     1      -1.686   2.315   1.482  0.00  0.00    +0.141 C 
ATOM      2  C   UNL     1      -1.258   2.076   0.019  0.00  0.00    +0.116 C 
ATOM      3  C   UNL     1      -0.697   3.456  -0.426  0.00  0.00    +0.113 C 
ATOM      4  C   UNL     1      -1.310   4.486   0.524  0.00  0.00    +0.093 C 
ATOM      5  C   UNL     1      -2.957   4.337   2.419  0.00  0.00    +0.054 C 
ATOM      6  C   UNL     1      -3.646   5.371   1.895  0.00  0.00    +0.032 C 
ATOM      7  C   UNL     1      -3.417   5.759   0.490  0.00  0.00    +0.051 C 
ATOM      8  C   UNL     1      -2.320   5.349  -0.181  0.00  0.00    +0.013 C 
ATOM      9  C   UNL     1       0.784   3.309  -0.140  0.00  0.00    +0.232 C 
ATOM     10  O   UNL     1       1.581   4.218  -0.055  0.00  0.00    -0.274 OA
ATOM     11  N   UNL     1       1.064   2.005   0.003  0.00  0.00    -0.208 N 
ATOM     12  C   UNL     1      -0.014   1.208   0.009  0.00  0.00    +0.232 C 
ATOM     13  O   UNL     1       0.002  -0.004   0.002  0.00  0.00    -0.274 OA
ATOM     14  N   UNL     1      -1.721   3.783   1.719  0.00  0.00    -0.384 NA
ATOM     15  H   UNL     1      -0.963   3.954   2.390  0.00  0.00    +0.127 HD
ENDROOT
BRANCH  11  16
ATOM     16  C   UNL     1       2.373   1.518   0.134  0.00  0.00    +0.062 A 
ATOM     17  C   UNL     1       3.096   1.157  -0.995  0.00  0.00    +0.027 A 
ATOM     18  C   UNL     1       4.387   0.682  -0.864  0.00  0.00    +0.022 A 
ATOM     19  C   UNL     1       4.955   0.555   0.392  0.00  0.00    +0.042 A 
ATOM     20  C   UNL     1       4.235   0.908   1.519  0.00  0.00    +0.042 A 
ATOM     21  C   UNL     1       2.945   1.389   1.393  0.00  0.00    +0.064 A 
ATOM     22 CL   UNL     1       2.040   1.831   2.807  0.00  0.00    -0.082 Cl
ATOM     23 CL   UNL     1       6.575  -0.048   0.552  0.00  0.00    -0.083 Cl
ENDBRANCH  11  16
BRANCH   1  24
ATOM     24  C   UNL     1      -2.876   1.454   1.822  0.00  0.00    +0.183 C 
ATOM     25  O   UNL     1      -3.990   1.931   1.819  0.00  0.00    -0.290 OA
BRANCH  24  28
ATOM     26  C   UNL     1      -1.229  -1.852   2.478  0.00  0.00    +0.003 A 
ATOM     27  C   UNL     1      -1.401  -0.521   2.157  0.00  0.00    +0.011 A 
ATOM     28  C   UNL     1      -2.684   0.034   2.158  0.00  0.00    +0.021 A 
ATOM     29  C   UNL     1      -3.785  -0.768   2.474  0.00  0.00    +0.044 A 
ATOM     30  C   UNL     1      -3.598  -2.098   2.787  0.00  0.00    +0.127 A 
ATOM     31  C   UNL     1      -2.324  -2.639   2.790  0.00  0.00    +0.033 A 
BRANCH  30  32
ATOM     32  N   UNL     1      -4.762  -2.948   3.122  0.00  0.00    +0.056 N 
ATOM     33  O   UNL     1      -5.883  -2.474   3.121  0.00  0.00    -0.126 OA
ATOM     34  O   UNL     1      -4.598  -4.123   3.399  0.00  0.00    -0.126 OA
ENDBRANCH  30  32
ENDBRANCH  24  28
ENDBRANCH   1  24
BRANCH   7  35
ATOM     35  C   UNL     1      -4.379   6.585  -0.175  0.00  0.00    +0.099 C 
ATOM     36  N   UNL     1      -5.141   7.241  -0.703  0.00  0.00    -0.191 NA
ENDBRANCH   7  35
TORSDOF 5
