REMARK  Name = ZINC05440557
REMARK  2 active torsions:
REMARK  status: ('A' for Active; 'I' for Inactive)
REMARK    1  A    between atoms: C_3  and  O_23
REMARK    2  A    between atoms: C_18  and  O_22
REMARK                            x       y       z     vdW  Elec       q    Type
REMARK                         _______ _______ _______ _____ _____    ______ ____
ROOT
ATOM      1  C   UNL     1      -1.675   3.826  -2.168  0.00  0.00    +0.007 A 
ATOM      2  C   UNL     1      -1.320   5.135  -2.470  0.00  0.00    +0.049 A 
ATOM      3  C   UNL     1      -0.124   5.734  -2.070  0.00  0.00    +0.159 A 
ATOM      4  C   UNL     1       0.733   4.967  -1.292  0.00  0.00    +0.166 A 
ATOM      5  C   UNL     1       0.277   3.692  -0.931  0.00  0.00    +0.011 A 
ATOM      6  C   UNL     1      -0.835   3.047  -1.398  0.00  0.00    -0.041 A 
ATOM      7  C   UNL     1      -0.944   1.590  -1.090  0.00  0.00    +0.020 C 
ATOM      8  C   UNL     1      -0.013   1.086   0.008  0.00  0.00    -0.060 C 
ATOM      9  C   UNL     1       1.421   1.618  -0.003  0.00  0.00    +0.012 C 
ATOM     10  C   UNL     1       1.340   3.128  -0.034  0.00  0.00    +0.042 C 
ATOM     11  C   UNL     1       1.004   3.572   1.377  0.00  0.00    -0.003 C 
ATOM     12  C   UNL     1      -0.413   2.994   1.605  0.00  0.00    -0.081 C 
ATOM     13  C   UNL     1       2.467   3.771  -0.836  0.00  0.00    +0.217 C 
ATOM     14  O   UNL     1       2.033   5.118  -0.839  0.00  0.00    -0.481 OA
ATOM     15  C   UNL     1       3.758   3.110  -0.467  0.00  0.00    +0.178 C 
ATOM     16  C   UNL     1       3.569   1.744  -1.162  0.00  0.00    +0.004 C 
ATOM     17  C   UNL     1       2.421   1.095  -0.973  0.00  0.00    -0.026 C 
ATOM     18  N   UNL     1      -0.553   1.538   1.362  0.00  0.00    +0.382 N 
ATOM     19  H   UNL     1      -0.043   1.036   2.099  0.00  0.00    -0.085 HD
ATOM     20  H   UNL     1      -1.550   1.296   1.411  0.00  0.00    -0.085 HD
ENDROOT
BRANCH  15  21
ATOM     21  O   UNL     1       4.875   3.817  -1.008  0.00  0.00    -0.384 OA
ATOM     22  H   UNL     1       5.718   3.350  -0.916  0.00  0.00    +0.210 HD
ENDBRANCH  15  21
BRANCH   3  23
ATOM     23  O   UNL     1       0.188   7.009  -2.427  0.00  0.00    -0.503 OA
ATOM     24  H   UNL     1       0.672   7.077  -3.261  0.00  0.00    +0.292 HD
ENDBRANCH   3  23
TORSDOF 2
