REMARK  Name = ZINC63351343
REMARK  4 active torsions:
REMARK  status: ('A' for Active; 'I' for Inactive)
REMARK    1  A    between atoms: C_1  and  C_2
REMARK    2  A    between atoms: C_2  and  C_32
REMARK    3  A    between atoms: N_20  and  N_23
REMARK    4  A    between atoms: C_24  and  C_25
REMARK                            x       y       z     vdW  Elec       q    Type
REMARK                         _______ _______ _______ _____ _____    ______ ____
ROOT
ATOM      1  C   UNL     1       0.029   1.651  -0.349  0.00  0.00    +0.034 C 
ATOM      2  C   UNL     1      -0.010   0.129  -0.196  0.00  0.00    +0.057 C 
ATOM      3  C   UNL     1       0.644  -0.511  -1.420  0.00  0.00    +0.129 C 
ATOM      4  C   UNL     1       2.148  -0.319  -1.237  0.00  0.00    -0.034 C 
ATOM      5  C   UNL     1       2.568   0.409  -2.263  0.00  0.00    -0.001 A 
ATOM      6  C   UNL     1       3.908   0.887  -2.641  0.00  0.00    +0.010 A 
ATOM      7  C   UNL     1       3.981   1.629  -3.777  0.00  0.00    +0.001 A 
ATOM      8  C   UNL     1       2.869   1.941  -4.565  0.00  0.00    +0.002 A 
ATOM      9  C   UNL     1       1.600   1.543  -4.293  0.00  0.00    +0.026 A 
ATOM     10  C   UNL     1       1.396   0.753  -3.124  0.00  0.00    +0.043 A 
ATOM     11  N   UNL     1       0.289   0.229  -2.639  0.00  0.00    -0.375 N 
ATOM     12  C   UNL     1       2.867  -0.888  -0.045  0.00  0.00    +0.065 C 
ATOM     13  C   UNL     1       2.031  -0.699   1.194  0.00  0.00    +0.168 C 
ATOM     14  N   UNL     1       0.666  -0.241   1.038  0.00  0.00    -0.281 N 
ATOM     15  C   UNL     1      -0.044  -0.099   2.206  0.00  0.00    +0.236 C 
ATOM     16  O   UNL     1      -1.216   0.213   2.201  0.00  0.00    -0.274 OA
ATOM     17  C   UNL     1       0.705  -0.351   3.498  0.00  0.00    +0.230 C 
ATOM     18  N   UNL     1       2.021   0.307   3.410  0.00  0.00    -0.183 N 
ATOM     19  C   UNL     1       2.723   0.124   2.252  0.00  0.00    +0.256 C 
ATOM     20  O   UNL     1       3.830   0.592   2.086  0.00  0.00    -0.272 OA
ATOM     21  C   UNL     1      -1.469  -0.326  -0.119  0.00  0.00    +0.034 C 
ATOM     22  H   UNL     1      -0.603   0.313  -3.009  0.00  0.00    +0.160 HD
ENDROOT
BRANCH  18  23
ATOM     23  N   UNL     1       2.528   1.081   4.462  0.00  0.00    -0.184 NA
ATOM     24  C   UNL     1       1.884   1.149   5.587  0.00  0.00    +0.138 C 
BRANCH  24  25
ATOM     25  C   UNL     1       2.349   2.059   6.650  0.00  0.00    -0.004 A 
ATOM     26  C   UNL     1       3.479   2.855   6.447  0.00  0.00    +0.009 A 
ATOM     27  C   UNL     1       3.909   3.704   7.445  0.00  0.00    +0.002 A 
ATOM     28  C   UNL     1       3.224   3.770   8.646  0.00  0.00    +0.015 A 
ATOM     29  C   UNL     1       2.103   2.984   8.854  0.00  0.00    +0.018 A 
ATOM     30  C   UNL     1       1.659   2.134   7.861  0.00  0.00    +0.024 A 
ATOM     31 BR   UNL     1       1.176   3.081  10.499  0.00  0.00    -0.050 Br
ENDBRANCH  24  25
ENDBRANCH  18  23
TORSDOF 2
