REMARK  Name = ZINC24123131
REMARK  4 active torsions:
REMARK  status: ('A' for Active; 'I' for Inactive)
REMARK    1  A    between atoms: C_1  and  C_2
REMARK    2  A    between atoms: C_5  and  C_7
REMARK    3  A    between atoms: N_9  and  N_10
REMARK    4  A    between atoms: C_11  and  C_13
REMARK                            x       y       z     vdW  Elec       q    Type
REMARK                         _______ _______ _______ _____ _____    ______ ____
ROOT
ATOM      1  N   UNL     1      -0.011   0.966   0.007  0.00  0.00    -0.229 N 
ATOM      2  C   UNL     1      -1.187   1.624   0.017  0.00  0.00    +0.276 C 
ATOM      3  O   UNL     1      -1.204   2.841   0.023  0.00  0.00    -0.267 OA
ATOM      4  H   UNL     1       0.004  -0.134   0.006  0.00  0.00    +0.173 HD
ENDROOT
BRANCH   2   5
ATOM      5  C   UNL     1      -2.447   0.873   0.018  0.00  0.00    +0.104 A 
ATOM      6  C   UNL     1      -3.717   1.412   0.027  0.00  0.00    +0.047 A 
ATOM      7  C   UNL     1      -4.617   0.342   0.025  0.00  0.00    +0.036 A 
ATOM      8  C   UNL     1      -3.898  -0.807   0.015  0.00  0.00    +0.098 A 
ATOM      9  N   UNL     1      -2.578  -0.497   0.005  0.00  0.00    -0.356 N 
ATOM     10  H   UNL     1      -1.682  -1.135  -0.010  0.00  0.00    +0.166 HD
ATOM     11 BR   UNL     1      -6.504   0.474   0.035  0.00  0.00    -0.049 Br
ENDBRANCH   2   5
BRANCH   1  14
ATOM     12  C   UNL     1       2.369   1.025  -0.015  0.00  0.00    +0.232 C 
ATOM     13  O   UNL     1       2.385  -0.188  -0.022  0.00  0.00    -0.274 OA
ATOM     14  N   UNL     1       1.193   1.683  -0.000  0.00  0.00    -0.234 N 
ATOM     15  H   UNL     1       1.178   2.783   0.006  0.00  0.00    +0.173 HD
BRANCH  12  19
ATOM     16  C   UNL     1       6.143   1.569  -0.825  0.00  0.00    +0.008 C 
ATOM     17  C   UNL     1       4.965   0.992  -0.038  0.00  0.00    -0.001 C 
ATOM     18  C   UNL     1       4.534   1.728   1.233  0.00  0.00    +0.017 C 
ATOM     19  C   UNL     1       3.663   1.796  -0.023  0.00  0.00    +0.080 C 
ENDBRANCH  12  19
ENDBRANCH   1  14
TORSDOF 3
