REMARK  Name = ZINC26261006
REMARK  5 active torsions:
REMARK  status: ('A' for Active; 'I' for Inactive)
REMARK    1  A    between atoms: C_1  and  C_2
REMARK    2  A    between atoms: C_6  and  N_8
REMARK    3  A    between atoms: N_8  and  S_9
REMARK    4  A    between atoms: S_9  and  C_12
REMARK    5  A    between atoms: C_16  and  C_18
REMARK                            x       y       z     vdW  Elec       q    Type
REMARK                         _______ _______ _______ _____ _____    ______ ____
ROOT
ATOM      1  C   UNL     1      -0.148  -4.973   4.062  0.00  0.00    +0.111 A 
ATOM      2  C   UNL     1       1.010  -5.248   4.768  0.00  0.00    +0.029 A 
ATOM      3  C   UNL     1       0.943  -5.660   6.087  0.00  0.00    +0.003 A 
ATOM      4  C   UNL     1      -0.282  -5.800   6.707  0.00  0.00    +0.013 A 
ATOM      5  C   UNL     1      -1.454  -5.524   6.002  0.00  0.00    +0.039 A 
ATOM      6  C   UNL     1      -1.379  -5.104   4.672  0.00  0.00    +0.042 A 
ENDROOT
BRANCH   5   7
ATOM      7  C   UNL     1      -2.769  -5.671   6.660  0.00  0.00    +0.250 C 
ATOM      8  O   UNL     1      -3.788  -5.431   6.043  0.00  0.00    -0.270 OA
ATOM      9  N   UNL     1      -2.838  -6.072   7.945  0.00  0.00    -0.251 N 
ATOM     10  C   UNL     1      -4.072  -6.211   8.563  0.00  0.00    +0.217 A 
ATOM     11  N   UNL     1      -4.278  -6.592   9.805  0.00  0.00    -0.201 NA
ATOM     12  H   UNL     1      -5.442  -5.674   7.090  0.00  0.00    +0.192 HD
ATOM     13  C   UNL     1      -5.587  -6.612  10.058  0.00  0.00    +0.246 A 
ATOM     14  N   UNL     1      -6.236  -6.245   8.985  0.00  0.00    -0.160 NA
ATOM     15  N   UNL     1      -5.275  -5.972   7.998  0.00  0.00    -0.247 N 
ATOM     16  H   UNL     1      -2.025  -6.265   8.437  0.00  0.00    +0.158 HD
ENDBRANCH   5   7
BRANCH   1  17
ATOM     17  S   UNL     1      -0.051  -4.449   2.383  0.00  0.00    +0.092 S 
ATOM     18  O   UNL     1      -1.297  -4.775   1.783  0.00  0.00    -0.148 OA
ATOM     19  O   UNL     1       1.187  -4.930   1.878  0.00  0.00    -0.148 OA
BRANCH  17  20
ATOM     20  N   UNL     1       0.052  -2.796   2.392  0.00  0.00    -0.097 NA
BRANCH  20  26
ATOM     21  C   UNL     1       0.164  -2.816  -2.522  0.00  0.00    +0.044 C 
ATOM     22  C   UNL     1       0.108  -2.074  -1.212  0.00  0.00    -0.049 A 
ATOM     23  C   UNL     1       0.059  -0.692  -1.202  0.00  0.00    +0.004 A 
ATOM     24  C   UNL     1       0.008  -0.006  -0.002  0.00  0.00    +0.017 A 
ATOM     25  C   UNL     1       0.006  -0.701   1.192  0.00  0.00    +0.042 A 
ATOM     26  C   UNL     1       0.054  -2.090   1.186  0.00  0.00    +0.088 A 
ATOM     27  C   UNL     1       0.101  -2.775  -0.022  0.00  0.00    +0.031 A 
ATOM     28 BR   UNL     1      -0.064   0.236   2.833  0.00  0.00    -0.048 Br
ENDBRANCH  20  26
ENDBRANCH  17  20
ENDBRANCH   1  17
TORSDOF 4
