REMARK  Name = ZINC05163980
REMARK  6 active torsions:
REMARK  status: ('A' for Active; 'I' for Inactive)
REMARK    1  A    between atoms: C_1  and  O_2
REMARK    2  A    between atoms: O_2  and  C_3
REMARK    3  A    between atoms: C_7  and  C_9
REMARK    4  A    between atoms: C_16  and  N_30
REMARK    5  A    between atoms: C_17  and  C_28
REMARK    6  A    between atoms: C_18  and  C_20
REMARK                            x       y       z     vdW  Elec       q    Type
REMARK                         _______ _______ _______ _____ _____    ______ ____
ROOT
ATOM      1  C   UNL     1       1.354  -4.565   2.431  0.00  0.00    +0.074 A 
ATOM      2  C   UNL     1       2.594  -5.097   2.545  0.00  0.00    +0.054 A 
ATOM      3  C   UNL     1       2.472  -6.500   2.523  0.00  0.00    +0.245 A 
ATOM      4  N   UNL     1       1.210  -6.800   2.401  0.00  0.00    -0.135 NA
ATOM      5  N   UNL     1       0.473  -5.606   2.345  0.00  0.00    -0.273 N 
ATOM      6  H   UNL     1      -0.490  -5.533   2.258  0.00  0.00    +0.189 HD
ATOM      7  O   UNL     1       3.554  -7.320   2.618  0.00  0.00    -0.421 OA
ATOM      8  C   UNL     1       4.771  -6.762   2.461  0.00  0.00    +0.201 C 
ATOM      9  C   UNL     1       5.011  -5.435   2.477  0.00  0.00    +0.098 C 
ATOM     10  C   UNL     1       3.927  -4.406   2.679  0.00  0.00    +0.103 C 
ENDROOT
BRANCH  10  11
ATOM     11  C   UNL     1       4.051  -3.800   4.053  0.00  0.00    -0.015 A 
ATOM     12  C   UNL     1       3.857  -4.585   5.175  0.00  0.00    +0.006 A 
ATOM     13  C   UNL     1       3.970  -4.030   6.435  0.00  0.00    +0.002 A 
ATOM     14  C   UNL     1       4.277  -2.689   6.576  0.00  0.00    +0.021 A 
ATOM     15  C   UNL     1       4.471  -1.903   5.455  0.00  0.00    +0.060 A 
ATOM     16  C   UNL     1       4.364  -2.460   4.192  0.00  0.00    +0.063 A 
ATOM     17 CL   UNL     1       4.614  -1.476   2.784  0.00  0.00    -0.082 Cl
ATOM     18 CL   UNL     1       4.856  -0.219   5.632  0.00  0.00    -0.082 Cl
ENDBRANCH  10  11
BRANCH   1  23
ATOM     19  C   UNL     1      -0.327  -1.287   3.186  0.00  0.00    +0.121 A 
ATOM     20  C   UNL     1       0.386  -0.425   2.364  0.00  0.00    +0.045 A 
ATOM     21  C   UNL     1       1.407  -0.908   1.568  0.00  0.00    +0.004 A 
ATOM     22  C   UNL     1       1.726  -2.251   1.586  0.00  0.00    +0.010 A 
ATOM     23  C   UNL     1       1.015  -3.125   2.409  0.00  0.00    +0.004 A 
ATOM     24  C   UNL     1      -0.012  -2.635   3.216  0.00  0.00    +0.055 A 
BRANCH  19  26
ATOM     25  C   UNL     1      -1.602   0.593   3.886  0.00  0.00    +0.277 C 
ATOM     26  O   UNL     1      -1.331  -0.807   3.967  0.00  0.00    -0.495 OA
ENDBRANCH  19  26
ENDBRANCH   1  23
BRANCH   8  27
ATOM     27  N   UNL     1       5.839  -7.603   2.273  0.00  0.00    -0.328 N 
ATOM     28  H   UNL     1       5.704  -8.563   2.256  0.00  0.00    +0.145 HD
ATOM     29  H   UNL     1       6.730  -7.237   2.157  0.00  0.00    +0.145 HD
ENDBRANCH   8  27
BRANCH   9  30
ATOM     30  C   UNL     1       6.357  -4.982   2.293  0.00  0.00    +0.101 C 
ATOM     31  N   UNL     1       7.425  -4.622   2.147  0.00  0.00    -0.191 NA
ENDBRANCH   9  30
TORSDOF 5
