REMARK  Name = ZINC36557070
REMARK  21 active torsions:
REMARK  status: ('A' for Active; 'I' for Inactive)
REMARK    1  A    between atoms: C_1  and  C_2
REMARK    2  A    between atoms: C_2  and  C_3
REMARK    3  A    between atoms: C_3  and  C_4
REMARK    4  A    between atoms: C_3  and  C_6
REMARK    5  A    between atoms: C_4  and  C_5
REMARK    6  A    between atoms: C_6  and  C_8
REMARK    7  A    between atoms: C_6  and  N_19
REMARK    8  A    between atoms: N_10  and  C_11
REMARK    9  A    between atoms: C_11  and  C_12
REMARK   10  A    between atoms: C_11  and  C_13
REMARK   11  A    between atoms: C_11  and  C_14
REMARK   12  A    between atoms: C_14  and  C_15
REMARK   13  A    between atoms: C_15  and  C_16
REMARK   14  A    between atoms: C_15  and  C_17
REMARK   15  A    between atoms: C_15  and  C_18
REMARK   16  A    between atoms: N_19  and  C_20
REMARK   17  A    between atoms: C_20  and  C_21
REMARK   18  A    between atoms: C_24  and  C_26
REMARK   19  A    between atoms: C_27  and  C_29
REMARK   20  A    between atoms: C_29  and  C_30
REMARK   21  A    between atoms: C_30  and  C_31
REMARK                            x       y       z     vdW  Elec       q    Type
REMARK                         _______ _______ _______ _____ _____    ______ ____
ROOT
ATOM      1  C   UNL     1       3.974   0.419   0.809  0.00  0.00    +0.165 C 
ENDROOT
BRANCH   1   2
ATOM      2  C   UNL     1       3.889   1.876   1.184  0.00  0.00    +0.234 C 
ATOM      3  O   UNL     1       4.494   2.289   2.150  0.00  0.00    -0.274 OA
ATOM      4  N   UNL     1       3.140   2.719   0.446  0.00  0.00    -0.309 N 
ATOM      5  H   UNL     1       2.581   2.373  -0.267  0.00  0.00    +0.149 HD
BRANCH   4   6
ATOM      6  C   UNL     1       3.171   4.158   0.721  0.00  0.00    +0.030 C 
ATOM      7  C   UNL     1       2.506   4.434   2.071  0.00  0.00    +0.031 C 
ATOM      8  C   UNL     1       4.623   4.638   0.760  0.00  0.00    +0.031 C 
BRANCH   6   9
ATOM      9  C   UNL     1       2.417   4.904  -0.382  0.00  0.00    +0.031 C 
BRANCH   9  10
ATOM     10  C   UNL     1       2.789   4.314  -1.743  0.00  0.00    -0.036 C 
ATOM     11  C   UNL     1       2.011   3.015  -1.966  0.00  0.00    +0.010 C 
ATOM     12  C   UNL     1       2.437   5.314  -2.846  0.00  0.00    +0.010 C 
ATOM     13  C   UNL     1       4.290   4.022  -1.780  0.00  0.00    +0.010 C 
ENDBRANCH   9  10
ENDBRANCH   6   9
ENDBRANCH   4   6
ENDBRANCH   1   2
BRANCH   1  14
ATOM     14  N   UNL     1       4.839  -0.281   1.762  0.00  0.00    -0.282 N 
ATOM     15  C   UNL     1       5.922  -0.952   1.322  0.00  0.00    +0.217 C 
ATOM     16  O   UNL     1       6.180  -0.976   0.138  0.00  0.00    -0.276 OA
BRANCH  14  17
ATOM     17  C   UNL     1       4.527  -0.252   3.193  0.00  0.00    +0.182 C 
BRANCH  17  18
ATOM     18  C   UNL     1       3.882  -1.554   3.594  0.00  0.00    +0.122 A 
ATOM     19  C   UNL     1       4.522  -2.630   4.088  0.00  0.00    +0.046 A 
ATOM     20  C   UNL     1       3.539  -3.619   4.323  0.00  0.00    +0.045 A 
ATOM     21  C   UNL     1       2.358  -3.089   3.958  0.00  0.00    +0.102 A 
ATOM     22  O   UNL     1       2.571  -1.836   3.523  0.00  0.00    -0.463 OA
ATOM     23  C   UNL     1       1.021  -3.781   4.031  0.00  0.00    +0.086 C 
ENDBRANCH  17  18
ENDBRANCH  14  17
BRANCH  15  24
ATOM     24  C   UNL     1       6.812  -1.672   2.302  0.00  0.00    +0.096 C 
BRANCH  24  25
ATOM     25  C   UNL     1       7.960  -2.346   1.549  0.00  0.00    +0.013 C 
BRANCH  25  26
ATOM     26  C   UNL     1       8.864  -3.077   2.544  0.00  0.00    -0.011 C 
ATOM     27  C   UNL     1       9.531  -2.059   3.470  0.00  0.00    +0.003 C 
ATOM     28  C   UNL     1      10.434  -2.789   4.465  0.00  0.00    +0.000 C 
ATOM     29  C   UNL     1      11.509  -3.566   3.702  0.00  0.00    +0.000 C 
ATOM     30  C   UNL     1      10.842  -4.585   2.776  0.00  0.00    +0.000 C 
ATOM     31  C   UNL     1       9.939  -3.854   1.781  0.00  0.00    +0.003 C 
ENDBRANCH  25  26
ENDBRANCH  24  25
ENDBRANCH  15  24
ENDBRANCH   1  14
BRANCH   1  32
ATOM     32  C   UNL     1       2.574  -0.199   0.843  0.00  0.00    +0.018 C 
BRANCH  32  34
ATOM     33  C   UNL     1       3.246  -1.976  -0.780  0.00  0.00    +0.004 C 
ATOM     34  C   UNL     1       2.677  -1.708   0.615  0.00  0.00    +0.002 C 
ENDBRANCH  32  34
BRANCH  32  35
ATOM     35  C   UNL     1       1.931   0.069   2.205  0.00  0.00    +0.002 C 
ATOM     36  C   UNL     1       1.440   1.517   2.261  0.00  0.00    +0.004 C 
ENDBRANCH  32  35
ENDBRANCH   1  32
TORSDOF 13
