REMARK  Name = ZINC23809121
REMARK  7 active torsions:
REMARK  status: ('A' for Active; 'I' for Inactive)
REMARK    1  A    between atoms: C_1  and  C_2
REMARK    2  A    between atoms: C_6  and  N_9
REMARK    3  A    between atoms: C_7  and  C_8
REMARK    4  A    between atoms: C_14  and  N_18
REMARK    5  A    between atoms: C_19  and  N_24
REMARK    6  A    between atoms: C_21  and  C_23
REMARK    7  A    between atoms: C_25  and  C_27
REMARK                            x       y       z     vdW  Elec       q    Type
REMARK                         _______ _______ _______ _____ _____    ______ ____
ROOT
ATOM      1  N   UNL     1       3.566   1.813  -0.028  0.00  0.00    -0.199 N 
ATOM      2  C   UNL     1       2.323   1.255  -0.042  0.00  0.00    +0.131 A 
ATOM      3  C   UNL     1       2.482  -0.097  -0.012  0.00  0.00    +0.068 A 
ATOM      4  C   UNL     1       3.854  -0.366   0.012  0.00  0.00    +0.062 A 
ATOM      5  N   UNL     1       4.502   0.770   0.006  0.00  0.00    -0.169 NA
ATOM      6  C   UNL     1       4.481  -1.736   0.045  0.00  0.00    +0.067 C 
ENDROOT
BRANCH   1  12
ATOM      7  N   UNL     1       6.773   5.187  -0.023  0.00  0.00    -0.214 N 
ATOM      8  C   UNL     1       5.417   5.019  -0.045  0.00  0.00    +0.168 A 
ATOM      9  C   UNL     1       5.185   3.628  -0.021  0.00  0.00    +0.083 A 
ATOM     10  C   UNL     1       6.450   2.999   0.006  0.00  0.00    +0.148 A 
ATOM     11  N   UNL     1       7.370   3.921   0.008  0.00  0.00    -0.172 NA
ATOM     12  C   UNL     1       3.855   3.174  -0.044  0.00  0.00    +0.170 A 
ATOM     13  N   UNL     1       2.881   4.075  -0.076  0.00  0.00    -0.216 NA
ATOM     14  C   UNL     1       3.146   5.369  -0.092  0.00  0.00    +0.226 A 
ATOM     15  N   UNL     1       4.373   5.842  -0.077  0.00  0.00    -0.216 NA
BRANCH   7  21
ATOM     16  C   UNL     1      10.253   8.115   1.847  0.00  0.00    +0.044 C 
ATOM     17  C   UNL     1       9.139   7.859   0.865  0.00  0.00    -0.046 A 
ATOM     18  C   UNL     1       8.782   8.838  -0.045  0.00  0.00    +0.004 A 
ATOM     19  C   UNL     1       7.760   8.607  -0.947  0.00  0.00    +0.002 A 
ATOM     20  C   UNL     1       7.096   7.396  -0.947  0.00  0.00    +0.028 A 
ATOM     21  C   UNL     1       7.448   6.414  -0.030  0.00  0.00    +0.071 A 
ATOM     22  C   UNL     1       8.475   6.649   0.875  0.00  0.00    -0.022 A 
ATOM     23  C   UNL     1       8.864   5.583   1.867  0.00  0.00    +0.046 C 
ENDBRANCH   7  21
ENDBRANCH   1  12
BRANCH   2  24
ATOM     24  N   UNL     1       1.111   1.941  -0.075  0.00  0.00    -0.266 N 
ATOM     25  C   UNL     1      -0.050   1.258  -0.085  0.00  0.00    +0.256 C 
ATOM     26  O   UNL     1      -0.041   0.042  -0.066  0.00  0.00    -0.270 OA
ATOM     27  H   UNL     1       1.103   3.041  -0.092  0.00  0.00    +0.157 HD
BRANCH  25  28
ATOM     28  C   UNL     1      -1.331   1.983  -0.126  0.00  0.00    +0.122 A 
ATOM     29  C   UNL     1      -1.356   3.367  -0.142  0.00  0.00    +0.031 A 
ATOM     30  C   UNL     1      -2.611   4.025  -0.187  0.00  0.00    +0.018 A 
ATOM     31  C   UNL     1      -2.674   5.426  -0.210  0.00  0.00    +0.011 A 
ATOM     32  C   UNL     1      -3.886   6.053  -0.246  0.00  0.00    +0.001 A 
ATOM     33  C   UNL     1      -5.060   5.313  -0.261  0.00  0.00    +0.004 A 
ATOM     34  C   UNL     1      -5.023   3.935  -0.239  0.00  0.00    +0.047 A 
ATOM     35  C   UNL     1      -3.800   3.273  -0.202  0.00  0.00    +0.139 A 
ATOM     36  O   UNL     1      -3.766   1.924  -0.180  0.00  0.00    -0.422 OA
ATOM     37  C   UNL     1      -2.603   1.252  -0.144  0.00  0.00    +0.350 A 
ATOM     38  O   UNL     1      -2.604   0.036  -0.126  0.00  0.00    -0.244 OA
ENDBRANCH  25  28
ENDBRANCH   2  24
TORSDOF 4
