REMARK  Name = ZINC10968257
REMARK  10 active torsions:
REMARK  status: ('A' for Active; 'I' for Inactive)
REMARK    1  A    between atoms: C_1  and  C_2
REMARK    2  A    between atoms: C_2  and  C_3
REMARK    3  A    between atoms: C_2  and  C_4
REMARK    4  A    between atoms: C_4  and  N_5
REMARK    5  A    between atoms: N_8  and  C_15
REMARK    6  A    between atoms: N_11  and  C_14
REMARK    7  A    between atoms: C_20  and  C_21
REMARK    8  A    between atoms: C_23  and  O_29
REMARK    9  A    between atoms: C_24  and  O_28
REMARK   10  A    between atoms: O_29  and  C_30
REMARK                            x       y       z     vdW  Elec       q    Type
REMARK                         _______ _______ _______ _____ _____    ______ ____
ROOT
ATOM      1  N   UNL     1      -2.113  -5.042   6.603  0.00  0.00    -0.302 N 
ATOM      2  C   UNL     1      -2.835  -5.282   7.774  0.00  0.00    +0.152 A 
ATOM      3  C   UNL     1      -3.440  -4.113   8.139  0.00  0.00    +0.155 A 
ATOM      4  N   UNL     1      -4.220  -4.085   9.275  0.00  0.00    -0.281 N 
ATOM      5  C   UNL     1      -4.383  -5.197  10.016  0.00  0.00    +0.333 A 
ATOM      6  O   UNL     1      -5.075  -5.151  11.015  0.00  0.00    -0.246 OA
ATOM      7  N   UNL     1      -3.796  -6.357   9.673  0.00  0.00    -0.262 N 
ATOM      8  C   UNL     1      -3.024  -6.435   8.570  0.00  0.00    +0.282 A 
ATOM      9  O   UNL     1      -2.494  -7.488   8.263  0.00  0.00    -0.265 OA
ATOM     10  C   UNL     1      -3.997  -7.547  10.505  0.00  0.00    +0.157 C 
ATOM     11  C   UNL     1      -4.874  -2.838   9.679  0.00  0.00    +0.155 C 
ATOM     12  N   UNL     1      -3.105  -3.154   7.214  0.00  0.00    -0.244 N 
ATOM     13  C   UNL     1      -2.287  -3.718   6.274  0.00  0.00    +0.239 A 
ATOM     14  N   UNL     1      -1.980  -2.774   5.411  0.00  0.00    -0.110 NA
ATOM     15  N   UNL     1      -2.543  -1.668   5.746  0.00  0.00    -0.127 NA
ATOM     16  C   UNL     1      -3.253  -1.837   6.839  0.00  0.00    +0.171 A 
ENDROOT
BRANCH  16  17
ATOM     17  C   UNL     1      -4.045  -0.807   7.541  0.00  0.00    +0.024 A 
ATOM     18  C   UNL     1      -3.412   0.109   8.384  0.00  0.00    +0.061 A 
ATOM     19  C   UNL     1      -4.157   1.072   9.039  0.00  0.00    +0.163 A 
ATOM     20  C   UNL     1      -5.537   1.127   8.857  0.00  0.00    +0.173 A 
ATOM     21  C   UNL     1      -6.167   0.217   8.021  0.00  0.00    +0.064 A 
ATOM     22  C   UNL     1      -5.428  -0.743   7.359  0.00  0.00    +0.030 A 
ATOM     23 BR   UNL     1      -8.041   0.297   7.779  0.00  0.00    -0.046 Br
BRANCH  20  24
ATOM     24  O   UNL     1      -6.269   2.074   9.503  0.00  0.00    -0.503 OA
ATOM     25  H   UNL     1      -6.370   2.899   9.008  0.00  0.00    +0.292 HD
ENDBRANCH  20  24
BRANCH  19  26
ATOM     26  O   UNL     1      -3.543   1.966   9.859  0.00  0.00    -0.491 OA
ATOM     27  C   UNL     1      -2.126   1.851   9.998  0.00  0.00    +0.277 C 
ENDBRANCH  19  26
ENDBRANCH  16  17
BRANCH   1  28
ATOM     28  C   UNL     1      -1.312  -6.020   5.864  0.00  0.00    +0.128 C 
BRANCH  28  30
ATOM     29  C   UNL     1      -1.328  -7.645   3.965  0.00  0.00    +0.009 C 
ATOM     30  C   UNL     1      -2.190  -6.714   4.820  0.00  0.00    +0.003 C 
ATOM     31  C   UNL     1      -3.274  -7.530   5.528  0.00  0.00    +0.009 C 
ENDBRANCH  28  30
ENDBRANCH   1  28
TORSDOF 5
