REMARK  Name = ZINC40368176
REMARK  6 active torsions:
REMARK  status: ('A' for Active; 'I' for Inactive)
REMARK    1  A    between atoms: C_1  and  C_2
REMARK    2  A    between atoms: C_3  and  C_29
REMARK    3  A    between atoms: C_4  and  C_13
REMARK    4  A    between atoms: C_17  and  N_19
REMARK    5  A    between atoms: C_20  and  C_22
REMARK    6  A    between atoms: N_31  and  C_32
REMARK                            x       y       z     vdW  Elec       q    Type
REMARK                         _______ _______ _______ _____ _____    ______ ____
ROOT
ATOM      1  C   UNL     1       0.106   1.722   0.243  0.00  0.00    +0.064 C 
ATOM      2  C   UNL     1       0.053   0.222   0.102  0.00  0.00    +0.025 C 
ATOM      3  C   UNL     1      -1.146  -0.418   0.183  0.00  0.00    +0.058 C 
ATOM      4  C   UNL     1      -1.189  -1.925   0.105  0.00  0.00    +0.143 C 
ATOM      5  N   UNL     1      -0.013  -2.391  -0.652  0.00  0.00    -0.300 N 
ATOM      6  C   UNL     1      -0.186  -3.486  -1.588  0.00  0.00    +0.109 C 
ATOM      7  C   UNL     1       0.992  -4.414  -1.760  0.00  0.00    +0.030 C 
ATOM      8  C   UNL     1       2.260  -3.659  -2.163  0.00  0.00    +0.078 C 
ATOM      9  S   UNL     1       2.698  -2.557  -0.780  0.00  0.00    -0.092 S 
ATOM     10  C   UNL     1       1.169  -1.727  -0.475  0.00  0.00    +0.135 C 
ATOM     11  N   UNL     1       1.179  -0.458  -0.105  0.00  0.00    -0.341 N 
ATOM     12  H   UNL     1       2.030  -0.011   0.023  0.00  0.00    +0.167 HD
ENDROOT
BRANCH   4  13
ATOM     13  C   UNL     1      -1.163  -2.504   1.496  0.00  0.00    -0.021 A 
ATOM     14  C   UNL     1       0.035  -2.604   2.180  0.00  0.00    +0.006 A 
ATOM     15  C   UNL     1       0.064  -3.136   3.456  0.00  0.00    +0.002 A 
ATOM     16  C   UNL     1      -1.104  -3.568   4.052  0.00  0.00    +0.023 A 
ATOM     17  C   UNL     1      -2.309  -3.468   3.369  0.00  0.00    +0.034 A 
ATOM     18  C   UNL     1      -2.335  -2.929   2.089  0.00  0.00    +0.029 A 
BRANCH  17  19
ATOM     19  N   UNL     1      -3.494  -3.905   3.969  0.00  0.00    -0.281 N 
ATOM     20  C   UNL     1      -3.658  -3.785   5.302  0.00  0.00    +0.248 C 
ATOM     21  O   UNL     1      -2.817  -3.214   5.969  0.00  0.00    -0.270 OA
ATOM     22  H   UNL     1      -4.197  -4.295   3.427  0.00  0.00    +0.155 HD
BRANCH  20  23
ATOM     23  C   UNL     1      -4.860  -4.348   5.952  0.00  0.00    +0.038 A 
ATOM     24  C   UNL     1      -5.825  -5.010   5.189  0.00  0.00    +0.013 A 
ATOM     25  C   UNL     1      -6.944  -5.534   5.802  0.00  0.00    +0.002 A 
ATOM     26  C   UNL     1      -7.113  -5.405   7.169  0.00  0.00    +0.020 A 
ATOM     27  C   UNL     1      -6.161  -4.750   7.931  0.00  0.00    +0.042 A 
ATOM     28  C   UNL     1      -5.033  -4.226   7.331  0.00  0.00    +0.033 A 
ATOM     29 CL   UNL     1      -6.382  -4.593   9.646  0.00  0.00    -0.084 Cl
ENDBRANCH  20  23
ENDBRANCH  17  19
ENDBRANCH   4  13
BRANCH   3  30
ATOM     30  C   UNL     1      -2.335   0.318   0.338  0.00  0.00    +0.248 C 
ATOM     31  O   UNL     1      -2.294   1.535   0.401  0.00  0.00    -0.270 OA
ATOM     32  N   UNL     1      -3.518  -0.321   0.418  0.00  0.00    -0.282 N 
ATOM     33  H   UNL     1      -3.546  -1.291   0.434  0.00  0.00    +0.155 HD
BRANCH  32  34
ATOM     34  C   UNL     1      -4.707   0.413   0.476  0.00  0.00    +0.034 A 
ATOM     35  C   UNL     1      -5.853  -0.068  -0.144  0.00  0.00    +0.023 A 
ATOM     36  C   UNL     1      -7.026   0.659  -0.085  0.00  0.00    +0.002 A 
ATOM     37  C   UNL     1      -7.059   1.865   0.591  0.00  0.00    +0.000 A 
ATOM     38  C   UNL     1      -5.920   2.347   1.209  0.00  0.00    +0.002 A 
ATOM     39  C   UNL     1      -4.746   1.622   1.159  0.00  0.00    +0.023 A 
ENDBRANCH  32  34
ENDBRANCH   3  30
TORSDOF 5
