REMARK  Name = ZINC02438456
REMARK  2 active torsions:
REMARK  status: ('A' for Active; 'I' for Inactive)
REMARK    1  A    between atoms: C_4  and  N_33
REMARK    2  A    between atoms: C_6  and  N_7
REMARK                            x       y       z     vdW  Elec       q    Type
REMARK                         _______ _______ _______ _____ _____    ______ ____
ROOT
ATOM      1  N   UNL     1      -1.202  -0.723   0.010  0.00  0.00    -0.210 N 
ATOM      2  C   UNL     1      -1.250  -2.057  -0.089  0.00  0.00    +0.228 C 
ATOM      3  O   UNL     1      -0.287  -2.786  -0.194  0.00  0.00    -0.275 OA
ATOM      4  C   UNL     1      -2.691  -2.512  -0.049  0.00  0.00    +0.074 C 
ATOM      5  C   UNL     1      -2.943  -3.294   1.254  0.00  0.00    -0.054 C 
ATOM      6  C   UNL     1      -1.613  -3.881   1.759  0.00  0.00    -0.016 C 
ATOM      7  C   UNL     1      -1.022  -2.813   2.699  0.00  0.00    -0.020 C 
ATOM      8  C   UNL     1      -2.031  -1.648   2.671  0.00  0.00    -0.076 C 
ATOM      9  N   UNL     1      -3.344  -2.263   2.258  0.00  0.00    +0.395 N 
ATOM     10  C   UNL     1      -4.140  -1.289   1.492  0.00  0.00    +0.053 C 
ATOM     11  C   UNL     1      -3.482  -1.184   0.095  0.00  0.00    +0.089 C 
ATOM     12  C   UNL     1      -2.397  -0.132   0.123  0.00  0.00    +0.229 C 
ATOM     13  O   UNL     1      -2.581   1.062   0.229  0.00  0.00    -0.275 OA
ATOM     14  C   UNL     1      -5.577  -1.714   1.385  0.00  0.00    -0.024 A 
ATOM     15  C   UNL     1      -6.200  -2.825   0.863  0.00  0.00    +0.043 A 
ATOM     16  C   UNL     1      -7.580  -2.934   0.912  0.00  0.00    +0.124 A 
ATOM     17  C   UNL     1      -8.330  -1.922   1.488  0.00  0.00    +0.040 A 
ATOM     18  C   UNL     1      -7.709  -0.807   2.012  0.00  0.00    +0.026 A 
ATOM     19  C   UNL     1      -6.321  -0.691   1.966  0.00  0.00    +0.036 A 
ATOM     20  N   UNL     1      -5.475   0.323   2.421  0.00  0.00    -0.286 N 
ATOM     21  C   UNL     1      -4.179   0.049   2.181  0.00  0.00    +0.212 C 
ATOM     22  O   UNL     1      -3.227   0.745   2.464  0.00  0.00    -0.277 OA
ATOM     23  F   UNL     1      -8.193  -4.023   0.400  0.00  0.00    -0.205 F 
ATOM     24  H   UNL     1      -5.785   1.131   2.860  0.00  0.00    +0.155 HD
ATOM     25  H   UNL     1      -3.850  -2.657   3.037  0.00  0.00    -0.079 HD
ENDROOT
BRANCH   1  31
ATOM     26  C   UNL     1       0.421   0.664   1.145  0.00  0.00    +0.025 A 
ATOM     27  C   UNL     1       1.607   1.371   1.134  0.00  0.00    +0.024 A 
ATOM     28  C   UNL     1       2.379   1.413  -0.014  0.00  0.00    +0.071 A 
ATOM     29  C   UNL     1       1.963   0.748  -1.154  0.00  0.00    +0.146 A 
ATOM     30  C   UNL     1       0.777   0.041  -1.149  0.00  0.00    +0.058 A 
ATOM     31  C   UNL     1       0.002  -0.004   0.002  0.00  0.00    +0.046 A 
ATOM     32 CL   UNL     1       3.869   2.303  -0.024  0.00  0.00    -0.081 Cl
BRANCH  29  33
ATOM     33  N   UNL     1       2.791   0.796  -2.381  0.00  0.00    +0.058 N 
ATOM     34  O   UNL     1       2.429   0.215  -3.377  0.00  0.00    -0.126 OA
ATOM     35  O   UNL     1       3.829   1.415  -2.386  0.00  0.00    -0.126 OA
ENDBRANCH  29  33
ENDBRANCH   1  31
TORSDOF 2
