REMARK  Name = ZINC35760420
REMARK  7 active torsions:
REMARK  status: ('A' for Active; 'I' for Inactive)
REMARK    1  A    between atoms: C_1  and  C_2
REMARK    2  A    between atoms: C_3  and  C_33
REMARK    3  A    between atoms: C_4  and  C_13
REMARK    4  A    between atoms: C_16  and  N_19
REMARK    5  A    between atoms: C_20  and  C_22
REMARK    6  A    between atoms: C_25  and  C_27
REMARK    7  A    between atoms: N_35  and  C_36
REMARK                            x       y       z     vdW  Elec       q    Type
REMARK                         _______ _______ _______ _____ _____    ______ ____
ROOT
ATOM      1  C   UNL     1       0.277   0.757   0.985  0.00  0.00    +0.064 C 
ATOM      2  C   UNL     1       0.095  -0.738   0.923  0.00  0.00    +0.025 C 
ATOM      3  C   UNL     1      -1.153  -1.256   0.757  0.00  0.00    +0.058 C 
ATOM      4  C   UNL     1      -1.341  -2.754   0.759  0.00  0.00    +0.142 C 
ATOM      5  N   UNL     1      -0.081  -3.386   0.327  0.00  0.00    -0.300 N 
ATOM      6  C   UNL     1      -0.155  -4.533  -0.559  0.00  0.00    +0.109 C 
ATOM      7  C   UNL     1       0.924  -5.577  -0.396  0.00  0.00    +0.030 C 
ATOM      8  C   UNL     1       2.324  -4.977  -0.535  0.00  0.00    +0.078 C 
ATOM      9  S   UNL     1       2.554  -3.811   0.846  0.00  0.00    -0.092 S 
ATOM     10  C   UNL     1       1.095  -2.821   0.736  0.00  0.00    +0.135 C 
ATOM     11  N   UNL     1       1.158  -1.533   1.024  0.00  0.00    -0.341 N 
ATOM     12  H   UNL     1       2.002  -1.158   1.321  0.00  0.00    +0.167 HD
ENDROOT
BRANCH   4  13
ATOM     13  C   UNL     1      -1.693  -3.218   2.149  0.00  0.00    -0.022 A 
ATOM     14  C   UNL     1      -0.699  -3.372   3.098  0.00  0.00    +0.007 A 
ATOM     15  C   UNL     1      -1.019  -3.797   4.372  0.00  0.00    +0.023 A 
ATOM     16  C   UNL     1      -2.340  -4.070   4.700  0.00  0.00    +0.033 A 
ATOM     17  C   UNL     1      -3.336  -3.914   3.745  0.00  0.00    +0.023 A 
ATOM     18  C   UNL     1      -3.011  -3.484   2.474  0.00  0.00    +0.007 A 
BRANCH  16  19
ATOM     19  N   UNL     1      -2.668  -4.501   5.990  0.00  0.00    -0.285 N 
ATOM     20  C   UNL     1      -1.820  -5.300   6.669  0.00  0.00    +0.221 C 
ATOM     21  O   UNL     1      -0.738  -5.577   6.196  0.00  0.00    -0.275 OA
ATOM     22  H   UNL     1      -3.504  -4.226   6.397  0.00  0.00    +0.155 HD
BRANCH  20  23
ATOM     23  C   UNL     1      -2.218  -5.850   8.015  0.00  0.00    +0.083 C 
ATOM     24  C   UNL     1      -2.477  -7.354   8.115  0.00  0.00    +0.022 C 
ATOM     25  C   UNL     1      -1.213  -6.752   8.734  0.00  0.00    +0.032 C 
BRANCH  25  26
ATOM     26  C   UNL     1       0.098  -7.024   8.042  0.00  0.00    -0.044 A 
ATOM     27  C   UNL     1       0.112  -7.631   6.801  0.00  0.00    +0.004 A 
ATOM     28  C   UNL     1       1.314  -7.881   6.166  0.00  0.00    +0.000 A 
ATOM     29  C   UNL     1       2.503  -7.521   6.773  0.00  0.00    +0.000 A 
ATOM     30  C   UNL     1       2.490  -6.913   8.014  0.00  0.00    +0.000 A 
ATOM     31  C   UNL     1       1.287  -6.660   8.647  0.00  0.00    +0.004 A 
ENDBRANCH  25  26
ENDBRANCH  20  23
ENDBRANCH  16  19
ENDBRANCH   4  13
BRANCH   3  32
ATOM     32  C   UNL     1      -2.259  -0.403   0.588  0.00  0.00    +0.248 C 
ATOM     33  O   UNL     1      -2.102   0.805   0.588  0.00  0.00    -0.270 OA
ATOM     34  N   UNL     1      -3.492  -0.922   0.425  0.00  0.00    -0.282 N 
ATOM     35  H   UNL     1      -3.627  -1.881   0.491  0.00  0.00    +0.155 HD
BRANCH  34  36
ATOM     36  C   UNL     1      -4.576  -0.080   0.160  0.00  0.00    +0.034 A 
ATOM     37  C   UNL     1      -5.601  -0.506  -0.675  0.00  0.00    +0.023 A 
ATOM     38  C   UNL     1      -6.670   0.329  -0.934  0.00  0.00    +0.002 A 
ATOM     39  C   UNL     1      -6.721   1.588  -0.364  0.00  0.00    +0.000 A 
ATOM     40  C   UNL     1      -5.702   2.015   0.468  0.00  0.00    +0.002 A 
ATOM     41  C   UNL     1      -4.633   1.183   0.737  0.00  0.00    +0.023 A 
ENDBRANCH  34  36
ENDBRANCH   3  32
TORSDOF 6
