REMARK  Name = ZINC06490173
REMARK  7 active torsions:
REMARK  status: ('A' for Active; 'I' for Inactive)
REMARK    1  A    between atoms: C_1  and  C_2
REMARK    2  A    between atoms: C_2  and  N_3
REMARK    3  A    between atoms: C_5  and  N_17
REMARK    4  A    between atoms: C_6  and  C_8
REMARK    5  A    between atoms: N_10  and  C_11
REMARK    6  A    between atoms: C_18  and  C_20
REMARK    7  A    between atoms: C_26  and  C_28
REMARK                            x       y       z     vdW  Elec       q    Type
REMARK                         _______ _______ _______ _____ _____    ______ ____
ROOT
ATOM      1  N   UNL     1      -2.243   9.775   0.158  0.00  0.00    -0.269 N 
ATOM      2  C   UNL     1      -3.316   9.757   0.989  0.00  0.00    +0.132 A 
ATOM      3  C   UNL     1      -3.607   8.452   1.236  0.00  0.00    +0.084 A 
ATOM      4  C   UNL     1      -2.646   7.707   0.505  0.00  0.00    +0.168 A 
ATOM      5  N   UNL     1      -1.866   8.576  -0.107  0.00  0.00    -0.165 NA
ENDROOT
BRANCH   4   6
ATOM      6  C   UNL     1      -2.537   6.237   0.445  0.00  0.00    +0.266 C 
ATOM      7  O   UNL     1      -3.321   5.543   1.064  0.00  0.00    -0.268 OA
ATOM      8  N   UNL     1      -1.569   5.662  -0.295  0.00  0.00    -0.307 N 
ATOM      9  H   UNL     1      -0.943   6.216  -0.789  0.00  0.00    +0.149 HD
BRANCH   8  10
ATOM     10  C   UNL     1      -1.460   4.203  -0.354  0.00  0.00    +0.073 C 
ATOM     11  C   UNL     1      -0.767   3.795  -1.656  0.00  0.00    +0.022 C 
ATOM     12  C   UNL     1      -0.653   2.271  -1.718  0.00  0.00    +0.002 C 
ATOM     13  C   UNL     1       0.165   1.771  -0.525  0.00  0.00    +0.000 C 
ATOM     14  C   UNL     1      -0.528   2.179   0.776  0.00  0.00    +0.002 C 
ATOM     15  C   UNL     1      -0.641   3.704   0.838  0.00  0.00    +0.022 C 
ENDBRANCH   8  10
ENDBRANCH   4   6
BRANCH   3  16
ATOM     16  N   UNL     1      -4.639   7.949   2.043  0.00  0.00    -0.282 N 
ATOM     17  C   UNL     1      -5.474   8.797   2.675  0.00  0.00    +0.221 C 
ATOM     18  O   UNL     1      -5.279   9.993   2.622  0.00  0.00    -0.275 OA
ATOM     19  H   UNL     1      -4.752   6.991   2.145  0.00  0.00    +0.155 HD
BRANCH  17  20
ATOM     20  C   UNL     1      -6.650   8.259   3.450  0.00  0.00    +0.092 C 
ATOM     21  C   UNL     1      -7.947   8.822   2.864  0.00  0.00    +0.002 C 
ATOM     22  C   UNL     1      -9.140   8.276   3.650  0.00  0.00    +0.004 C 
ATOM     23  C   UNL     1      -9.020   8.695   5.117  0.00  0.00    +0.004 C 
ATOM     24  C   UNL     1      -7.745   9.519   5.309  0.00  0.00    +0.004 C 
ATOM     25  C   UNL     1      -6.529   8.678   4.916  0.00  0.00    +0.117 C 
ATOM     26  C   UNL     1      -7.808  10.767   4.426  0.00  0.00    +0.004 C 
ATOM     27  C   UNL     1      -7.928  10.349   2.959  0.00  0.00    +0.004 C 
BRANCH  25  28
ATOM     28  C   UNL     1      -5.274   9.490   5.105  0.00  0.00    +0.360 C 
ATOM     29  O   UNL     1      -5.348  10.639   5.473  0.00  0.00    -0.246 OA
ATOM     30  O   UNL     1      -4.075   8.938   4.865  0.00  0.00    -0.246 OA
ENDBRANCH  25  28
ENDBRANCH  17  20
ENDBRANCH   3  16
BRANCH   1  32
ATOM     31  C   UNL     1      -0.111  10.961  -0.018  0.00  0.00    +0.029 C 
ATOM     32  C   UNL     1      -1.602  10.988  -0.358  0.00  0.00    +0.140 C 
ENDBRANCH   1  32
TORSDOF 6
