REMARK  Name = ZINC08767678
REMARK  6 active torsions:
REMARK  status: ('A' for Active; 'I' for Inactive)
REMARK    1  A    between atoms: C_1  and  C_2
REMARK    2  A    between atoms: C_2  and  O_3
REMARK    3  A    between atoms: O_3  and  C_4
REMARK    4  A    between atoms: C_7  and  N_10
REMARK    5  A    between atoms: C_11  and  C_13
REMARK    6  A    between atoms: C_14  and  N_32
REMARK                            x       y       z     vdW  Elec       q    Type
REMARK                         _______ _______ _______ _____ _____    ______ ____
ROOT
ATOM      1  C   UNL     1       1.772  -7.879  -3.113  0.00  0.00    +0.097 A 
ATOM      2  C   UNL     1       2.152  -8.537  -4.264  0.00  0.00    +0.054 A 
ATOM      3  C   UNL     1       1.936  -9.972  -4.342  0.00  0.00    +0.031 A 
ATOM      4  C   UNL     1       2.243 -10.852  -5.418  0.00  0.00    -0.030 A 
ATOM      5  C   UNL     1       1.968 -12.173  -5.296  0.00  0.00    -0.005 A 
ATOM      6  C   UNL     1       1.375 -12.658  -4.119  0.00  0.00    +0.103 A 
ATOM      7  N   UNL     1       1.086 -11.841  -3.121  0.00  0.00    -0.337 N 
ATOM      8  C   UNL     1       1.344 -10.553  -3.200  0.00  0.00    +0.089 A 
ATOM      9  S   UNL     1       1.115  -9.184  -2.092  0.00  0.00    -0.064 S 
ATOM     10  N   UNL     1       1.089 -14.010  -4.002  0.00  0.00    -0.312 N 
ATOM     11  C   UNL     1       2.108 -14.962  -3.532  0.00  0.00    +0.134 C 
ATOM     12  C   UNL     1       1.499 -15.803  -2.405  0.00  0.00    +0.178 C 
ATOM     13  O   UNL     1       0.263 -16.366  -2.852  0.00  0.00    -0.377 OA
ATOM     14  C   UNL     1      -0.737 -15.397  -3.178  0.00  0.00    +0.178 C 
ATOM     15  C   UNL     1      -0.244 -14.534  -4.340  0.00  0.00    +0.134 C 
ATOM     16  C   UNL     1       2.282 -13.170  -6.382  0.00  0.00    +0.039 C 
ATOM     17  C   UNL     1       2.499 -12.461  -7.717  0.00  0.00    +0.005 C 
ATOM     18  C   UNL     1       3.517 -11.333  -7.506  0.00  0.00    +0.005 C 
ATOM     19  C   UNL     1       2.861 -10.249  -6.650  0.00  0.00    +0.036 C 
ATOM     20  H   UNL     1       0.676 -12.196  -2.317  0.00  0.00    +0.168 HD
ENDROOT
BRANCH   1  22
ATOM     21  N   UNL     1       1.458  -6.035  -1.621  0.00  0.00    -0.281 N 
ATOM     22  C   UNL     1       1.882  -6.501  -2.812  0.00  0.00    +0.257 C 
ATOM     23  O   UNL     1       2.361  -5.736  -3.631  0.00  0.00    -0.269 OA
ATOM     24  H   UNL     1       1.147  -6.653  -0.942  0.00  0.00    +0.155 HD
BRANCH  21  28
ATOM     25  C   UNL     1       1.486  -1.937  -0.856  0.00  0.00    +0.121 A 
ATOM     26  C   UNL     1       1.720  -2.836   0.174  0.00  0.00    +0.047 A 
ATOM     27  C   UNL     1       1.711  -4.194  -0.078  0.00  0.00    +0.027 A 
ATOM     28  C   UNL     1       1.467  -4.659  -1.364  0.00  0.00    +0.034 A 
ATOM     29  C   UNL     1       1.233  -3.758  -2.394  0.00  0.00    +0.027 A 
ATOM     30  C   UNL     1       1.237  -2.401  -2.139  0.00  0.00    +0.047 A 
BRANCH  25  31
ATOM     31  O   UNL     1       1.494  -0.600  -0.606  0.00  0.00    -0.492 OA
BRANCH  31  33
ATOM     32  C   UNL     1       1.727   1.334   0.824  0.00  0.00    +0.048 C 
ATOM     33  C   UNL     1       1.758  -0.193   0.738  0.00  0.00    +0.225 C 
ENDBRANCH  31  33
ENDBRANCH  25  31
ENDBRANCH  21  28
ENDBRANCH   1  22
BRANCH   2  34
ATOM     34  N   UNL     1       2.726  -7.845  -5.322  0.00  0.00    -0.356 N 
ATOM     35  H   UNL     1       3.237  -7.038  -5.154  0.00  0.00    +0.142 HD
ATOM     36  H   UNL     1       2.616  -8.169  -6.230  0.00  0.00    +0.142 HD
ENDBRANCH   2  34
TORSDOF 5
