REMARK  Name = ZINC65482013
REMARK  11 active torsions:
REMARK  status: ('A' for Active; 'I' for Inactive)
REMARK    1  A    between atoms: C_1  and  C_2
REMARK    2  A    between atoms: C_2  and  N_3
REMARK    3  A    between atoms: N_3  and  C_4
REMARK    4  A    between atoms: N_3  and  C_6
REMARK    5  A    between atoms: C_4  and  C_5
REMARK    6  A    between atoms: C_6  and  C_7
REMARK    7  A    between atoms: C_6  and  C_23
REMARK    8  A    between atoms: C_7  and  N_8
REMARK    9  A    between atoms: N_11  and  N_12
REMARK   10  A    between atoms: N_15  and  C_16
REMARK   11  A    between atoms: C_21  and  C_22
REMARK                            x       y       z     vdW  Elec       q    Type
REMARK                         _______ _______ _______ _____ _____    ______ ____
ROOT
ATOM      1  N   UNL     1       1.266  -1.207   3.957  0.00  0.00    -0.299 N 
ATOM      2  C   UNL     1       1.980  -1.016   5.083  0.00  0.00    +0.316 C 
ATOM      3  O   UNL     1       3.081  -1.520   5.197  0.00  0.00    -0.251 OA
ATOM      4  N   UNL     1       1.475  -0.267   6.083  0.00  0.00    -0.217 N 
ATOM      5  H   UNL     1       0.388  -0.805   3.865  0.00  0.00    +0.150 HD
ATOM      6  H   UNL     1       1.990  -0.129   6.894  0.00  0.00    +0.174 HD
ENDROOT
BRANCH   4   7
ATOM      7  N   UNL     1       0.207   0.314   5.951  0.00  0.00    -0.217 N 
ATOM      8  C   UNL     1      -0.298   1.063   6.951  0.00  0.00    +0.320 C 
ATOM      9  O   UNL     1      -1.399   1.567   6.837  0.00  0.00    -0.251 OA
ATOM     10  N   UNL     1       0.416   1.254   8.078  0.00  0.00    -0.268 N 
ATOM     11  H   UNL     1      -0.308   0.177   5.141  0.00  0.00    +0.174 HD
ATOM     12  H   UNL     1       1.318   0.903   8.145  0.00  0.00    +0.156 HD
BRANCH  10  13
ATOM     13  C   UNL     1      -0.142   1.959   9.150  0.00  0.00    +0.038 A 
ATOM     14  C   UNL     1      -1.120   2.918   8.918  0.00  0.00    +0.023 A 
ATOM     15  C   UNL     1      -1.669   3.611   9.979  0.00  0.00    +0.002 A 
ATOM     16  C   UNL     1      -1.247   3.352  11.270  0.00  0.00    +0.000 A 
ATOM     17  C   UNL     1      -0.273   2.399  11.503  0.00  0.00    +0.005 A 
ATOM     18  C   UNL     1       0.276   1.697  10.448  0.00  0.00    -0.029 A 
ATOM     19  C   UNL     1       1.331   0.652  10.704  0.00  0.00    +0.045 C 
ENDBRANCH  10  13
ENDBRANCH   4   7
BRANCH   1  20
ATOM     20  C   UNL     1       1.815  -2.021   2.870  0.00  0.00    +0.098 C 
BRANCH  20  21
ATOM     21  C   UNL     1       0.869  -1.973   1.668  0.00  0.00    +0.016 C 
BRANCH  21  22
ATOM     22  C   UNL     1       1.487  -2.717   0.512  0.00  0.00    +0.093 A 
ATOM     23  C   UNL     1       1.078  -3.906   0.034  0.00  0.00    +0.043 A 
ATOM     24  C   UNL     1       1.934  -4.230  -1.044  0.00  0.00    +0.041 A 
ATOM     25  C   UNL     1       2.814  -3.220  -1.160  0.00  0.00    +0.195 A 
ATOM     26  O   UNL     1       2.535  -2.303  -0.218  0.00  0.00    -0.469 OA
ENDBRANCH  21  22
BRANCH  21  27
ATOM     27  N   UNL     1       0.639  -0.574   1.282  0.00  0.00    +0.387 N 
ATOM     28  H   UNL     1       0.177  -0.089   2.037  0.00  0.00    -0.081 HD
BRANCH  27  30
ATOM     29  C   UNL     1       1.703   1.568   0.758  0.00  0.00    -0.017 C 
ATOM     30  C   UNL     1       1.926   0.074   0.998  0.00  0.00    -0.081 C 
ENDBRANCH  27  30
BRANCH  27  31
ATOM     31  C   UNL     1      -0.207  -0.530   0.082  0.00  0.00    -0.081 C 
ATOM     32  C   UNL     1      -1.595  -1.080   0.416  0.00  0.00    -0.017 C 
ENDBRANCH  27  31
ENDBRANCH  21  27
ENDBRANCH  20  21
ENDBRANCH   1  20
TORSDOF 8
