REMARK  Name = ZINC03954132
REMARK  4 active torsions:
REMARK  status: ('A' for Active; 'I' for Inactive)
REMARK    1  A    between atoms: C_3  and  S_20
REMARK    2  A    between atoms: C_6  and  N_7
REMARK    3  A    between atoms: N_8  and  C_9
REMARK    4  A    between atoms: S_20  and  N_23
REMARK                            x       y       z     vdW  Elec       q    Type
REMARK                         _______ _______ _______ _____ _____    ______ ____
ROOT
ATOM      1  N   UNL     1       6.390   1.755  -0.051  0.00  0.00    -0.146 NA
ATOM      2  N   UNL     1       5.752   0.634  -0.051  0.00  0.00    -0.110 NA
ENDROOT
BRANCH   2   3
ATOM      3  C   UNL     1       4.392   0.626  -0.037  0.00  0.00    +0.250 A 
ATOM      4  N   UNL     1       3.606  -0.501  -0.036  0.00  0.00    -0.306 N 
ATOM      5  H   UNL     1       3.926  -1.449  -0.044  0.00  0.00    +0.170 HD
ATOM      6  C   UNL     1       2.300  -0.084  -0.021  0.00  0.00    +0.164 A 
ATOM      7  C   UNL     1       2.338   1.325  -0.013  0.00  0.00    +0.142 A 
ATOM      8  N   UNL     1       3.628   1.695  -0.024  0.00  0.00    -0.205 NA
ATOM      9  C   UNL     1       1.112   2.021   0.002  0.00  0.00    +0.138 A 
ATOM     10  N   UNL     1      -0.016   1.316   0.009  0.00  0.00    -0.226 NA
ATOM     11  C   UNL     1       0.002  -0.004   0.002  0.00  0.00    +0.224 A 
ATOM     12  N   UNL     1       1.122  -0.698  -0.013  0.00  0.00    -0.216 NA
ATOM     13  S   UNL     1       1.074   3.782   0.011  0.00  0.00    -0.028 SA
ENDBRANCH   2   3
BRANCH   1  19
ATOM     14  C   UNL     1       8.465   0.558  -0.072  0.00  0.00    +0.031 A 
ATOM     15  C   UNL     1       9.843   0.574  -0.092  0.00  0.00    +0.030 A 
ATOM     16  C   UNL     1      10.525   1.779  -0.091  0.00  0.00    +0.105 A 
ATOM     17  C   UNL     1       9.829   2.976  -0.077  0.00  0.00    +0.030 A 
ATOM     18  C   UNL     1       8.451   2.976  -0.064  0.00  0.00    +0.031 A 
ATOM     19  C   UNL     1       7.755   1.763  -0.064  0.00  0.00    +0.086 A 
BRANCH  16  20
ATOM     20  S   UNL     1      12.287   1.790  -0.110  0.00  0.00    +0.056 S 
ATOM     21  O   UNL     1      12.694   0.550  -0.672  0.00  0.00    -0.153 OA
ATOM     22  O   UNL     1      12.680   3.040  -0.657  0.00  0.00    -0.153 OA
BRANCH  20  23
ATOM     23  N   UNL     1      12.793   1.783   1.467  0.00  0.00    -0.204 NA
ATOM     24  H   UNL     1      13.636   1.367   1.704  0.00  0.00    +0.144 HD
ATOM     25  H   UNL     1      12.246   2.196   2.154  0.00  0.00    +0.144 HD
ENDBRANCH  20  23
ENDBRANCH  16  20
ENDBRANCH   1  19
TORSDOF 4
