REMARK  Name = ZINC43760903
REMARK  8 active torsions:
REMARK  status: ('A' for Active; 'I' for Inactive)
REMARK    1  A    between atoms: C_1  and  C_2
REMARK    2  A    between atoms: C_2  and  C_8
REMARK    3  A    between atoms: N_3  and  N_4
REMARK    4  A    between atoms: C_14  and  C_35
REMARK    5  A    between atoms: N_26  and  N_27
REMARK    6  A    between atoms: C_33  and  C_34
REMARK    7  A    between atoms: C_37  and  C_39
REMARK    8  A    between atoms: C_37  and  C_40
REMARK                            x       y       z     vdW  Elec       q    Type
REMARK                         _______ _______ _______ _____ _____    ______ ____
ROOT
ATOM      1  C   UNL     1      -0.135  -0.549  -1.377  0.00  0.00    +0.143 C 
ATOM      2  C   UNL     1      -1.563  -0.225  -1.959  0.00  0.00    +0.160 C 
ATOM      3  C   UNL     1      -2.419  -1.015  -0.981  0.00  0.00    +0.039 C 
ATOM      4  C   UNL     1      -1.637  -2.356  -0.931  0.00  0.00    +0.004 C 
ATOM      5  C   UNL     1      -0.176  -2.053  -1.211  0.00  0.00    +0.008 C 
ATOM      6  C   UNL     1       0.836  -2.471  -0.166  0.00  0.00    +0.010 C 
ATOM      7  C   UNL     1       0.357  -3.596   0.741  0.00  0.00    +0.005 C 
ATOM      8  C   UNL     1      -0.973  -3.149   1.354  0.00  0.00    +0.002 C 
ATOM      9  C   UNL     1      -2.007  -3.206   0.243  0.00  0.00    -0.003 C 
ATOM     10  C   UNL     1      -2.184  -4.660  -0.204  0.00  0.00    +0.008 C 
ATOM     11  C   UNL     1      -2.749  -5.507   0.919  0.00  0.00    +0.031 C 
ATOM     12  C   UNL     1      -2.240  -5.120   2.266  0.00  0.00    -0.062 C 
ATOM     13  C   UNL     1      -2.618  -5.861   3.335  0.00  0.00    +0.024 C 
ATOM     14  C   UNL     1      -2.067  -5.379   4.625  0.00  0.00    +0.059 C 
ATOM     15  N   UNL     1      -1.491  -6.186   5.465  0.00  0.00    -0.184 NA
ATOM     16  C   UNL     1      -2.208  -3.902   4.912  0.00  0.00    +0.058 C 
ATOM     17  C   UNL     1      -1.864  -3.091   3.664  0.00  0.00    +0.017 C 
ATOM     18  C   UNL     1      -1.354  -3.984   2.551  0.00  0.00    -0.007 C 
ATOM     19  C   UNL     1      -0.061  -4.599   3.090  0.00  0.00    +0.016 C 
ATOM     20  C   UNL     1       0.211  -2.707  -2.539  0.00  0.00    +0.015 C 
ATOM     21  O   UNL     1      -1.452   1.181  -1.976  0.00  0.00    -0.343 OA
ATOM     22  C   UNL     1      -0.120   1.375  -2.542  0.00  0.00    +0.166 C 
ATOM     23  O   UNL     1       0.662   0.195  -2.243  0.00  0.00    -0.334 OA
ATOM     24  C   UNL     1      -0.222   1.558  -4.057  0.00  0.00    +0.074 C 
ATOM     25  C   UNL     1       0.536   2.607  -1.914  0.00  0.00    +0.074 C 
ENDROOT
BRANCH  15  26
ATOM     26  N   UNL     1      -1.379  -7.549   5.162  0.00  0.00    -0.191 N 
ATOM     27  C   UNL     1      -0.782  -8.386   6.034  0.00  0.00    +0.317 C 
ATOM     28  O   UNL     1      -0.685  -9.569   5.771  0.00  0.00    -0.251 OA
ATOM     29  N   UNL     1      -0.292  -7.911   7.196  0.00  0.00    -0.312 N 
ATOM     30  H   UNL     1      -1.732  -7.891   4.326  0.00  0.00    +0.179 HD
ATOM     31  H   UNL     1      -0.370  -6.967   7.406  0.00  0.00    +0.147 HD
ATOM     32  H   UNL     1       0.138  -8.514   7.824  0.00  0.00    +0.147 HD
ENDBRANCH  15  26
BRANCH   1  34
ATOM     33  C   UNL     1       1.284   0.387   0.604  0.00  0.00    +0.065 C 
ATOM     34  C   UNL     1      -0.058   0.076  -0.008  0.00  0.00    +0.069 C 
ATOM     35  N   UNL     1      -1.131   0.344   0.635  0.00  0.00    -0.185 NA
BRANCH  35  36
ATOM     36  N   UNL     1      -1.064   1.015   1.863  0.00  0.00    -0.191 N 
ATOM     37  C   UNL     1      -2.197   1.391   2.489  0.00  0.00    +0.317 C 
ATOM     38  O   UNL     1      -2.138   2.053   3.507  0.00  0.00    -0.251 OA
ATOM     39  N   UNL     1      -3.395   1.033   1.986  0.00  0.00    -0.312 N 
ATOM     40  H   UNL     1      -0.202   1.210   2.262  0.00  0.00    +0.179 HD
ATOM     41  H   UNL     1      -3.442   0.445   1.216  0.00  0.00    +0.147 HD
ATOM     42  H   UNL     1      -4.210   1.363   2.394  0.00  0.00    +0.147 HD
ENDBRANCH  35  36
ENDBRANCH   1  34
TORSDOF 3
