REMARK  Name = ZINC35524085
REMARK  6 active torsions:
REMARK  status: ('A' for Active; 'I' for Inactive)
REMARK    1  A    between atoms: C_1  and  C_2
REMARK    2  A    between atoms: C_11  and  N_19
REMARK    3  A    between atoms: C_13  and  C_15
REMARK    4  A    between atoms: C_15  and  N_16
REMARK    5  A    between atoms: N_16  and  C_17
REMARK    6  A    between atoms: N_16  and  C_18
REMARK                            x       y       z     vdW  Elec       q    Type
REMARK                         _______ _______ _______ _____ _____    ______ ____
ROOT
ATOM      1  C   UNL     1       0.030   1.511  -0.046  0.00  0.00    +0.008 C 
ATOM      2  C   UNL     1       0.039  -0.019  -0.043  0.00  0.00    -0.009 C 
ATOM      3  C   UNL     1      -1.400  -0.542  -0.015  0.00  0.00    +0.008 C 
ATOM      4  C   UNL     1      -1.409  -2.051  -0.260  0.00  0.00    +0.037 C 
ATOM      5  C   UNL     1      -0.452  -2.717   0.725  0.00  0.00    -0.025 A 
ATOM      6  C   UNL     1       0.501  -1.993   1.353  0.00  0.00    -0.004 A 
ATOM      7  S   UNL     1       1.365  -3.152   2.385  0.00  0.00    -0.073 S 
ATOM      8  C   UNL     1       0.449  -4.603   1.976  0.00  0.00    +0.114 A 
ATOM      9  C   UNL     1      -0.508  -4.135   1.040  0.00  0.00    +0.051 A 
ATOM     10  C   UNL     1      -1.416  -5.098   0.513  0.00  0.00    +0.133 A 
ATOM     11  N   UNL     1      -1.265  -6.343   0.961  0.00  0.00    -0.219 NA
ATOM     12  C   UNL     1      -0.348  -6.705   1.835  0.00  0.00    +0.116 A 
ATOM     13  N   UNL     1       0.528  -5.859   2.364  0.00  0.00    -0.227 NA
ATOM     14  C   UNL     1       0.773  -0.527   1.206  0.00  0.00    +0.046 C 
ENDROOT
BRANCH  10  15
ATOM     15  N   UNL     1      -2.393  -4.761  -0.406  0.00  0.00    -0.318 N 
ATOM     16  C   UNL     1      -2.092  -4.704  -1.844  0.00  0.00    +0.087 C 
ATOM     17  C   UNL     1      -3.147  -5.525  -2.594  0.00  0.00    -0.063 C 
ATOM     18  N   UNL     1      -4.486  -5.042  -2.236  0.00  0.00    +0.381 N 
ATOM     19  C   UNL     1      -4.740  -5.281  -0.810  0.00  0.00    -0.063 C 
ATOM     20  C   UNL     1      -3.765  -4.455   0.028  0.00  0.00    +0.087 C 
ATOM     21  H   UNL     1      -4.548  -4.052  -2.426  0.00  0.00    -0.086 HD
ATOM     22  H   UNL     1      -5.177  -5.530  -2.786  0.00  0.00    -0.086 HD
ENDBRANCH  10  15
BRANCH  12  23
ATOM     23  C   UNL     1      -0.290  -8.152   2.255  0.00  0.00    -0.002 C 
BRANCH  23  24
ATOM     24  N   UNL     1       0.610  -8.887   1.356  0.00  0.00    +0.381 N 
ATOM     25  C   UNL     1       0.760 -10.267   1.836  0.00  0.00    -0.096 C 
ATOM     26  C   UNL     1       0.046  -8.898  -0.000  0.00  0.00    -0.096 C 
ATOM     27  H   UNL     1       1.513  -8.436   1.342  0.00  0.00    -0.082 HD
ENDBRANCH  23  24
ENDBRANCH  12  23
TORSDOF 3
