REMARK  Name = ZINC20528647
REMARK  8 active torsions:
REMARK  status: ('A' for Active; 'I' for Inactive)
REMARK    1  A    between atoms: C_1  and  C_2
REMARK    2  A    between atoms: C_5  and  C_16
REMARK    3  A    between atoms: C_5  and  C_31
REMARK    4  A    between atoms: C_6  and  C_9
REMARK    5  A    between atoms: N_18  and  N_19
REMARK    6  A    between atoms: C_20  and  C_21
REMARK    7  A    between atoms: C_24  and  C_28
REMARK    8  A    between atoms: C_24  and  C_29
REMARK                            x       y       z     vdW  Elec       q    Type
REMARK                         _______ _______ _______ _____ _____    ______ ____
ROOT
ATOM      1  C   UNL     1       0.178   1.416   0.084  0.00  0.00    +0.039 C 
ATOM      2  C   UNL     1       0.084  -0.088   0.046  0.00  0.00    -0.076 C 
ATOM      3  C   UNL     1      -0.086  -0.657  -1.104  0.00  0.00    -0.026 C 
ATOM      4  C   UNL     1      -0.208  -2.139  -1.298  0.00  0.00    +0.055 C 
ATOM      5  C   UNL     1       0.312  -2.878  -0.063  0.00  0.00    +0.159 C 
ATOM      6  C   UNL     1      -0.337  -2.258   1.181  0.00  0.00    +0.049 C 
ATOM      7  C   UNL     1       0.200  -0.833   1.344  0.00  0.00    +0.040 C 
ENDROOT
BRANCH   6   8
ATOM      8  C   UNL     1       0.015  -3.077   2.397  0.00  0.00    -0.042 A 
ATOM      9  C   UNL     1       1.298  -3.037   2.909  0.00  0.00    +0.005 A 
ATOM     10  C   UNL     1       1.621  -3.788   4.023  0.00  0.00    +0.020 A 
ATOM     11  C   UNL     1       0.660  -4.579   4.627  0.00  0.00    +0.041 A 
ATOM     12  C   UNL     1      -0.624  -4.618   4.114  0.00  0.00    +0.020 A 
ATOM     13  C   UNL     1      -0.948  -3.863   3.002  0.00  0.00    +0.005 A 
ATOM     14 CL   UNL     1       1.065  -5.523   6.026  0.00  0.00    -0.084 Cl
ENDBRANCH   6   8
BRANCH   5  15
ATOM     15  C   UNL     1       1.809  -2.733   0.020  0.00  0.00    +0.250 C 
ATOM     16  O   UNL     1       2.364  -1.822  -0.558  0.00  0.00    -0.273 OA
ATOM     17  N   UNL     1       2.533  -3.615   0.738  0.00  0.00    -0.206 N 
ATOM     18  H   UNL     1       2.089  -4.343   1.201  0.00  0.00    +0.177 HD
BRANCH  17  19
ATOM     19  N   UNL     1       3.925  -3.480   0.816  0.00  0.00    -0.187 NA
ATOM     20  C   UNL     1       4.622  -4.330   1.507  0.00  0.00    +0.145 C 
BRANCH  20  21
ATOM     21  C   UNL     1       6.087  -4.188   1.589  0.00  0.00    +0.079 C 
ATOM     22  C   UNL     1       6.710  -3.134   0.924  0.00  0.00    +0.169 C 
ATOM     23  C   UNL     1       8.205  -2.962   0.990  0.00  0.00    +0.086 C 
ATOM     24  C   UNL     1       8.866  -4.331   1.164  0.00  0.00    -0.021 C 
ATOM     25  C   UNL     1       8.320  -4.991   2.433  0.00  0.00    +0.086 C 
ATOM     26  C   UNL     1       6.822  -5.107   2.334  0.00  0.00    +0.169 C 
ATOM     27  O   UNL     1       6.246  -6.018   2.909  0.00  0.00    -0.292 OA
ATOM     28  C   UNL     1      10.381  -4.156   1.289  0.00  0.00    +0.012 C 
ATOM     29  C   UNL     1       8.549  -5.211  -0.047  0.00  0.00    +0.012 C 
ATOM     30  O   UNL     1       6.037  -2.343   0.281  0.00  0.00    -0.292 OA
ENDBRANCH  20  21
ENDBRANCH  17  19
ENDBRANCH   5  15
BRANCH   5  31
ATOM     31  C   UNL     1      -0.056  -4.337  -0.153  0.00  0.00    +0.372 C 
ATOM     32  O   UNL     1       0.345  -5.010  -1.087  0.00  0.00    -0.245 OA
ATOM     33  O   UNL     1      -0.755  -4.843   0.708  0.00  0.00    -0.245 OA
ENDBRANCH   5  31
TORSDOF 5
