REMARK  Name = ZINC09391405
REMARK  9 active torsions:
REMARK  status: ('A' for Active; 'I' for Inactive)
REMARK    1  A    between atoms: C_1  and  C_2
REMARK    2  A    between atoms: C_4  and  C_34
REMARK    3  A    between atoms: N_10  and  C_11
REMARK    4  A    between atoms: C_11  and  C_13
REMARK    5  A    between atoms: C_16  and  S_19
REMARK    6  A    between atoms: S_19  and  N_22
REMARK    7  A    between atoms: C_24  and  C_31
REMARK    8  A    between atoms: C_27  and  C_30
REMARK    9  A    between atoms: N_32  and  C_33
REMARK                            x       y       z     vdW  Elec       q    Type
REMARK                         _______ _______ _______ _____ _____    ______ ____
ROOT
ATOM      1  C   UNL     1      -5.933   5.165   0.627  0.00  0.00    +0.039 A 
ATOM      2  C   UNL     1      -5.875   6.543   0.836  0.00  0.00    +0.015 A 
ATOM      3  C   UNL     1      -7.043   7.272   0.933  0.00  0.00    +0.029 A 
ATOM      4  C   UNL     1      -8.268   6.638   0.833  0.00  0.00    +0.106 A 
ATOM      5  C   UNL     1      -8.332   5.271   0.631  0.00  0.00    +0.029 A 
ATOM      6  C   UNL     1      -7.172   4.532   0.527  0.00  0.00    +0.015 A 
ENDROOT
BRANCH   4   7
ATOM      7  S   UNL     1      -9.754   7.576   0.964  0.00  0.00    +0.061 S 
ATOM      8  O   UNL     1      -9.425   8.911   0.607  0.00  0.00    -0.153 OA
ATOM      9  O   UNL     1     -10.763   6.834   0.293  0.00  0.00    -0.153 OA
BRANCH   7  10
ATOM     10  N   UNL     1     -10.175   7.605   2.566  0.00  0.00    -0.172 NA
ATOM     11  C   UNL     1     -11.050   6.570   3.138  0.00  0.00    +0.140 C 
ATOM     12  C   UNL     1     -10.375   6.017   4.403  0.00  0.00    +0.131 C 
ATOM     13  O   UNL     1     -10.032   7.105   5.265  0.00  0.00    -0.371 OA
ATOM     14  C   UNL     1      -9.085   8.018   4.705  0.00  0.00    +0.131 C 
ATOM     15  C   UNL     1      -9.690   8.671   3.457  0.00  0.00    +0.140 C 
ATOM     16  C   UNL     1      -7.811   7.263   4.321  0.00  0.00    +0.039 C 
ATOM     17  C   UNL     1     -11.341   5.077   5.127  0.00  0.00    +0.039 C 
ENDBRANCH   7  10
ENDBRANCH   4   7
BRANCH   1  18
ATOM     18  C   UNL     1      -4.684   4.377   0.517  0.00  0.00    +0.269 C 
ATOM     19  O   UNL     1      -4.737   3.172   0.339  0.00  0.00    -0.268 OA
BRANCH  18  29
ATOM     20  C   UNL     1       1.528   5.069  -5.234  0.00  0.00    +0.044 C 
ATOM     21  C   UNL     1       0.326   4.953  -4.333  0.00  0.00    -0.049 A 
ATOM     22  C   UNL     1      -0.898   4.556  -4.845  0.00  0.00    +0.008 A 
ATOM     23  C   UNL     1      -2.007   4.450  -4.040  0.00  0.00    -0.026 A 
ATOM     24  C   UNL     1      -1.927   4.730  -2.667  0.00  0.00    +0.060 A 
ATOM     25  C   UNL     1      -0.675   5.130  -2.177  0.00  0.00    +0.039 A 
ATOM     26  C   UNL     1       0.432   5.241  -2.984  0.00  0.00    +0.020 A 
ATOM     27  S   UNL     1      -0.979   5.392  -0.448  0.00  0.00    -0.052 S 
ATOM     28  C   UNL     1      -2.666   4.987  -0.423  0.00  0.00    +0.166 A 
ATOM     29  N   UNL     1      -3.498   4.987   0.613  0.00  0.00    -0.152 NA
ATOM     30  N   UNL     1      -2.931   4.671  -1.719  0.00  0.00    -0.324 N 
ATOM     31  C   UNL     1      -4.284   4.266  -2.111  0.00  0.00    +0.151 C 
ATOM     32  C   UNL     1      -3.322   4.021  -4.637  0.00  0.00    +0.046 C 
ENDBRANCH  18  29
ENDBRANCH   1  18
TORSDOF 4
