REMARK  Name = ZINC39450116
REMARK  5 active torsions:
REMARK  status: ('A' for Active; 'I' for Inactive)
REMARK    1  A    between atoms: C_1  and  S_2
REMARK    2  A    between atoms: S_2  and  C_3
REMARK    3  A    between atoms: N_19  and  S_20
REMARK    4  A    between atoms: S_20  and  O_23
REMARK    5  A    between atoms: O_23  and  C_24
REMARK                            x       y       z     vdW  Elec       q    Type
REMARK                         _______ _______ _______ _____ _____    ______ ____
ROOT
ATOM      1  C   UNL     1      -2.065  -0.583  -0.004  0.00  0.00    +0.136 C 
ATOM      2  C   UNL     1      -2.299  -1.747  -0.973  0.00  0.00    +0.114 C 
ATOM      3  C   UNL     1      -1.523  -2.950  -0.504  0.00  0.00    +0.186 C 
ATOM      4  O   UNL     1      -1.117  -3.757  -1.316  0.00  0.00    -0.290 OA
ATOM      5  C   UNL     1      -1.264  -3.150   0.872  0.00  0.00    +0.137 A 
ATOM      6  C   UNL     1      -1.675  -2.203   1.792  0.00  0.00    +0.084 A 
ATOM      7  C   UNL     1      -1.412  -2.414   3.222  0.00  0.00    +0.099 A 
ATOM      8  C   UNL     1      -0.731  -3.588   3.608  0.00  0.00    +0.069 A 
ATOM      9  C   UNL     1      -0.468  -3.810   4.961  0.00  0.00    +0.032 A 
ATOM     10  C   UNL     1      -0.894  -2.856   5.870  0.00  0.00    +0.037 A 
ATOM     11  C   UNL     1      -1.559  -1.724   5.416  0.00  0.00    +0.126 A 
ATOM     12  N   UNL     1      -1.798  -1.534   4.136  0.00  0.00    -0.252 NA
ATOM     13 BR   UNL     1      -0.572  -3.092   7.718  0.00  0.00    -0.049 Br
ATOM     14  C   UNL     1      -0.317  -4.544   2.572  0.00  0.00    +0.283 A 
ATOM     15  O   UNL     1       0.273  -5.562   2.883  0.00  0.00    -0.265 OA
ATOM     16  N   UNL     1      -0.592  -4.295   1.278  0.00  0.00    -0.141 N 
ATOM     17  N   UNL     1      -2.325  -1.061   1.363  0.00  0.00    -0.328 N 
ATOM     18  H   UNL     1      -2.938  -0.587   1.947  0.00  0.00    +0.147 HD
ENDROOT
BRANCH  16  19
ATOM     19  S   UNL     1      -0.112  -5.390   0.133  0.00  0.00    +0.224 S 
ATOM     20  O   UNL     1       0.662  -6.372   0.809  0.00  0.00    -0.113 OA
ATOM     21  O   UNL     1      -1.268  -5.720  -0.624  0.00  0.00    -0.113 OA
BRANCH  19  22
ATOM     22  O   UNL     1       0.836  -4.666  -0.813  0.00  0.00    -0.329 OA
BRANCH  22  23
ATOM     23  C   UNL     1       2.073  -4.447  -0.296  0.00  0.00    +0.158 A 
ATOM     24  C   UNL     1       2.335  -3.283   0.411  0.00  0.00    +0.048 A 
ATOM     25  C   UNL     1       3.594  -3.063   0.936  0.00  0.00    +0.004 A 
ATOM     26  C   UNL     1       4.592  -4.002   0.757  0.00  0.00    +0.000 A 
ATOM     27  C   UNL     1       4.334  -5.163   0.052  0.00  0.00    +0.004 A 
ATOM     28  C   UNL     1       3.075  -5.391  -0.470  0.00  0.00    +0.048 A 
ENDBRANCH  22  23
ENDBRANCH  19  22
ENDBRANCH  16  19
BRANCH   1  30
ATOM     29  C   UNL     1      -0.486   1.795  -0.169  0.00  0.00    +0.086 C 
ATOM     30  S   UNL     1      -0.347  -0.013  -0.136  0.00  0.00    -0.142 S 
ENDBRANCH   1  30
TORSDOF 4
