REMARK  Name = ZINC39272630
REMARK  9 active torsions:
REMARK  status: ('A' for Active; 'I' for Inactive)
REMARK    1  A    between atoms: C_1  and  C_2
REMARK    2  A    between atoms: C_4  and  C_31
REMARK    3  A    between atoms: C_9  and  C_14
REMARK    4  A    between atoms: C_11  and  N_13
REMARK    5  A    between atoms: C_14  and  N_16
REMARK    6  A    between atoms: C_23  and  N_27
REMARK    7  A    between atoms: C_28  and  C_30
REMARK    8  A    between atoms: C_31  and  O_32
REMARK    9  A    between atoms: O_32  and  C_33
REMARK                            x       y       z     vdW  Elec       q    Type
REMARK                         _______ _______ _______ _____ _____    ______ ____
ROOT
ATOM      1  C   UNL     1      -0.466  -5.105   1.527  0.00  0.00    +0.254 C 
ATOM      2  O   UNL     1      -0.018  -6.225   1.371  0.00  0.00    -0.272 OA
ENDROOT
BRANCH   1   3
ATOM      3  N   UNL     1      -1.631  -4.936   2.144  0.00  0.00    -0.156 NA
ATOM      4  C   UNL     1      -2.307  -5.993   2.591  0.00  0.00    +0.164 A 
ATOM      5  N   UNL     1      -3.503  -6.005   3.232  0.00  0.00    -0.335 N 
ATOM      6  H   UNL     1      -3.966  -5.172   3.413  0.00  0.00    +0.168 HD
ATOM      7  C   UNL     1      -4.060  -7.208   3.625  0.00  0.00    +0.055 A 
ATOM      8  C   UNL     1      -5.270  -7.446   4.292  0.00  0.00    +0.028 A 
ATOM      9  C   UNL     1      -5.660  -8.727   4.604  0.00  0.00    +0.025 A 
ATOM     10  C   UNL     1      -4.870  -9.821   4.267  0.00  0.00    +0.035 A 
ATOM     11  C   UNL     1      -3.667  -9.609   3.605  0.00  0.00    +0.040 A 
ATOM     12  C   UNL     1      -3.281  -8.327   3.296  0.00  0.00    +0.040 A 
ATOM     13  S   UNL     1      -1.876  -7.614   2.481  0.00  0.00    -0.052 S 
BRANCH  10  14
ATOM     14  N   UNL     1      -5.282 -11.120   4.592  0.00  0.00    -0.286 N 
ATOM     15  C   UNL     1      -6.590 -11.440   4.557  0.00  0.00    +0.214 C 
ATOM     16  O   UNL     1      -7.418 -10.585   4.323  0.00  0.00    -0.276 OA
ATOM     17  C   UNL     1      -7.024 -12.861   4.807  0.00  0.00    +0.109 C 
ATOM     18  H   UNL     1      -4.625 -11.788   4.842  0.00  0.00    +0.155 HD
ENDBRANCH  10  14
ENDBRANCH   1   3
BRANCH   1  27
ATOM     19  C   UNL     1      -0.152   2.276  -0.509  0.00  0.00    +0.065 C 
ATOM     20  C   UNL     1      -0.146   0.770  -0.535  0.00  0.00    +0.040 A 
ATOM     21  C   UNL     1      -0.124   0.100  -1.742  0.00  0.00    +0.029 A 
ATOM     22  C   UNL     1      -0.128  -1.283  -1.763  0.00  0.00    -0.013 A 
ATOM     23  C   UNL     1      -0.151  -1.989  -0.557  0.00  0.00    +0.008 A 
ATOM     24  C   UNL     1      -0.157  -1.229   0.613  0.00  0.00    +0.103 A 
ATOM     25  N   UNL     1      -0.158   0.089   0.597  0.00  0.00    -0.245 NA
ATOM     26  S   UNL     1      -0.134  -2.389   1.963  0.00  0.00    -0.091 S 
ATOM     27  C   UNL     1       0.299  -3.910   1.022  0.00  0.00    +0.162 C 
ATOM     28  C   UNL     1      -0.179  -3.486  -0.385  0.00  0.00    +0.107 C 
BRANCH  28  29
ATOM     29  N   UNL     1      -1.553  -3.966  -0.589  0.00  0.00    -0.322 NA
ATOM     30  H   UNL     1      -1.621  -4.956  -0.406  0.00  0.00    +0.119 HD
ATOM     31  H   UNL     1      -2.205  -3.448  -0.019  0.00  0.00    +0.119 HD
ENDBRANCH  28  29
BRANCH  22  32
ATOM     32  C   UNL     1      -0.107  -2.023  -3.076  0.00  0.00    +0.195 C 
BRANCH  32  33
ATOM     33  O   UNL     1      -0.086  -1.083  -4.152  0.00  0.00    -0.378 OA
ATOM     34  C   UNL     1      -0.066  -1.684  -5.448  0.00  0.00    +0.194 C 
ENDBRANCH  32  33
ENDBRANCH  22  32
ENDBRANCH   1  27
TORSDOF 6
