REMARK  Name = ZINC59008505
REMARK  5 active torsions:
REMARK  status: ('A' for Active; 'I' for Inactive)
REMARK    1  A    between atoms: C_1  and  C_2
REMARK    2  A    between atoms: C_2  and  C_18
REMARK    3  A    between atoms: N_5  and  C_9
REMARK    4  A    between atoms: C_9  and  C_10
REMARK    5  A    between atoms: C_21  and  N_24
REMARK                            x       y       z     vdW  Elec       q    Type
REMARK                         _______ _______ _______ _____ _____    ______ ____
ROOT
ATOM      1  C   UNL     1      -0.019   1.526   0.010  0.00  0.00    +0.047 C 
ATOM      2  C   UNL     1       0.002  -0.004   0.002  0.00  0.00    +0.135 C 
ATOM      3  C   UNL     1       0.815  -0.520  -1.169  0.00  0.00    +0.251 C 
ATOM      4  O   UNL     1       0.595  -0.342  -2.348  0.00  0.00    -0.272 OA
ATOM      5  N   UNL     1       1.833  -1.217  -0.627  0.00  0.00    -0.220 N 
ATOM      6  C   UNL     1       1.777  -1.214   0.710  0.00  0.00    +0.310 C 
ATOM      7  O   UNL     1       2.586  -1.776   1.421  0.00  0.00    -0.252 OA
ATOM      8  N   UNL     1       0.724  -0.519   1.178  0.00  0.00    -0.281 N 
ATOM      9  H   UNL     1       0.487  -0.383   2.109  0.00  0.00    +0.152 HD
ENDROOT
BRANCH   2  10
ATOM     10  C   UNL     1      -1.401  -0.551  -0.040  0.00  0.00    -0.015 A 
ATOM     11  C   UNL     1      -2.005  -0.815  -1.256  0.00  0.00    +0.008 A 
ATOM     12  C   UNL     1      -3.292  -1.317  -1.294  0.00  0.00    +0.033 A 
ATOM     13  C   UNL     1      -3.976  -1.556  -0.117  0.00  0.00    +0.126 A 
ATOM     14  C   UNL     1      -3.372  -1.294   1.099  0.00  0.00    +0.033 A 
ATOM     15  C   UNL     1      -2.083  -0.796   1.137  0.00  0.00    +0.008 A 
BRANCH  13  16
ATOM     16  N   UNL     1      -5.355  -2.093  -0.158  0.00  0.00    +0.056 N 
ATOM     17  O   UNL     1      -5.883  -2.322  -1.221  0.00  0.00    -0.126 OA
ATOM     18  O   UNL     1      -5.953  -2.303   0.871  0.00  0.00    -0.126 OA
ENDBRANCH  13  16
ENDBRANCH   2  10
BRANCH   5  19
ATOM     19  C   UNL     1       2.871  -1.896  -1.406  0.00  0.00    +0.153 C 
BRANCH  19  20
ATOM     20  C   UNL     1       4.020  -0.950  -1.644  0.00  0.00    -0.028 A 
ATOM     21  C   UNL     1       4.027  -0.140  -2.764  0.00  0.00    +0.008 A 
ATOM     22  C   UNL     1       5.079   0.729  -2.983  0.00  0.00    +0.040 A 
ATOM     23  C   UNL     1       6.127   0.788  -2.081  0.00  0.00    +0.137 A 
ATOM     24  C   UNL     1       6.120  -0.024  -0.958  0.00  0.00    +0.053 A 
ATOM     25  C   UNL     1       5.063  -0.889  -0.739  0.00  0.00    +0.023 A 
ATOM     26 BR   UNL     1       7.550   0.055   0.276  0.00  0.00    -0.047 Br
ATOM     27  F   UNL     1       7.156   1.636  -2.294  0.00  0.00    -0.204 F 
ENDBRANCH  19  20
ENDBRANCH   5  19
TORSDOF 4
