REMARK  Name = ZINC35417302
REMARK  20 active torsions:
REMARK  status: ('A' for Active; 'I' for Inactive)
REMARK    1  A    between atoms: C_1  and  C_2
REMARK    2  A    between atoms: C_2  and  N_3
REMARK    3  A    between atoms: N_3  and  C_4
REMARK    4  A    between atoms: N_3  and  C_6
REMARK    5  A    between atoms: C_4  and  C_5
REMARK    6  A    between atoms: C_6  and  C_7
REMARK    7  A    between atoms: C_7  and  C_8
REMARK    8  A    between atoms: C_8  and  C_9
REMARK    9  A    between atoms: C_9  and  C_11
REMARK   10  A    between atoms: C_9  and  N_12
REMARK   11  A    between atoms: C_13  and  O_25
REMARK   12  A    between atoms: N_14  and  C_15
REMARK   13  A    between atoms: C_15  and  C_17
REMARK   14  A    between atoms: C_20  and  O_23
REMARK   15  A    between atoms: O_23  and  C_24
REMARK   16  A    between atoms: O_25  and  C_26
REMARK   17  A    between atoms: C_26  and  C_27
REMARK   18  A    between atoms: C_27  and  O_28
REMARK   19  A    between atoms: O_28  and  C_29
REMARK   20  A    between atoms: C_29  and  C_30
REMARK                            x       y       z     vdW  Elec       q    Type
REMARK                         _______ _______ _______ _____ _____    ______ ____
ROOT
ATOM      1  N   UNL     1      -5.723  -2.255  -0.532  0.00  0.00    -0.299 N 
ATOM      2  C   UNL     1      -6.778  -2.882   0.056  0.00  0.00    +0.274 C 
ATOM      3  N   UNL     1      -7.474  -2.265   0.994  0.00  0.00    -0.127 NA
ATOM      4  H   UNL     1      -5.877  -1.538  -1.168  0.00  0.00    +0.150 HD
ENDROOT
BRANCH   1   5
ATOM      5  C   UNL     1      -4.354  -2.661  -0.205  0.00  0.00    +0.071 C 
ATOM      6  C   UNL     1      -4.222  -2.836   1.309  0.00  0.00    +0.028 C 
BRANCH   5   7
ATOM      7  C   UNL     1      -3.375  -1.586  -0.681  0.00  0.00    +0.020 C 
BRANCH   7   8
ATOM      8  C   UNL     1      -3.417  -1.498  -2.208  0.00  0.00    -0.017 C 
BRANCH   8   9
ATOM      9  C   UNL     1      -2.439  -0.422  -2.684  0.00  0.00    -0.079 C 
BRANCH   9  10
ATOM     10  N   UNL     1      -2.379  -0.430  -4.152  0.00  0.00    +0.379 N 
ATOM     11  H   UNL     1      -2.151  -1.358  -4.475  0.00  0.00    -0.082 HD
BRANCH  10  13
ATOM     12  C   UNL     1      -3.659  -0.156  -6.222  0.00  0.00    -0.017 C 
ATOM     13  C   UNL     1      -3.683  -0.028  -4.697  0.00  0.00    -0.082 C 
ENDBRANCH  10  13
BRANCH  10  14
ATOM     14  C   UNL     1      -1.348   0.513  -4.605  0.00  0.00    -0.082 C 
ATOM     15  C   UNL     1       0.033  -0.007  -4.198  0.00  0.00    -0.017 C 
ENDBRANCH  10  14
ENDBRANCH   9  10
ENDBRANCH   8   9
ENDBRANCH   7   8
ENDBRANCH   5   7
ENDBRANCH   1   5
BRANCH   3  16
ATOM     16  C   UNL     1      -8.434  -2.925   1.661  0.00  0.00    +0.271 C 
ATOM     17  O   UNL     1      -8.594  -4.118   1.476  0.00  0.00    -0.268 OA
BRANCH  16  18
ATOM     18  C   UNL     1      -9.296  -2.204   2.622  0.00  0.00    +0.039 A 
ATOM     19  C   UNL     1      -9.117  -0.835   2.832  0.00  0.00    +0.017 A 
ATOM     20  C   UNL     1      -9.922  -0.166   3.728  0.00  0.00    +0.046 A 
ATOM     21  C   UNL     1     -10.911  -0.852   4.423  0.00  0.00    +0.120 A 
ATOM     22  C   UNL     1     -11.092  -2.215   4.216  0.00  0.00    +0.046 A 
ATOM     23  C   UNL     1     -10.294  -2.889   3.317  0.00  0.00    +0.017 A 
BRANCH  21  24
ATOM     24  O   UNL     1     -11.702  -0.191   5.305  0.00  0.00    -0.495 OA
ATOM     25  C   UNL     1     -12.698  -0.957   5.985  0.00  0.00    +0.277 C 
ENDBRANCH  21  24
ENDBRANCH  16  18
ENDBRANCH   3  16
BRANCH   2  26
ATOM     26  O   UNL     1      -7.112  -4.132  -0.318  0.00  0.00    -0.465 OA
BRANCH  26  27
ATOM     27  C   UNL     1      -6.297  -4.750  -1.316  0.00  0.00    +0.260 C 
BRANCH  27  28
ATOM     28  C   UNL     1      -7.115  -4.942  -2.595  0.00  0.00    +0.201 C 
BRANCH  28  29
ATOM     29  O   UNL     1      -7.468  -3.665  -3.131  0.00  0.00    -0.377 OA
BRANCH  29  30
ATOM     30  C   UNL     1      -8.238  -3.732  -4.333  0.00  0.00    +0.156 C 
ATOM     31  C   UNL     1      -8.556  -2.315  -4.815  0.00  0.00    +0.034 C 
ENDBRANCH  29  30
ENDBRANCH  28  29
ENDBRANCH  27  28
ENDBRANCH  26  27
ENDBRANCH   2  26
TORSDOF 15
