REMARK  Name = ZINC33724047
REMARK  4 active torsions:
REMARK  status: ('A' for Active; 'I' for Inactive)
REMARK    1  A    between atoms: C_1  and  N_2
REMARK    2  A    between atoms: N_5  and  C_8
REMARK    3  A    between atoms: C_9  and  C_19
REMARK    4  A    between atoms: N_23  and  C_27
REMARK                            x       y       z     vdW  Elec       q    Type
REMARK                         _______ _______ _______ _____ _____    ______ ____
ROOT
ATOM      1  C   UNL     1      -1.824   3.575   5.027  0.00  0.00    +0.136 A 
ATOM      2  C   UNL     1      -1.729   4.981   5.145  0.00  0.00    +0.081 A 
ATOM      3  C   UNL     1      -2.018   5.572   6.398  0.00  0.00    +0.267 A 
ATOM      4  O   UNL     1      -1.949   6.780   6.545  0.00  0.00    -0.267 OA
ATOM      5  N   UNL     1      -2.373   4.774   7.429  0.00  0.00    -0.268 N 
ATOM      6  C   UNL     1      -2.653   5.335   8.639  0.00  0.00    +0.096 A 
ATOM      7  C   UNL     1      -3.011   4.565   9.692  0.00  0.00    +0.018 A 
ATOM      8  C   UNL     1      -3.097   3.174   9.548  0.00  0.00    +0.005 A 
ATOM      9  C   UNL     1      -2.818   2.604   8.341  0.00  0.00    +0.047 A 
ATOM     10  C   UNL     1      -2.449   3.420   7.258  0.00  0.00    +0.142 A 
ATOM     11  N   UNL     1      -2.183   2.854   6.080  0.00  0.00    -0.214 NA
ENDROOT
BRANCH   1  16
ATOM     12  C   UNL     1      -0.494   0.128   0.874  0.00  0.00    -0.096 C 
ATOM     13  N   UNL     1      -0.786   0.784   2.155  0.00  0.00    +0.380 N 
ATOM     14  C   UNL     1      -2.185   1.231   2.212  0.00  0.00    -0.060 C 
ATOM     15  C   UNL     1      -2.469   1.836   3.588  0.00  0.00    +0.088 C 
ATOM     16  N   UNL     1      -1.550   2.959   3.826  0.00  0.00    -0.318 N 
ATOM     17  C   UNL     1      -0.151   2.512   3.769  0.00  0.00    +0.088 C 
ATOM     18  C   UNL     1       0.132   1.907   2.392  0.00  0.00    -0.060 C 
ATOM     19  H   UNL     1      -0.632   0.045   2.955  0.00  0.00    -0.082 HD
ENDBRANCH   1  16
BRANCH   2  20
ATOM     20  C   UNL     1      -1.353   5.778   4.038  0.00  0.00    +0.037 C 
ATOM     21  C   UNL     1      -2.241   6.666   3.504  0.00  0.00    +0.077 C 
ATOM     22  C   UNL     1      -3.612   6.879   3.822  0.00  0.00    +0.259 C 
ATOM     23  O   UNL     1      -4.165   6.218   4.685  0.00  0.00    -0.269 OA
ATOM     24  N   UNL     1      -4.268   7.815   3.159  0.00  0.00    -0.251 N 
ATOM     25  C   UNL     1      -3.657   8.543   2.197  0.00  0.00    +0.121 C 
ATOM     26  S   UNL     1      -4.306   9.787   1.217  0.00  0.00    -0.027 S 
ATOM     27  S   UNL     1      -2.000   7.875   2.209  0.00  0.00    -0.061 S 
BRANCH  24  28
ATOM     28  C   UNL     1      -5.679   8.064   3.467  0.00  0.00    +0.105 C 
ATOM     29  C   UNL     1      -5.854   9.525   3.913  0.00  0.00    +0.047 C 
ATOM     30  C   UNL     1      -7.375   9.848   3.929  0.00  0.00    +0.168 C 
ATOM     31  S   UNL     1      -7.917   8.993   2.390  0.00  0.00    -0.029 S 
ATOM     32  O   UNL     1      -7.875   9.915   1.310  0.00  0.00    -0.174 OA
ATOM     33  O   UNL     1      -9.116   8.279   2.656  0.00  0.00    -0.174 OA
ATOM     34  C   UNL     1      -6.535   7.793   2.206  0.00  0.00    +0.188 C 
ENDBRANCH  24  28
ENDBRANCH   2  20
TORSDOF 3
