REMARK  Name = ZINC11215781
REMARK  7 active torsions:
REMARK  status: ('A' for Active; 'I' for Inactive)
REMARK    1  A    between atoms: C_1  and  C_2
REMARK    2  A    between atoms: C_3  and  C_13
REMARK    3  A    between atoms: N_15  and  C_16
REMARK    4  A    between atoms: C_18  and  N_24
REMARK    5  A    between atoms: C_21  and  O_22
REMARK    6  A    between atoms: O_22  and  C_23
REMARK    7  A    between atoms: C_25  and  C_27
REMARK                            x       y       z     vdW  Elec       q    Type
REMARK                         _______ _______ _______ _____ _____    ______ ____
ROOT
ATOM      1  C   UNL     1      -6.188   2.794  -0.817  0.00  0.00    +0.250 C 
ATOM      2  O   UNL     1      -5.188   3.481  -0.894  0.00  0.00    -0.270 OA
ATOM      3  N   UNL     1      -6.085   1.450  -0.814  0.00  0.00    -0.278 N 
ATOM      4  H   UNL     1      -6.872   0.904  -0.666  0.00  0.00    +0.155 HD
ENDROOT
BRANCH   1   7
ATOM      5  C   UNL     1      -6.377   5.673  -0.702  0.00  0.00    +0.066 C 
ATOM      6  C   UNL     1      -7.628   4.833  -0.670  0.00  0.00    +0.051 A 
ATOM      7  C   UNL     1      -7.517   3.433  -0.726  0.00  0.00    +0.059 A 
ATOM      8  C   UNL     1      -8.669   2.654  -0.702  0.00  0.00    +0.025 A 
ATOM      9  C   UNL     1      -9.907   3.312  -0.610  0.00  0.00    +0.002 A 
ATOM     10  C   UNL     1     -11.113   2.591  -0.574  0.00  0.00    +0.030 A 
ATOM     11  C   UNL     1     -12.296   3.262  -0.487  0.00  0.00    +0.042 A 
ATOM     12  C   UNL     1     -12.324   4.656  -0.435  0.00  0.00    +0.022 A 
ATOM     13  C   UNL     1     -11.175   5.383  -0.468  0.00  0.00    +0.030 A 
ATOM     14  C   UNL     1      -9.935   4.728  -0.556  0.00  0.00    +0.071 A 
ATOM     15  N   UNL     1      -8.792   5.425  -0.589  0.00  0.00    -0.251 NA
ATOM     16 CL   UNL     1     -13.786   2.372  -0.443  0.00  0.00    -0.084 Cl
ENDBRANCH   1   7
BRANCH   3  17
ATOM     17  C   UNL     1      -4.840   0.844  -1.024  0.00  0.00    +0.078 A 
ATOM     18  C   UNL     1      -3.817   1.552  -1.636  0.00  0.00    +0.050 A 
ATOM     19  C   UNL     1      -2.585   0.948  -1.843  0.00  0.00    +0.035 A 
ATOM     20  C   UNL     1      -2.379  -0.366  -1.442  0.00  0.00    +0.027 A 
ATOM     21  C   UNL     1      -3.396  -1.071  -0.828  0.00  0.00    +0.049 A 
ATOM     22  C   UNL     1      -4.628  -0.472  -0.619  0.00  0.00    +0.141 A 
BRANCH  19  23
ATOM     23  N   UNL     1      -1.550   1.662  -2.461  0.00  0.00    -0.286 N 
ATOM     24  C   UNL     1      -0.276   1.490  -2.055  0.00  0.00    +0.214 C 
ATOM     25  O   UNL     1      -0.036   0.799  -1.087  0.00  0.00    -0.276 OA
ATOM     26  C   UNL     1       0.850   2.150  -2.807  0.00  0.00    +0.109 C 
ATOM     27  H   UNL     1      -1.750   2.280  -3.181  0.00  0.00    +0.155 HD
ENDBRANCH  19  23
BRANCH  22  28
ATOM     28  O   UNL     1      -5.630  -1.170  -0.019  0.00  0.00    -0.493 OA
ATOM     29  C   UNL     1      -5.343  -2.514   0.370  0.00  0.00    +0.277 C 
ENDBRANCH  22  28
ENDBRANCH   3  17
TORSDOF 4
