REMARK  Name = ZINC06196289
REMARK  15 active torsions:
REMARK  status: ('A' for Active; 'I' for Inactive)
REMARK    1  A    between atoms: C_1  and  C_2
REMARK    2  A    between atoms: C_2  and  O_3
REMARK    3  A    between atoms: O_3  and  C_4
REMARK    4  A    between atoms: C_7  and  C_10
REMARK    5  A    between atoms: C_10  and  N_73
REMARK    6  A    between atoms: C_11  and  C_12
REMARK    7  A    between atoms: C_11  and  N_73
REMARK    8  A    between atoms: C_17  and  C_19
REMARK    9  A    between atoms: C_17  and  C_32
REMARK   10  A    between atoms: C_17  and  N_73
REMARK   11  A    between atoms: C_23  and  C_31
REMARK   12  A    between atoms: N_36  and  C_37
REMARK   13  A    between atoms: C_37  and  C_38
REMARK   14  A    between atoms: C_37  and  C_39
REMARK   15  A    between atoms: C_37  and  C_40
REMARK                            x       y       z     vdW  Elec       q    Type
REMARK                         _______ _______ _______ _____ _____    ______ ____
ROOT
ATOM      1  C   UNL     1      -1.742  -0.618   0.852  0.00  0.00    +0.040 C 
ENDROOT
BRANCH   1   2
ATOM      2  C   UNL     1      -0.468   0.075   0.444  0.00  0.00    +0.011 A 
ATOM      3  C   UNL     1       0.692  -0.624   0.382  0.00  0.00    +0.017 A 
ATOM      4  C   UNL     1       1.913   0.079  -0.018  0.00  0.00    -0.001 A 
ATOM      5  C   UNL     1       3.138  -0.590  -0.101  0.00  0.00    +0.013 A 
ATOM      6  C   UNL     1       4.259   0.095  -0.477  0.00  0.00    -0.050 A 
ATOM      7  C   UNL     1       4.192   1.449  -0.778  0.00  0.00    +0.005 A 
ATOM      8  C   UNL     1       2.995   2.128  -0.702  0.00  0.00    +0.026 A 
ATOM      9  C   UNL     1       1.841   1.451  -0.322  0.00  0.00    +0.049 A 
ATOM     10  N   UNL     1       0.630   2.105  -0.239  0.00  0.00    -0.322 N 
ATOM     11  H   UNL     1       0.581   3.080  -0.455  0.00  0.00    +0.169 HD
ATOM     12  C   UNL     1      -0.486   1.451   0.129  0.00  0.00    +0.251 A 
ATOM     13  O   UNL     1      -1.540   2.060   0.187  0.00  0.00    -0.268 OA
ATOM     14  C   UNL     1       5.580  -0.626  -0.566  0.00  0.00    +0.044 C 
ENDBRANCH   1   2
BRANCH   1  15
ATOM     15  C   UNL     1      -2.171  -0.122   2.209  0.00  0.00    +0.143 A 
ATOM     16  N   UNL     1      -2.552   1.094   2.514  0.00  0.00    -0.115 NA
ATOM     17  N   UNL     1      -2.838   1.119   3.770  0.00  0.00    -0.023 NA
ATOM     18  N   UNL     1      -2.649  -0.050   4.274  0.00  0.00    -0.043 NA
ATOM     19  N   UNL     1      -2.243  -0.845   3.343  0.00  0.00    -0.225 N 
BRANCH  19  20
ATOM     20  C   UNL     1      -1.918  -2.265   3.491  0.00  0.00    +0.059 C 
ATOM     21  C   UNL     1      -0.465  -2.502   3.075  0.00  0.00    +0.036 C 
ATOM     22  C   UNL     1      -2.104  -2.681   4.952  0.00  0.00    +0.036 C 
ATOM     23  C   UNL     1      -2.845  -3.096   2.602  0.00  0.00    +0.036 C 
ENDBRANCH  19  20
ENDBRANCH   1  15
BRANCH   1  24
ATOM     24  N   UNL     1      -2.792  -0.299  -0.138  0.00  0.00    +0.397 N 
ATOM     25  H   UNL     1      -2.724   0.694  -0.389  0.00  0.00    -0.079 HD
BRANCH  24  26
ATOM     26  C   UNL     1      -2.604  -1.116  -1.355  0.00  0.00    -0.041 C 
BRANCH  26  30
ATOM     27  C   UNL     1       0.482   0.651  -3.725  0.00  0.00    +0.121 A 
ATOM     28  C   UNL     1       0.770  -0.425  -2.898  0.00  0.00    +0.046 A 
ATOM     29  C   UNL     1      -0.229  -0.995  -2.133  0.00  0.00    +0.005 A 
ATOM     30  C   UNL     1      -1.516  -0.493  -2.190  0.00  0.00    -0.064 A 
ATOM     31  C   UNL     1      -1.808   0.576  -3.017  0.00  0.00    +0.005 A 
ATOM     32  C   UNL     1      -0.811   1.153  -3.780  0.00  0.00    +0.046 A 
BRANCH  27  33
ATOM     33  O   UNL     1       1.463   1.214  -4.478  0.00  0.00    -0.492 OA
BRANCH  33  35
ATOM     34  C   UNL     1       2.311   2.811  -6.081  0.00  0.00    +0.048 C 
ATOM     35  C   UNL     1       1.120   2.385  -5.220  0.00  0.00    +0.225 C 
ENDBRANCH  33  35
ENDBRANCH  27  33
ENDBRANCH  26  30
ENDBRANCH  24  26
BRANCH  24  36
ATOM     36  C   UNL     1      -4.127  -0.556   0.442  0.00  0.00    -0.001 C 
BRANCH  36  37
ATOM     37  C   UNL     1      -5.178  -0.064  -0.519  0.00  0.00    +0.089 A 
ATOM     38  C   UNL     1      -5.836  -0.816  -1.419  0.00  0.00    +0.042 A 
ATOM     39  C   UNL     1      -6.723   0.046  -2.104  0.00  0.00    +0.041 A 
ATOM     40  C   UNL     1      -6.554   1.274  -1.581  0.00  0.00    +0.195 A 
ATOM     41  O   UNL     1      -5.622   1.200  -0.618  0.00  0.00    -0.470 OA
ENDBRANCH  36  37
ENDBRANCH  24  36
ENDBRANCH   1  24
TORSDOF 10
