REMARK  Name = ZINC36275281
REMARK  8 active torsions:
REMARK  status: ('A' for Active; 'I' for Inactive)
REMARK    1  A    between atoms: C_1  and  C_2
REMARK    2  A    between atoms: N_4  and  C_5
REMARK    3  A    between atoms: C_8  and  C_11
REMARK    4  A    between atoms: C_17  and  C_19
REMARK    5  A    between atoms: C_19  and  C_20
REMARK    6  A    between atoms: C_20  and  C_22
REMARK    7  A    between atoms: C_20  and  N_28
REMARK    8  A    between atoms: C_29  and  C_31
REMARK                            x       y       z     vdW  Elec       q    Type
REMARK                         _______ _______ _______ _____ _____    ______ ____
ROOT
ATOM      1  C   UNL     1      -1.304  -6.331  -0.384  0.00  0.00    +0.080 A 
ATOM      2  C   UNL     1      -2.501  -6.985  -0.481  0.00  0.00    +0.076 A 
ATOM      3  S   UNL     1      -1.945  -8.682  -0.575  0.00  0.00    -0.060 S 
ATOM      4  C   UNL     1      -0.192  -8.348  -0.476  0.00  0.00    +0.165 A 
ATOM      5  N   UNL     1      -0.179  -7.031  -0.390  0.00  0.00    -0.225 NA
ATOM      6  N   UNL     1       0.875  -9.238  -0.492  0.00  0.00    -0.265 N 
ATOM      7  C   UNL     1       0.646 -10.562  -0.595  0.00  0.00    +0.221 C 
ATOM      8  O   UNL     1      -0.491 -10.977  -0.673  0.00  0.00    -0.275 OA
ATOM      9  H   UNL     1       1.784  -8.906  -0.430  0.00  0.00    +0.157 HD
ENDROOT
BRANCH   1  13
ATOM     10  C   UNL     1      -1.193  -2.089  -0.088  0.00  0.00    +0.033 A 
ATOM     11  C   UNL     1      -0.008  -2.816  -0.091  0.00  0.00    +0.024 A 
ATOM     12  C   UNL     1      -0.042  -4.191  -0.187  0.00  0.00    +0.012 A 
ATOM     13  C   UNL     1      -1.265  -4.852  -0.281  0.00  0.00    +0.001 A 
ATOM     14  C   UNL     1      -2.452  -4.121  -0.277  0.00  0.00    +0.012 A 
ATOM     15  C   UNL     1      -2.414  -2.746  -0.176  0.00  0.00    +0.024 A 
BRANCH  10  19
ATOM     16  C   UNL     1      -0.177   1.504  -0.566  0.00  0.00    +0.109 C 
ATOM     17  C   UNL     1      -0.161  -0.003  -0.582  0.00  0.00    +0.214 C 
ATOM     18  O   UNL     1       0.748  -0.594  -1.126  0.00  0.00    -0.276 OA
ATOM     19  N   UNL     1      -1.156  -0.694   0.009  0.00  0.00    -0.286 N 
ATOM     20  H   UNL     1      -1.847  -0.224   0.502  0.00  0.00    +0.155 HD
ENDBRANCH  10  19
ENDBRANCH   1  13
BRANCH   7  21
ATOM     21  C   UNL     1       1.803 -11.528  -0.612  0.00  0.00    +0.123 C 
BRANCH  21  22
ATOM     22  C   UNL     1       1.272 -12.958  -0.734  0.00  0.00    +0.112 C 
BRANCH  22  23
ATOM     23  C   UNL     1       2.419 -13.930  -0.628  0.00  0.00    -0.027 A 
ATOM     24  C   UNL     1       3.228 -14.167  -1.724  0.00  0.00    +0.005 A 
ATOM     25  C   UNL     1       4.279 -15.059  -1.627  0.00  0.00    +0.000 A 
ATOM     26  C   UNL     1       4.522 -15.713  -0.433  0.00  0.00    +0.000 A 
ATOM     27  C   UNL     1       3.714 -15.475   0.663  0.00  0.00    +0.000 A 
ATOM     28  C   UNL     1       2.665 -14.580   0.567  0.00  0.00    +0.005 A 
ENDBRANCH  22  23
BRANCH  22  29
ATOM     29  N   UNL     1       0.610 -13.123  -2.031  0.00  0.00    -0.304 N 
ATOM     30  C   UNL     1      -0.343 -14.064  -2.186  0.00  0.00    +0.245 C 
ATOM     31  O   UNL     1      -0.652 -14.775  -1.250  0.00  0.00    -0.270 OA
ATOM     32  H   UNL     1       0.857 -12.556  -2.777  0.00  0.00    +0.150 HD
BRANCH  30  33
ATOM     33  C   UNL     1      -1.011 -14.231  -3.494  0.00  0.00    +0.037 A 
ATOM     34  C   UNL     1      -0.654 -13.420  -4.572  0.00  0.00    +0.013 A 
ATOM     35  C   UNL     1      -1.281 -13.581  -5.790  0.00  0.00    +0.001 A 
ATOM     36  C   UNL     1      -2.262 -14.544  -5.944  0.00  0.00    +0.000 A 
ATOM     37  C   UNL     1      -2.622 -15.351  -4.879  0.00  0.00    +0.001 A 
ATOM     38  C   UNL     1      -1.998 -15.204  -3.657  0.00  0.00    +0.013 A 
ENDBRANCH  30  33
ENDBRANCH  22  29
ENDBRANCH  21  22
ENDBRANCH   7  21
TORSDOF 7
