REMARK  Name = ZINC51580775
REMARK  6 active torsions:
REMARK  status: ('A' for Active; 'I' for Inactive)
REMARK    1  A    between atoms: C_1  and  C_2
REMARK    2  A    between atoms: C_5  and  C_19
REMARK    3  A    between atoms: C_6  and  O_8
REMARK    4  A    between atoms: O_8  and  C_9
REMARK    5  A    between atoms: C_10  and  N_18
REMARK    6  A    between atoms: C_12  and  C_16
REMARK                            x       y       z     vdW  Elec       q    Type
REMARK                         _______ _______ _______ _____ _____    ______ ____
ROOT
ATOM      1  C   UNL     1       0.048  -2.049   3.523  0.00  0.00    +0.162 A 
ATOM      2  C   UNL     1       1.255  -1.660   4.106  0.00  0.00    +0.070 A 
ATOM      3  C   UNL     1       1.251  -0.930   5.281  0.00  0.00    +0.045 A 
ATOM      4  C   UNL     1       0.037  -0.585   5.881  0.00  0.00    +0.055 A 
ATOM      5  C   UNL     1      -1.167  -0.978   5.292  0.00  0.00    +0.037 A 
ATOM      6  C   UNL     1      -1.157  -1.701   4.117  0.00  0.00    +0.059 A 
ATOM      7  I   UNL     1      -2.965  -2.281   3.232  0.00  0.00    -0.040 I 
ENDROOT
BRANCH   2   8
ATOM      8  N   UNL     1       2.468  -2.009   3.502  0.00  0.00    -0.355 N 
ATOM      9  H   UNL     1       2.470  -2.521   2.678  0.00  0.00    +0.142 HD
ATOM     10  H   UNL     1       3.307  -1.738   3.907  0.00  0.00    +0.142 HD
ENDBRANCH   2   8
BRANCH   4  11
ATOM     11  C   UNL     1       0.028   0.170   7.098  0.00  0.00    +0.099 C 
ATOM     12  N   UNL     1       0.020   0.769   8.063  0.00  0.00    -0.191 NA
ENDBRANCH   4  11
BRANCH   1  13
ATOM     13  O   UNL     1       0.052  -2.765   2.369  0.00  0.00    -0.452 OA
BRANCH  13  19
ATOM     14  C   UNL     1      -0.018   1.503   0.010  0.00  0.00    +0.044 C 
ATOM     15  C   UNL     1       0.002  -0.004   0.002  0.00  0.00    -0.047 A 
ATOM     16  C   UNL     1       0.006  -0.686  -1.204  0.00  0.00    +0.005 A 
ATOM     17  C   UNL     1       0.025  -2.064  -1.223  0.00  0.00    +0.023 A 
ATOM     18  C   UNL     1       0.041  -2.777  -0.022  0.00  0.00    +0.094 A 
ATOM     19  C   UNL     1       0.037  -2.083   1.196  0.00  0.00    +0.146 A 
ATOM     20  C   UNL     1       0.023  -0.697   1.196  0.00  0.00    +0.051 A 
BRANCH  18  21
ATOM     21  C   UNL     1       0.060  -4.209  -0.035  0.00  0.00    +0.103 C 
ATOM     22  N   UNL     1       0.075  -5.345  -0.046  0.00  0.00    -0.191 NA
ENDBRANCH  18  21
ENDBRANCH  13  19
ENDBRANCH   1  13
TORSDOF 5
