REMARK  Name = ZINC50208575
REMARK  3 active torsions:
REMARK  status: ('A' for Active; 'I' for Inactive)
REMARK    1  A    between atoms: C_3  and  N_21
REMARK    2  A    between atoms: C_4  and  C_8
REMARK    3  A    between atoms: C_14  and  C_17
REMARK                            x       y       z     vdW  Elec       q    Type
REMARK                         _______ _______ _______ _____ _____    ______ ____
ROOT
ATOM      1  C   UNL     1       3.834  -0.366   0.296  0.00  0.00    +0.170 A 
ATOM      2  N   UNL     1       4.955   0.325   0.367  0.00  0.00    -0.128 NA
ATOM      3  N   UNL     1       5.958  -0.470   0.500  0.00  0.00    -0.129 NA
ATOM      4  C   UNL     1       5.535  -1.724   0.523  0.00  0.00    +0.161 A 
ATOM      5  N   UNL     1       4.167  -1.690   0.399  0.00  0.00    -0.282 N 
ATOM      6  C   UNL     1       3.443  -2.845   0.395  0.00  0.00    +0.107 A 
ATOM      7  C   UNL     1       4.059  -4.040   0.516  0.00  0.00    +0.071 A 
ATOM      8  C   UNL     1       5.456  -4.108   0.649  0.00  0.00    +0.017 A 
ATOM      9  C   UNL     1       6.192  -2.963   0.647  0.00  0.00    +0.049 A 
ENDROOT
BRANCH   1  13
ATOM     10  C   UNL     1      -0.085   1.222  -0.150  0.00  0.00    +0.017 A 
ATOM     11  C   UNL     1       0.933   1.673  -0.970  0.00  0.00    +0.024 A 
ATOM     12  C   UNL     1       2.215   1.162  -0.832  0.00  0.00    +0.035 A 
ATOM     13  C   UNL     1       2.473   0.186   0.141  0.00  0.00    +0.041 A 
ATOM     14  C   UNL     1       1.438  -0.261   0.962  0.00  0.00    +0.028 A 
ATOM     15  C   UNL     1       0.167   0.258   0.812  0.00  0.00    +0.019 A 
ATOM     16 BR   UNL     1      -1.236  -0.349   1.926  0.00  0.00    -0.050 Br
BRANCH  12  17
ATOM     17  N   UNL     1       3.243   1.616  -1.659  0.00  0.00    -0.357 N 
ATOM     18  H   UNL     1       3.084   2.354  -2.269  0.00  0.00    +0.142 HD
ATOM     19  H   UNL     1       4.115   1.194  -1.625  0.00  0.00    +0.142 HD
ENDBRANCH  12  17
ENDBRANCH   1  13
BRANCH   7  20
ATOM     20  C   UNL     1       3.244  -5.308   0.510  0.00  0.00    +0.419 C 
ATOM     21  F   UNL     1       3.208  -5.832  -0.786  0.00  0.00    -0.166 F 
ATOM     22  F   UNL     1       3.826  -6.241   1.375  0.00  0.00    -0.166 F 
ATOM     23  F   UNL     1       1.941  -5.027   0.935  0.00  0.00    -0.166 F 
ENDBRANCH   7  20
TORSDOF 3
