REMARK  Name = ZINC23844914
REMARK  7 active torsions:
REMARK  status: ('A' for Active; 'I' for Inactive)
REMARK    1  A    between atoms: C_1  and  O_2
REMARK    2  A    between atoms: O_2  and  C_3
REMARK    3  A    between atoms: C_6  and  C_9
REMARK    4  A    between atoms: C_9  and  C_11
REMARK    5  A    between atoms: C_9  and  N_31
REMARK    6  A    between atoms: C_11  and  N_12
REMARK    7  A    between atoms: C_24  and  C_27
REMARK                            x       y       z     vdW  Elec       q    Type
REMARK                         _______ _______ _______ _____ _____    ______ ____
ROOT
ATOM      1  N   UNL     1      -1.449   1.222   3.413  0.00  0.00    -0.300 N 
ATOM      2  C   UNL     1      -0.845   0.773   2.295  0.00  0.00    +0.302 C 
ATOM      3  O   UNL     1      -0.690  -0.421   2.126  0.00  0.00    -0.253 OA
ATOM      4  N   UNL     1      -0.413   1.647   1.365  0.00  0.00    -0.283 N 
ATOM      5  C   UNL     1       0.346   1.187   0.192  0.00  0.00    +0.128 C 
ATOM      6  C   UNL     1      -0.306   1.761  -1.071  0.00  0.00    +0.125 C 
ATOM      7  N   UNL     1      -0.421   3.219  -0.938  0.00  0.00    -0.312 N 
ATOM      8  C   UNL     1      -1.302   3.585   0.179  0.00  0.00    +0.125 C 
ATOM      9  C   UNL     1      -0.691   3.086   1.492  0.00  0.00    +0.128 C 
ATOM     10  C   UNL     1      -0.857   3.794  -2.126  0.00  0.00    +0.121 A 
ATOM     11  C   UNL     1      -1.035   5.172  -2.201  0.00  0.00    +0.044 A 
ATOM     12  C   UNL     1      -1.463   5.732  -3.391  0.00  0.00    +0.017 A 
ATOM     13  C   UNL     1      -1.712   4.890  -4.467  0.00  0.00    +0.073 A 
ATOM     14  C   UNL     1      -1.521   3.531  -4.321  0.00  0.00    +0.125 A 
ATOM     15  N   UNL     1      -1.105   3.025  -3.175  0.00  0.00    -0.240 NA
ATOM     16  H   UNL     1      -1.663   2.295   3.529  0.00  0.00    +0.150 HD
ENDROOT
BRANCH  13  17
ATOM     17  C   UNL     1      -2.186   5.455  -5.781  0.00  0.00    +0.419 C 
ATOM     18  F   UNL     1      -2.364   4.414  -6.699  0.00  0.00    -0.166 F 
ATOM     19  F   UNL     1      -3.401   6.122  -5.591  0.00  0.00    -0.166 F 
ATOM     20  F   UNL     1      -1.234   6.354  -6.273  0.00  0.00    -0.166 F 
ENDBRANCH  13  17
BRANCH   1  21
ATOM     21  C   UNL     1      -1.822   0.282   4.473  0.00  0.00    +0.095 C 
BRANCH  21  22
ATOM     22  C   UNL     1      -2.600   1.024   5.562  0.00  0.00    -0.020 C 
BRANCH  22  26
ATOM     23  C   UNL     1      -6.292   2.453   3.951  0.00  0.00    +0.120 A 
ATOM     24  C   UNL     1      -5.213   3.315   4.086  0.00  0.00    +0.046 A 
ATOM     25  C   UNL     1      -4.020   2.850   4.608  0.00  0.00    +0.005 A 
ATOM     26  C   UNL     1      -3.902   1.528   4.994  0.00  0.00    -0.059 A 
ATOM     27  C   UNL     1      -4.974   0.666   4.855  0.00  0.00    +0.005 A 
ATOM     28  C   UNL     1      -6.170   1.127   4.340  0.00  0.00    +0.046 A 
BRANCH  23  30
ATOM     29  C   UNL     1      -8.533   1.965   3.328  0.00  0.00    +0.277 C 
ATOM     30  O   UNL     1      -7.465   2.908   3.438  0.00  0.00    -0.495 OA
ENDBRANCH  23  30
ENDBRANCH  22  26
BRANCH  22  31
ATOM     31  N   UNL     1      -2.875   0.108   6.677  0.00  0.00    +0.385 N 
ATOM     32  C   UNL     1      -1.612  -0.405   7.268  0.00  0.00    -0.078 C 
ATOM     33  C   UNL     1      -2.047  -0.881   8.676  0.00  0.00    -0.020 C 
ATOM     34  C   UNL     1      -3.088   0.182   9.095  0.00  0.00    -0.020 C 
ATOM     35  C   UNL     1      -3.579   0.806   7.775  0.00  0.00    -0.078 C 
ATOM     36  H   UNL     1      -3.488  -0.702   6.256  0.00  0.00    -0.081 HD
ENDBRANCH  22  31
ENDBRANCH  21  22
ENDBRANCH   1  21
TORSDOF 6
