REMARK  Name = ZINC20118891
REMARK  7 active torsions:
REMARK  status: ('A' for Active; 'I' for Inactive)
REMARK    1  A    between atoms: C_1  and  C_2
REMARK    2  A    between atoms: C_2  and  C_4
REMARK    3  A    between atoms: C_2  and  O_23
REMARK    4  A    between atoms: N_6  and  C_7
REMARK    5  A    between atoms: C_10  and  N_13
REMARK    6  A    between atoms: C_14  and  C_16
REMARK    7  A    between atoms: O_23  and  C_24
REMARK                            x       y       z     vdW  Elec       q    Type
REMARK                         _______ _______ _______ _____ _____    ______ ____
ROOT
ATOM      1  C   UNL     1      -4.766  -3.944  -0.619  0.00  0.00    +0.034 A 
ATOM      2  C   UNL     1      -3.621  -4.703  -0.417  0.00  0.00    +0.025 A 
ATOM      3  C   UNL     1      -2.376  -4.132  -0.586  0.00  0.00    +0.025 A 
ATOM      4  C   UNL     1      -2.268  -2.799  -0.959  0.00  0.00    +0.034 A 
ATOM      5  C   UNL     1      -3.413  -2.038  -1.155  0.00  0.00    +0.025 A 
ATOM      6  C   UNL     1      -4.658  -2.611  -0.992  0.00  0.00    +0.025 A 
ENDROOT
BRANCH   1   9
ATOM      7  C   UNL     1      -7.052  -4.158  -1.246  0.00  0.00    +0.258 C 
ATOM      8  O   UNL     1      -6.898  -3.276  -2.065  0.00  0.00    -0.271 OA
ATOM      9  N   UNL     1      -6.030  -4.524  -0.448  0.00  0.00    -0.282 N 
ATOM     10  H   UNL     1      -6.188  -5.277   0.338  0.00  0.00    +0.155 HD
BRANCH   7  12
ATOM     11  C   UNL     1      -8.220  -6.340  -1.398  0.00  0.00    +0.062 C 
ATOM     12  C   UNL     1      -8.388  -4.845  -1.122  0.00  0.00    +0.256 C 
BRANCH  12  13
ATOM     13  O   UNL     1      -9.301  -4.286  -2.068  0.00  0.00    -0.478 OA
BRANCH  13  14
ATOM     14  C   UNL     1     -10.626  -4.385  -1.780  0.00  0.00    +0.140 A 
ATOM     15  C   UNL     1     -11.044  -5.105  -0.671  0.00  0.00    +0.047 A 
ATOM     16  C   UNL     1     -12.391  -5.204  -0.380  0.00  0.00    +0.004 A 
ATOM     17  C   UNL     1     -13.323  -4.588  -1.194  0.00  0.00    +0.002 A 
ATOM     18  C   UNL     1     -12.910  -3.869  -2.301  0.00  0.00    +0.023 A 
ATOM     19  C   UNL     1     -11.563  -3.762  -2.593  0.00  0.00    +0.083 A 
ATOM     20 CL   UNL     1     -11.044  -2.854  -3.979  0.00  0.00    -0.080 Cl
ENDBRANCH  13  14
ENDBRANCH  12  13
ENDBRANCH   7  12
ENDBRANCH   1   9
BRANCH   4  21
ATOM     21  N   UNL     1      -1.005  -2.220  -1.131  0.00  0.00    -0.281 N 
ATOM     22  C   UNL     1       0.007  -2.949  -1.641  0.00  0.00    +0.251 C 
ATOM     23  O   UNL     1      -0.155  -4.130  -1.881  0.00  0.00    -0.270 OA
ATOM     24  H   UNL     1      -0.838  -1.169  -0.850  0.00  0.00    +0.155 HD
BRANCH  22  25
ATOM     25  C   UNL     1       1.313  -2.314  -1.909  0.00  0.00    +0.072 A 
ATOM     26  C   UNL     1       1.504  -0.958  -1.635  0.00  0.00    +0.016 A 
ATOM     27  C   UNL     1       2.725  -0.372  -1.887  0.00  0.00    +0.001 A 
ATOM     28  C   UNL     1       3.764  -1.123  -2.412  0.00  0.00    +0.003 A 
ATOM     29  C   UNL     1       3.585  -2.465  -2.686  0.00  0.00    +0.039 A 
ATOM     30  C   UNL     1       2.365  -3.068  -2.439  0.00  0.00    +0.135 A 
ATOM     31  F   UNL     1       2.193  -4.382  -2.702  0.00  0.00    -0.205 F 
ENDBRANCH  22  25
ENDBRANCH   4  21
TORSDOF 6
