REMARK  Name = ZINC63801423
REMARK  8 active torsions:
REMARK  status: ('A' for Active; 'I' for Inactive)
REMARK    1  A    between atoms: C_1  and  C_2
REMARK    2  A    between atoms: N_4  and  C_5
REMARK    3  A    between atoms: C_5  and  C_7
REMARK    4  A    between atoms: C_5  and  C_17
REMARK    5  A    between atoms: C_7  and  C_8
REMARK    6  A    between atoms: N_19  and  C_20
REMARK    7  A    between atoms: C_23  and  O_26
REMARK    8  A    between atoms: O_26  and  C_27
REMARK                            x       y       z     vdW  Elec       q    Type
REMARK                         _______ _______ _______ _____ _____    ______ ____
ROOT
ATOM      1  C   UNL     1      -0.934  -2.755   1.510  0.00  0.00    +0.238 C 
ATOM      2  O   UNL     1       0.152  -2.229   1.632  0.00  0.00    -0.273 OA
ATOM      3  N   UNL     1      -1.298  -3.750   2.344  0.00  0.00    -0.284 N 
ATOM      4  H   UNL     1      -2.206  -4.091   2.324  0.00  0.00    +0.155 HD
ENDROOT
BRANCH   3   5
ATOM      5  C   UNL     1      -0.366  -4.291   3.238  0.00  0.00    +0.034 A 
ATOM      6  C   UNL     1      -0.506  -5.600   3.680  0.00  0.00    +0.027 A 
ATOM      7  C   UNL     1       0.413  -6.133   4.562  0.00  0.00    +0.048 A 
ATOM      8  C   UNL     1       1.477  -5.360   5.006  0.00  0.00    +0.129 A 
ATOM      9  C   UNL     1       1.617  -4.052   4.565  0.00  0.00    +0.048 A 
ATOM     10  C   UNL     1       0.702  -3.520   3.679  0.00  0.00    +0.027 A 
BRANCH   8  11
ATOM     11  O   UNL     1       2.381  -5.885   5.875  0.00  0.00    -0.456 OA
BRANCH  11  12
ATOM     12  C   UNL     1       2.315  -7.217   6.138  0.00  0.00    +0.129 A 
ATOM     13  C   UNL     1       2.802  -8.132   5.216  0.00  0.00    +0.047 A 
ATOM     14  C   UNL     1       2.734  -9.485   5.486  0.00  0.00    +0.019 A 
ATOM     15  C   UNL     1       2.180  -9.928   6.674  0.00  0.00    +0.018 A 
ATOM     16  C   UNL     1       1.694  -9.017   7.595  0.00  0.00    +0.019 A 
ATOM     17  C   UNL     1       1.765  -7.663   7.332  0.00  0.00    +0.047 A 
ATOM     18 BR   UNL     1       2.088 -11.781   7.040  0.00  0.00    -0.050 Br
ENDBRANCH  11  12
ENDBRANCH   8  11
ENDBRANCH   3   5
BRANCH   1  19
ATOM     19  C   UNL     1      -1.876  -2.297   0.426  0.00  0.00    +0.163 C 
BRANCH  19  23
ATOM     20  C   UNL     1       0.123   0.643  -0.993  0.00  0.00    +0.109 C 
ATOM     21  C   UNL     1      -0.269  -0.739  -0.537  0.00  0.00    +0.211 C 
ATOM     22  O   UNL     1       0.516  -1.657  -0.638  0.00  0.00    -0.276 OA
ATOM     23  N   UNL     1      -1.494  -0.954  -0.017  0.00  0.00    -0.304 N 
ATOM     24  H   UNL     1      -2.122  -0.220   0.065  0.00  0.00    +0.149 HD
ENDBRANCH  19  23
BRANCH  19  25
ATOM     25  C   UNL     1      -1.801  -3.265  -0.757  0.00  0.00    +0.065 C 
BRANCH  25  26
ATOM     26  C   UNL     1      -2.830  -2.877  -1.788  0.00  0.00    -0.039 C 
ATOM     27  C   UNL     1      -2.635  -2.104  -2.880  0.00  0.00    -0.001 A 
ATOM     28  C   UNL     1      -1.453  -1.417  -3.414  0.00  0.00    +0.010 A 
ATOM     29  C   UNL     1      -1.571  -0.700  -4.555  0.00  0.00    +0.001 A 
ATOM     30  C   UNL     1      -2.791  -0.596  -5.237  0.00  0.00    +0.002 A 
ATOM     31  C   UNL     1      -3.920  -1.198  -4.809  0.00  0.00    +0.026 A 
ATOM     32  C   UNL     1      -3.911  -1.979  -3.620  0.00  0.00    +0.043 A 
ATOM     33  N   UNL     1      -4.858  -2.649  -3.009  0.00  0.00    -0.380 N 
ATOM     34  C   UNL     1      -4.287  -3.280  -1.814  0.00  0.00    +0.144 C 
ATOM     35  H   UNL     1      -5.781  -2.719  -3.300  0.00  0.00    +0.160 HD
ENDBRANCH  25  26
ENDBRANCH  19  25
ENDBRANCH   1  19
TORSDOF 7
