REMARK  Name = ZINC34829733
REMARK  6 active torsions:
REMARK  status: ('A' for Active; 'I' for Inactive)
REMARK    1  A    between atoms: C_1  and  C_2
REMARK    2  A    between atoms: C_5  and  C_8
REMARK    3  A    between atoms: N_17  and  C_18
REMARK    4  A    between atoms: C_18  and  C_19
REMARK    5  A    between atoms: C_25  and  C_28
REMARK    6  A    between atoms: C_29  and  C_31
REMARK                            x       y       z     vdW  Elec       q    Type
REMARK                         _______ _______ _______ _____ _____    ______ ____
ROOT
ATOM      1  C   UNL     1      -0.682  -5.915  -0.721  0.00  0.00    -0.005 C 
ATOM      2  C   UNL     1       0.663  -6.621  -0.578  0.00  0.00    -0.047 A 
ATOM      3  C   UNL     1       1.788  -6.317  -1.341  0.00  0.00    +0.010 A 
ATOM      4  C   UNL     1       2.943  -6.995  -1.144  0.00  0.00    +0.045 A 
ATOM      5  S   UNL     1       2.488  -8.127   0.162  0.00  0.00    -0.101 S 
ATOM      6  C   UNL     1       0.804  -7.614   0.344  0.00  0.00    -0.010 A 
ATOM      7  C   UNL     1      -0.253  -8.120   1.271  0.00  0.00    +0.024 C 
ATOM      8  C   UNL     1      -1.603  -7.575   0.776  0.00  0.00    -0.072 C 
ATOM      9  N   UNL     1      -1.467  -6.138   0.499  0.00  0.00    +0.393 N 
ATOM     10  H   UNL     1      -1.003  -5.694   1.278  0.00  0.00    -0.080 HD
ENDROOT
BRANCH   1  15
ATOM     11  C   UNL     1       0.170  -0.248  -1.465  0.00  0.00    +0.044 C 
ATOM     12  C   UNL     1      -0.052  -1.726  -1.271  0.00  0.00    -0.050 A 
ATOM     13  C   UNL     1      -0.324  -2.533  -2.360  0.00  0.00    +0.003 A 
ATOM     14  C   UNL     1      -0.528  -3.889  -2.182  0.00  0.00    +0.002 A 
ATOM     15  C   UNL     1      -0.459  -4.438  -0.915  0.00  0.00    -0.057 A 
ATOM     16  C   UNL     1      -0.185  -3.631   0.174  0.00  0.00    +0.002 A 
ATOM     17  C   UNL     1       0.023  -2.276  -0.005  0.00  0.00    +0.003 A 
ENDBRANCH   1  15
BRANCH   9  18
ATOM     18  C   UNL     1      -2.800  -5.546   0.331  0.00  0.00    +0.020 C 
BRANCH  18  19
ATOM     19  C   UNL     1      -3.568  -5.663   1.622  0.00  0.00    +0.199 C 
ATOM     20  O   UNL     1      -3.055  -6.188   2.588  0.00  0.00    -0.278 OA
ATOM     21  N   UNL     1      -4.826  -5.184   1.704  0.00  0.00    -0.300 N 
ATOM     22  C   UNL     1      -5.462  -4.551   0.541  0.00  0.00    +0.126 C 
ATOM     23  C   UNL     1      -5.935  -3.149   0.944  0.00  0.00    +0.127 C 
ATOM     24  N   UNL     1      -6.694  -3.251   2.198  0.00  0.00    -0.289 N 
ATOM     25  C   UNL     1      -6.057  -3.884   3.361  0.00  0.00    +0.091 C 
ATOM     26  C   UNL     1      -5.587  -5.292   2.957  0.00  0.00    +0.130 C 
ATOM     27  C   UNL     1      -4.860  -3.045   3.812  0.00  0.00    +0.029 C 
ATOM     28  C   UNL     1      -7.951  -2.772   2.280  0.00  0.00    +0.282 C 
ATOM     29  O   UNL     1      -8.617  -2.980   3.277  0.00  0.00    -0.267 OA
BRANCH  28  30
ATOM     30  C   UNL     1      -8.516  -2.001   1.168  0.00  0.00    +0.189 A 
ATOM     31  C   UNL     1      -9.812  -1.586   1.056  0.00  0.00    +0.054 A 
ATOM     32  C   UNL     1      -9.908  -0.886  -0.157  0.00  0.00    +0.042 A 
ATOM     33  C   UNL     1      -8.682  -0.904  -0.725  0.00  0.00    +0.196 A 
ATOM     34  O   UNL     1      -7.845  -1.573   0.078  0.00  0.00    -0.458 OA
ENDBRANCH  28  30
ENDBRANCH  18  19
ENDBRANCH   9  18
TORSDOF 4
