REMARK  Name = ZINC06442229
REMARK  16 active torsions:
REMARK  status: ('A' for Active; 'I' for Inactive)
REMARK    1  A    between atoms: C_1  and  C_2
REMARK    2  A    between atoms: C_6  and  N_8
REMARK    3  A    between atoms: N_8  and  C_9
REMARK    4  A    between atoms: C_9  and  C_11
REMARK    5  A    between atoms: C_9  and  C_20
REMARK    6  A    between atoms: C_14  and  N_17
REMARK    7  A    between atoms: N_17  and  C_18
REMARK    8  A    between atoms: N_17  and  C_19
REMARK    9  A    between atoms: N_22  and  C_23
REMARK   10  A    between atoms: C_23  and  C_24
REMARK   11  A    between atoms: C_24  and  C_25
REMARK   12  A    between atoms: C_25  and  C_26
REMARK   13  A    between atoms: C_25  and  C_27
REMARK   14  A    between atoms: C_28  and  C_30
REMARK   15  A    between atoms: C_31  and  N_38
REMARK   16  A    between atoms: C_32  and  C_35
REMARK                            x       y       z     vdW  Elec       q    Type
REMARK                         _______ _______ _______ _____ _____    ______ ____
ROOT
ATOM      1  N   UNL     1      -0.022   5.173   0.090  0.00  0.00    -0.251 N 
ATOM      2  C   UNL     1      -0.878   5.649   1.016  0.00  0.00    +0.262 C 
ATOM      3  O   UNL     1      -0.509   6.497   1.807  0.00  0.00    -0.269 OA
ENDROOT
BRANCH   1   9
ATOM      4  C   UNL     1      -1.446   4.343  -4.542  0.00  0.00    +0.044 C 
ATOM      5  C   UNL     1      -1.173   3.854  -3.143  0.00  0.00    -0.049 A 
ATOM      6  C   UNL     1      -1.371   2.522  -2.826  0.00  0.00    +0.003 A 
ATOM      7  C   UNL     1      -1.117   2.068  -1.545  0.00  0.00    +0.002 A 
ATOM      8  C   UNL     1      -0.670   2.944  -0.576  0.00  0.00    +0.023 A 
ATOM      9  C   UNL     1      -0.475   4.283  -0.889  0.00  0.00    +0.038 A 
ATOM     10  C   UNL     1      -0.731   4.736  -2.177  0.00  0.00    +0.027 A 
ENDBRANCH   1   9
BRANCH   2  11
ATOM     11  C   UNL     1      -2.251   5.144   1.072  0.00  0.00    +0.116 A 
ATOM     12  C   UNL     1      -3.270   5.450   1.976  0.00  0.00    +0.076 A 
ATOM     13  C   UNL     1      -4.452   4.762   1.700  0.00  0.00    +0.155 A 
ATOM     14  N   UNL     1      -4.494   3.938   0.676  0.00  0.00    -0.203 NA
ATOM     15  S   UNL     1      -3.071   3.983  -0.001  0.00  0.00    +0.019 S 
BRANCH  13  16
ATOM     16  C   UNL     1      -5.642   4.955   2.549  0.00  0.00    +0.262 C 
ATOM     17  O   UNL     1      -5.596   5.718   3.495  0.00  0.00    -0.269 OA
ATOM     18  N   UNL     1      -6.780   4.287   2.277  0.00  0.00    -0.324 N 
ATOM     19  H   UNL     1      -6.816   3.678   1.523  0.00  0.00    +0.145 HD
ATOM     20  H   UNL     1      -7.563   4.414   2.836  0.00  0.00    +0.145 HD
ENDBRANCH  13  16
BRANCH  12  21
ATOM     21  N   UNL     1      -3.124   6.340   3.031  0.00  0.00    -0.355 N 
ATOM     22  H   UNL     1      -2.276   6.789   3.173  0.00  0.00    +0.142 HD
ATOM     23  H   UNL     1      -3.870   6.512   3.627  0.00  0.00    +0.142 HD
ENDBRANCH  12  21
ENDBRANCH   2  11
BRANCH   1  24
ATOM     24  C   UNL     1       1.383   5.589   0.108  0.00  0.00    +0.197 C 
BRANCH  24  25
ATOM     25  C   UNL     1       2.077   5.066  -1.122  0.00  0.00    -0.018 A 
ATOM     26  C   UNL     1       2.111   3.706  -1.370  0.00  0.00    +0.008 A 
ATOM     27  C   UNL     1       2.742   3.223  -2.499  0.00  0.00    +0.023 A 
ATOM     28  C   UNL     1       3.353   4.105  -3.382  0.00  0.00    +0.029 A 
ATOM     29  C   UNL     1       3.322   5.471  -3.127  0.00  0.00    +0.023 A 
ATOM     30  C   UNL     1       2.685   5.947  -1.998  0.00  0.00    +0.008 A 
BRANCH  28  31
ATOM     31  N   UNL     1       3.998   3.620  -4.522  0.00  0.00    -0.336 N 
ATOM     32  C   UNL     1       4.744   4.537  -5.388  0.00  0.00    +0.129 C 
ATOM     33  C   UNL     1       3.928   2.195  -4.853  0.00  0.00    +0.129 C 
ENDBRANCH  28  31
ENDBRANCH  24  25
BRANCH  24  34
ATOM     34  C   UNL     1       2.054   5.035   1.338  0.00  0.00    +0.238 C 
ATOM     35  O   UNL     1       1.422   4.359   2.122  0.00  0.00    -0.273 OA
ATOM     36  N   UNL     1       3.358   5.290   1.567  0.00  0.00    -0.313 N 
ATOM     37  H   UNL     1       3.863   5.831   0.940  0.00  0.00    +0.149 HD
BRANCH  36  38
ATOM     38  C   UNL     1       4.011   4.752   2.763  0.00  0.00    +0.104 C 
BRANCH  38  39
ATOM     39  C   UNL     1       5.478   5.186   2.782  0.00  0.00    +0.022 C 
BRANCH  39  40
ATOM     40  C   UNL     1       6.160   4.624   4.031  0.00  0.00    -0.016 C 
ATOM     41  C   UNL     1       6.191   3.096   3.951  0.00  0.00    +0.007 C 
ATOM     42  C   UNL     1       7.591   5.159   4.115  0.00  0.00    +0.007 C 
ENDBRANCH  39  40
ENDBRANCH  38  39
ENDBRANCH  36  38
ENDBRANCH  24  34
ENDBRANCH   1  24
TORSDOF 11
