REMARK  Name = ZINC28928515
REMARK  7 active torsions:
REMARK  status: ('A' for Active; 'I' for Inactive)
REMARK    1  A    between atoms: C_1  and  S_2
REMARK    2  A    between atoms: S_2  and  C_3
REMARK    3  A    between atoms: C_6  and  N_9
REMARK    4  A    between atoms: C_10  and  C_12
REMARK    5  A    between atoms: C_12  and  N_13
REMARK    6  A    between atoms: N_16  and  S_19
REMARK    7  A    between atoms: S_19  and  C_22
REMARK                            x       y       z     vdW  Elec       q    Type
REMARK                         _______ _______ _______ _____ _____    ______ ____
ROOT
ATOM      1  N   UNL     1       3.531   2.012   0.083  0.00  0.00    +0.387 N 
ATOM      2  C   UNL     1       3.579   2.701  -1.214  0.00  0.00    -0.061 C 
ATOM      3  C   UNL     1       4.581   3.858  -1.137  0.00  0.00    +0.091 C 
ATOM      4  N   UNL     1       5.870   3.330  -0.665  0.00  0.00    -0.180 NA
ATOM      5  C   UNL     1       5.881   2.512   0.557  0.00  0.00    +0.091 C 
ATOM      6  C   UNL     1       4.828   1.407   0.413  0.00  0.00    -0.061 C 
ATOM      7  H   UNL     1       3.306   2.764   0.853  0.00  0.00    -0.081 HD
ENDROOT
BRANCH   4   8
ATOM      8  S   UNL     1       7.271   3.647  -1.488  0.00  0.00    +0.061 S 
ATOM      9  O   UNL     1       7.049   4.843  -2.223  0.00  0.00    -0.153 OA
ATOM     10  O   UNL     1       8.331   3.515  -0.551  0.00  0.00    -0.153 OA
BRANCH   8  11
ATOM     11  C   UNL     1       7.482   2.361  -2.673  0.00  0.00    +0.106 A 
ATOM     12  C   UNL     1       8.186   1.220  -2.336  0.00  0.00    +0.030 A 
ATOM     13  C   UNL     1       8.348   0.207  -3.264  0.00  0.00    +0.022 A 
ATOM     14  C   UNL     1       7.814   0.341  -4.533  0.00  0.00    +0.041 A 
ATOM     15  C   UNL     1       7.114   1.486  -4.871  0.00  0.00    +0.022 A 
ATOM     16  C   UNL     1       6.948   2.495  -3.941  0.00  0.00    +0.030 A 
ATOM     17 CL   UNL     1       8.021  -0.927  -5.700  0.00  0.00    -0.084 Cl
ENDBRANCH   8  11
ENDBRANCH   4   8
BRANCH   1  18
ATOM     18  C   UNL     1       2.460   1.006   0.105  0.00  0.00    +0.019 C 
BRANCH  18  20
ATOM     19  N   UNL     1      -0.011   0.966   0.007  0.00  0.00    -0.287 N 
ATOM     20  C   UNL     1       1.123   1.694   0.006  0.00  0.00    +0.201 C 
ATOM     21  O   UNL     1       1.067   2.903  -0.076  0.00  0.00    -0.278 OA
ATOM     22  H   UNL     1       0.041  -0.133   0.009  0.00  0.00    +0.155 HD
BRANCH  19  26
ATOM     23  C   UNL     1      -3.718   2.878   0.006  0.00  0.00    +0.008 A 
ATOM     24  C   UNL     1      -2.649   3.434  -0.686  0.00  0.00    +0.016 A 
ATOM     25  C   UNL     1      -1.423   2.800  -0.686  0.00  0.00    +0.024 A 
ATOM     26  C   UNL     1      -1.257   1.608   0.007  0.00  0.00    +0.033 A 
ATOM     27  C   UNL     1      -2.326   1.050   0.695  0.00  0.00    +0.024 A 
ATOM     28  C   UNL     1      -3.551   1.685   0.699  0.00  0.00    +0.016 A 
BRANCH  23  30
ATOM     29  C   UNL     1      -6.334   2.608   1.020  0.00  0.00    +0.090 C 
ATOM     30  S   UNL     1      -5.284   3.686   0.007  0.00  0.00    -0.129 S 
ENDBRANCH  23  30
ENDBRANCH  19  26
ENDBRANCH  18  20
ENDBRANCH   1  18
TORSDOF 6
