REMARK  Name = ZINC13059984
REMARK  7 active torsions:
REMARK  status: ('A' for Active; 'I' for Inactive)
REMARK    1  A    between atoms: C_3  and  S_9
REMARK    2  A    between atoms: C_6  and  C_7
REMARK    3  A    between atoms: S_9  and  N_12
REMARK    4  A    between atoms: N_12  and  N_13
REMARK    5  A    between atoms: C_14  and  C_16
REMARK    6  A    between atoms: C_16  and  S_17
REMARK    7  A    between atoms: S_17  and  C_18
REMARK                            x       y       z     vdW  Elec       q    Type
REMARK                         _______ _______ _______ _____ _____    ______ ____
ROOT
ATOM      1  N   UNL     1      -1.202  -0.721   0.010  0.00  0.00    -0.108 NA
ATOM      2  H   UNL     1      -1.858  -0.559   0.705  0.00  0.00    +0.172 HD
ENDROOT
BRANCH   1   3
ATOM      3  N   UNL     1       0.002  -0.004   0.002  0.00  0.00    -0.231 N 
ATOM      4  C   UNL     1      -0.016   1.344   0.009  0.00  0.00    +0.238 C 
ATOM      5  O   UNL     1      -1.075   1.936   0.018  0.00  0.00    -0.274 OA
ATOM      6  H   UNL     1       0.849  -0.478  -0.009  0.00  0.00    +0.171 HD
BRANCH   4   7
ATOM      7  C   UNL     1       1.278   2.115   0.001  0.00  0.00    +0.171 C 
BRANCH   7   8
ATOM      8  S   UNL     1       0.923   3.893   0.014  0.00  0.00    -0.116 S 
BRANCH   8   9
ATOM      9  C   UNL     1       2.516   4.647   0.003  0.00  0.00    +0.008 A 
ATOM     10  C   UNL     1       3.659   3.857  -0.006  0.00  0.00    +0.016 A 
ATOM     11  C   UNL     1       4.906   4.450  -0.020  0.00  0.00    +0.021 A 
ATOM     12  C   UNL     1       5.018   5.830  -0.014  0.00  0.00    +0.041 A 
ATOM     13  C   UNL     1       3.881   6.619   0.001  0.00  0.00    +0.021 A 
ATOM     14  C   UNL     1       2.631   6.032   0.009  0.00  0.00    +0.016 A 
ATOM     15 CL   UNL     1       6.587   6.572  -0.026  0.00  0.00    -0.084 Cl
ENDBRANCH   8   9
ENDBRANCH   7   8
ENDBRANCH   4   7
ENDBRANCH   1   3
BRANCH   1  16
ATOM     16  S   UNL     1      -1.503  -1.845  -1.168  0.00  0.00    +0.074 S 
ATOM     17  O   UNL     1      -2.716  -2.493  -0.810  0.00  0.00    -0.152 OA
ATOM     18  O   UNL     1      -1.332  -1.184  -2.414  0.00  0.00    -0.152 OA
BRANCH  16  21
ATOM     19  C   UNL     1       0.587  -5.125  -0.167  0.00  0.00    +0.017 A 
ATOM     20  C   UNL     1      -0.403  -4.168  -0.252  0.00  0.00    +0.029 A 
ATOM     21  C   UNL     1      -0.233  -3.062  -1.065  0.00  0.00    +0.107 A 
ATOM     22  C   UNL     1       0.928  -2.909  -1.802  0.00  0.00    +0.029 A 
ATOM     23  C   UNL     1       1.929  -3.855  -1.722  0.00  0.00    +0.017 A 
ATOM     24  C   UNL     1       1.764  -4.974  -0.904  0.00  0.00    +0.063 A 
BRANCH  24  25
ATOM     25  C   UNL     1       2.829  -5.994  -0.817  0.00  0.00    +0.387 C 
ATOM     26  O   UNL     1       2.682  -6.966  -0.104  0.00  0.00    -0.241 OA
ATOM     27  O   UNL     1       3.963  -5.846  -1.529  0.00  0.00    -0.241 OA
ENDBRANCH  24  25
ENDBRANCH  16  21
ENDBRANCH   1  16
TORSDOF 7
