REMARK  Name = ZINC06852018
REMARK  5 active torsions:
REMARK  status: ('A' for Active; 'I' for Inactive)
REMARK    1  A    between atoms: C_3  and  C_9
REMARK    2  A    between atoms: C_6  and  C_7
REMARK    3  A    between atoms: N_11  and  C_12
REMARK    4  A    between atoms: C_15  and  S_18
REMARK    5  A    between atoms: S_18  and  N_21
REMARK                            x       y       z     vdW  Elec       q    Type
REMARK                         _______ _______ _______ _____ _____    ______ ____
ROOT
ATOM      1  C   UNL     1       6.002   2.275   0.046  0.00  0.00    +0.034 A 
ATOM      2  C   UNL     1       5.928   3.658   0.155  0.00  0.00    +0.025 A 
ATOM      3  C   UNL     1       7.086   4.405   0.237  0.00  0.00    +0.031 A 
ATOM      4  C   UNL     1       8.319   3.779   0.209  0.00  0.00    +0.113 A 
ATOM      5  C   UNL     1       8.396   2.403   0.101  0.00  0.00    +0.031 A 
ATOM      6  C   UNL     1       7.242   1.648   0.025  0.00  0.00    +0.025 A 
ENDROOT
BRANCH   1   9
ATOM      7  C   UNL     1       4.775   0.299   0.543  0.00  0.00    +0.248 C 
ATOM      8  O   UNL     1       5.767  -0.172   1.065  0.00  0.00    -0.270 OA
ATOM      9  N   UNL     1       4.832   1.515  -0.036  0.00  0.00    -0.282 N 
ATOM     10  H   UNL     1       4.060   1.862  -0.511  0.00  0.00    +0.155 HD
BRANCH   7  13
ATOM     11  C   UNL     1       2.267  -2.428   1.147  0.00  0.00    +0.019 A 
ATOM     12  C   UNL     1       3.448  -1.720   1.145  0.00  0.00    +0.014 A 
ATOM     13  C   UNL     1       3.507  -0.461   0.545  0.00  0.00    +0.037 A 
ATOM     14  C   UNL     1       2.367   0.081  -0.054  0.00  0.00    +0.014 A 
ATOM     15  C   UNL     1       1.186  -0.627  -0.052  0.00  0.00    +0.019 A 
ATOM     16  C   UNL     1       1.127  -1.887   0.548  0.00  0.00    +0.052 A 
BRANCH  16  17
ATOM     17  C   UNL     1      -0.101  -2.622   0.550  0.00  0.00    +0.099 C 
ATOM     18  N   UNL     1      -1.076  -3.206   0.551  0.00  0.00    -0.191 NA
ENDBRANCH  16  17
ENDBRANCH   7  13
ENDBRANCH   1   9
BRANCH   4  19
ATOM     19  S   UNL     1       9.794   4.737   0.312  0.00  0.00    +0.100 S 
ATOM     20  O   UNL     1      10.825   3.961  -0.283  0.00  0.00    -0.146 OA
ATOM     21  O   UNL     1       9.463   6.042  -0.142  0.00  0.00    -0.146 OA
BRANCH  19  22
ATOM     22  N   UNL     1      10.175   4.878   1.918  0.00  0.00    -0.118 NA
ATOM     23  C   UNL     1      11.226   5.541   2.277  0.00  0.00    +0.117 C 
ATOM     24  N   UNL     1      12.057   6.155   1.327  0.00  0.00    -0.331 N 
ATOM     25  C   UNL     1      12.074   7.589   1.303  0.00  0.00    +0.102 C 
ATOM     26  C   UNL     1      13.100   8.263   2.229  0.00  0.00    +0.019 C 
ATOM     27  C   UNL     1      13.146   7.543   3.600  0.00  0.00    +0.002 C 
ATOM     28  C   UNL     1      11.786   7.138   4.096  0.00  0.00    +0.008 C 
ATOM     29  C   UNL     1      11.583   5.680   3.673  0.00  0.00    +0.073 C 
ATOM     30  H   UNL     1      12.596   5.633   0.714  0.00  0.00    +0.147 HD
ENDBRANCH  19  22
ENDBRANCH   4  19
TORSDOF 5
