REMARK  Name = ZINC03376889
REMARK  5 active torsions:
REMARK  status: ('A' for Active; 'I' for Inactive)
REMARK    1  A    between atoms: C_3  and  C_22
REMARK    2  A    between atoms: C_5  and  S_7
REMARK    3  A    between atoms: S_7  and  N_10
REMARK    4  A    between atoms: N_10  and  C_11
REMARK    5  A    between atoms: C_13  and  C_18
REMARK                            x       y       z     vdW  Elec       q    Type
REMARK                         _______ _______ _______ _____ _____    ______ ____
ROOT
ATOM      1  C   UNL     1       1.362   7.288   4.375  0.00  0.00    +0.003 A 
ATOM      2  C   UNL     1       1.443   7.513   3.016  0.00  0.00    +0.013 A 
ATOM      3  C   UNL     1       1.738   6.457   2.153  0.00  0.00    +0.039 A 
ATOM      4  C   UNL     1       1.955   5.179   2.672  0.00  0.00    +0.041 A 
ATOM      5  C   UNL     1       1.865   4.966   4.032  0.00  0.00    +0.109 A 
ATOM      6  C   UNL     1       1.572   6.018   4.882  0.00  0.00    +0.029 A 
ENDROOT
BRANCH   3   7
ATOM      7  C   UNL     1       1.827   6.691   0.696  0.00  0.00    +0.247 C 
ATOM      8  O   UNL     1       1.283   5.926  -0.077  0.00  0.00    -0.270 OA
ATOM      9  N   UNL     1       2.510   7.753   0.224  0.00  0.00    -0.295 N 
ATOM     10  C   UNL     1       3.090   8.745   1.142  0.00  0.00    +0.127 C 
ATOM     11  C   UNL     1       4.569   8.938   0.772  0.00  0.00    +0.127 C 
ATOM     12  N   UNL     1       4.672   9.276  -0.654  0.00  0.00    -0.297 N 
ATOM     13  C   UNL     1       4.181   8.179  -1.499  0.00  0.00    +0.127 C 
ATOM     14  C   UNL     1       2.692   7.952  -1.221  0.00  0.00    +0.127 C 
ATOM     15  C   UNL     1       5.970   9.619  -0.990  0.00  0.00    +0.218 A 
ATOM     16  N   UNL     1       6.581   8.960  -1.964  0.00  0.00    -0.223 NA
ATOM     17  C   UNL     1       7.820   9.266  -2.314  0.00  0.00    +0.116 A 
ATOM     18  C   UNL     1       8.481  10.281  -1.641  0.00  0.00    +0.039 A 
ATOM     19  C   UNL     1       7.814  10.946  -0.623  0.00  0.00    +0.116 A 
ATOM     20  N   UNL     1       6.574  10.594  -0.327  0.00  0.00    -0.223 NA
ENDBRANCH   3   7
BRANCH   5  21
ATOM     21  S   UNL     1       2.132   3.353   4.689  0.00  0.00    +0.072 S 
ATOM     22  O   UNL     1       2.535   3.527   6.040  0.00  0.00    -0.150 OA
ATOM     23  O   UNL     1       2.927   2.655   3.740  0.00  0.00    -0.150 OA
BRANCH  21  24
ATOM     24  N   UNL     1       0.663   2.591   4.727  0.00  0.00    -0.215 N 
ATOM     25  H   UNL     1       0.297   2.285   5.572  0.00  0.00    +0.174 HD
BRANCH  24  26
ATOM     26  C   UNL     1      -0.051   2.389   3.542  0.00  0.00    +0.067 A 
ATOM     27  C   UNL     1       0.625   2.110   2.362  0.00  0.00    +0.038 A 
ATOM     28  C   UNL     1      -0.083   1.910   1.193  0.00  0.00    +0.057 A 
ATOM     29  C   UNL     1      -1.463   1.993   1.196  0.00  0.00    +0.014 A 
ATOM     30  C   UNL     1      -2.141   2.265   2.370  0.00  0.00    +0.022 A 
ATOM     31  C   UNL     1      -1.438   2.466   3.543  0.00  0.00    +0.063 A 
ATOM     32 CL   UNL     1      -2.289   2.814   5.016  0.00  0.00    -0.082 Cl
BRANCH  28  33
ATOM     33  C   UNL     1       0.650   1.608  -0.089  0.00  0.00    +0.417 C 
ATOM     34  F   UNL     1       0.806   0.224  -0.222  0.00  0.00    -0.166 F 
ATOM     35  F   UNL     1       1.909   2.218  -0.061  0.00  0.00    -0.166 F 
ATOM     36  F   UNL     1      -0.084   2.101  -1.173  0.00  0.00    -0.166 F 
ENDBRANCH  28  33
ENDBRANCH  24  26
ENDBRANCH  21  24
ENDBRANCH   5  21
TORSDOF 5
