REMARK  Name = ZINC59057671
REMARK  11 active torsions:
REMARK  status: ('A' for Active; 'I' for Inactive)
REMARK    1  A    between atoms: C_1  and  C_2
REMARK    2  A    between atoms: C_4  and  C_7
REMARK    3  A    between atoms: C_7  and  S_8
REMARK    4  A    between atoms: S_8  and  C_9
REMARK    5  A    between atoms: C_12  and  C_15
REMARK    6  A    between atoms: N_17  and  C_18
REMARK    7  A    between atoms: C_18  and  C_19
REMARK    8  A    between atoms: C_22  and  C_25
REMARK    9  A    between atoms: C_25  and  N_26
REMARK   10  A    between atoms: C_28  and  C_35
REMARK   11  A    between atoms: C_31  and  C_34
REMARK                            x       y       z     vdW  Elec       q    Type
REMARK                         _______ _______ _______ _____ _____    ______ ____
ROOT
ATOM      1  C   UNL     1       1.226  -8.306  -5.841  0.00  0.00    +0.244 C 
ATOM      2  O   UNL     1       0.124  -8.711  -6.157  0.00  0.00    -0.270 OA
ATOM      3  N   UNL     1       2.330  -8.903  -6.334  0.00  0.00    -0.307 N 
ATOM      4  H   UNL     1       3.209  -8.580  -6.082  0.00  0.00    +0.149 HD
ENDROOT
BRANCH   1   8
ATOM      5  C   UNL     1       1.598  -5.019  -3.188  0.00  0.00    +0.008 A 
ATOM      6  C   UNL     1       0.335  -5.481  -3.549  0.00  0.00    +0.015 A 
ATOM      7  C   UNL     1       0.211  -6.543  -4.407  0.00  0.00    +0.014 A 
ATOM      8  C   UNL     1       1.355  -7.163  -4.919  0.00  0.00    +0.037 A 
ATOM      9  C   UNL     1       2.622  -6.697  -4.554  0.00  0.00    +0.014 A 
ATOM     10  C   UNL     1       2.740  -5.631  -3.700  0.00  0.00    +0.015 A 
BRANCH   5  11
ATOM     11  S   UNL     1       1.752  -3.653  -2.085  0.00  0.00    -0.116 S 
BRANCH  11  12
ATOM     12  C   UNL     1       0.038  -3.206  -1.697  0.00  0.00    +0.173 C 
BRANCH  12  16
ATOM     13  C   UNL     1      -0.018   1.503   0.010  0.00  0.00    +0.091 C 
ATOM     14  C   UNL     1       0.002  -0.004   0.002  0.00  0.00    +0.169 A 
ATOM     15  N   UNL     1       0.008  -0.776  -1.091  0.00  0.00    -0.196 NA
ATOM     16  C   UNL     1       0.026  -2.034  -0.750  0.00  0.00    +0.238 A 
ATOM     17  O   UNL     1       0.033  -2.107   0.587  0.00  0.00    -0.337 OA
ATOM     18  N   UNL     1       0.023  -0.767   1.057  0.00  0.00    -0.062 NA
ENDBRANCH  12  16
ENDBRANCH  11  12
ENDBRANCH   5  11
ENDBRANCH   1   8
BRANCH   3  19
ATOM     19  C   UNL     1       2.201 -10.039  -7.251  0.00  0.00    +0.139 C 
BRANCH  19  20
ATOM     20  C   UNL     1       3.572 -10.518  -7.652  0.00  0.00    -0.030 A 
ATOM     21  C   UNL     1       4.195  -9.982  -8.764  0.00  0.00    +0.005 A 
ATOM     22  C   UNL     1       5.452 -10.422  -9.131  0.00  0.00    +0.002 A 
ATOM     23  C   UNL     1       6.088 -11.398  -8.387  0.00  0.00    -0.064 A 
ATOM     24  C   UNL     1       5.467 -11.933  -7.275  0.00  0.00    +0.002 A 
ATOM     25  C   UNL     1       4.211 -11.491  -6.904  0.00  0.00    +0.005 A 
BRANCH  23  26
ATOM     26  C   UNL     1       7.459 -11.878  -8.789  0.00  0.00    -0.043 C 
BRANCH  26  27
ATOM     27  N   UNL     1       8.480 -11.055  -8.126  0.00  0.00    +0.383 N 
ATOM     28  C   UNL     1       8.385  -9.674  -8.614  0.00  0.00    -0.075 C 
ATOM     29  C   UNL     1       9.391  -8.795  -7.869  0.00  0.00    -0.031 C 
ATOM     30  C   UNL     1      10.806  -9.328  -8.114  0.00  0.00    +0.003 C 
ATOM     31  C   UNL     1      10.873 -10.792  -7.670  0.00  0.00    -0.031 C 
ATOM     32  C   UNL     1       9.811 -11.597  -8.422  0.00  0.00    -0.075 C 
ATOM     33  C   UNL     1      10.612 -10.882  -6.165  0.00  0.00    +0.005 C 
ATOM     34  C   UNL     1       9.291  -7.356  -8.380  0.00  0.00    +0.005 C 
ATOM     35  H   UNL     1       8.326 -11.068  -7.129  0.00  0.00    -0.081 HD
ENDBRANCH  26  27
ENDBRANCH  23  26
ENDBRANCH  19  20
ENDBRANCH   3  19
TORSDOF 8
