REMARK  Name = ZINC04197594
REMARK  3 active torsions:
REMARK  status: ('A' for Active; 'I' for Inactive)
REMARK    1  A    between atoms: C_4  and  C_7
REMARK    2  A    between atoms: C_7  and  C_9
REMARK    3  A    between atoms: C_12  and  C_14
REMARK                            x       y       z     vdW  Elec       q    Type
REMARK                         _______ _______ _______ _____ _____    ______ ____
ROOT
ATOM      1  C   UNL     1       3.723  -2.150   0.064  0.00  0.00    +0.289 A 
ATOM      2  N   UNL     1       2.677  -2.949   0.078  0.00  0.00    -0.103 NA
ATOM      3  N   UNL     1       3.075  -4.169   0.178  0.00  0.00    -0.107 NA
ATOM      4  C   UNL     1       4.393  -4.195   0.233  0.00  0.00    +0.252 A 
ATOM      5  O   UNL     1       4.826  -2.924   0.156  0.00  0.00    -0.413 OA
ENDROOT
BRANCH   4   6
ATOM      6  C   UNL     1       5.238  -5.399   0.351  0.00  0.00    +0.074 A 
ATOM      7  C   UNL     1       6.629  -5.278   0.405  0.00  0.00    +0.016 A 
ATOM      8  C   UNL     1       7.412  -6.407   0.515  0.00  0.00    +0.001 A 
ATOM      9  C   UNL     1       6.825  -7.660   0.572  0.00  0.00    +0.003 A 
ATOM     10  C   UNL     1       5.450  -7.790   0.520  0.00  0.00    +0.039 A 
ATOM     11  C   UNL     1       4.650  -6.667   0.415  0.00  0.00    +0.136 A 
ATOM     12  F   UNL     1       3.306  -6.794   0.369  0.00  0.00    -0.205 F 
ENDBRANCH   4   6
BRANCH   1  13
ATOM     13  C   UNL     1       3.696  -0.684  -0.038  0.00  0.00    +0.249 C 
ATOM     14  O   UNL     1       4.737  -0.061  -0.131  0.00  0.00    -0.282 OA
BRANCH  13  18
ATOM     15  C   UNL     1      -0.018   1.378  -0.012  0.00  0.00    +0.000 A 
ATOM     16  C   UNL     1       1.156   2.076  -0.239  0.00  0.00    +0.001 A 
ATOM     17  C   UNL     1       2.365   1.413  -0.249  0.00  0.00    +0.012 A 
ATOM     18  C   UNL     1       2.404   0.034  -0.029  0.00  0.00    +0.027 A 
ATOM     19  C   UNL     1       1.215  -0.664   0.200  0.00  0.00    +0.012 A 
ATOM     20  C   UNL     1       0.013   0.012   0.206  0.00  0.00    +0.001 A 
ENDBRANCH  13  18
ENDBRANCH   1  13
TORSDOF 3
