REMARK  Name = ZINC11997839
REMARK  8 active torsions:
REMARK  status: ('A' for Active; 'I' for Inactive)
REMARK    1  A    between atoms: C_3  and  C_11
REMARK    2  A    between atoms: C_5  and  C_7
REMARK    3  A    between atoms: N_13  and  C_14
REMARK    4  A    between atoms: C_18  and  N_20
REMARK    5  A    between atoms: C_23  and  N_61
REMARK    6  A    between atoms: C_26  and  C_27
REMARK    7  A    between atoms: C_26  and  N_61
REMARK    8  A    between atoms: C_27  and  N_28
REMARK                            x       y       z     vdW  Elec       q    Type
REMARK                         _______ _______ _______ _____ _____    ______ ____
ROOT
ATOM      1  C   UNL     1      -0.064   0.785   4.755  0.00  0.00    +0.035 A 
ATOM      2  C   UNL     1       0.893  -0.214   4.621  0.00  0.00    +0.023 A 
ATOM      3  C   UNL     1       1.396  -0.528   3.373  0.00  0.00    +0.004 A 
ATOM      4  C   UNL     1       0.947   0.147   2.254  0.00  0.00    +0.023 A 
ATOM      5  C   UNL     1      -0.005   1.151   2.382  0.00  0.00    +0.031 A 
ATOM      6  C   UNL     1      -0.512   1.468   3.634  0.00  0.00    +0.046 A 
ENDROOT
BRANCH   5   7
ATOM      7  N   UNL     1      -0.454   1.837   1.251  0.00  0.00    -0.330 N 
ATOM      8  C   UNL     1       0.211   1.344   0.038  0.00  0.00    +0.103 C 
ATOM      9  C   UNL     1      -0.408   2.012  -1.192  0.00  0.00    +0.003 C 
ATOM     10  C   UNL     1      -0.244   3.530  -1.079  0.00  0.00    -0.069 C 
ATOM     11  C   UNL     1      -0.903   4.011   0.217  0.00  0.00    +0.003 C 
ATOM     12  C   UNL     1      -0.270   3.285   1.406  0.00  0.00    +0.103 C 
BRANCH  10  13
ATOM     13  N   UNL     1      -0.895   4.176  -2.234  0.00  0.00    +0.382 N 
ATOM     14  H   UNL     1      -1.895   4.298  -2.036  0.00  0.00    -0.085 HD
ATOM     15  H   UNL     1      -0.780   3.581  -3.063  0.00  0.00    -0.085 HD
BRANCH  13  16
ATOM     16  C   UNL     1      -0.286   5.494  -2.494  0.00  0.00    -0.063 C 
BRANCH  16  17
ATOM     17  C   UNL     1      -0.979   6.139  -3.695  0.00  0.00    +0.090 C 
BRANCH  17  18
ATOM     18  N   UNL     1      -0.380   7.449  -3.960  0.00  0.00    -0.286 N 
ATOM     19  C   UNL     1       0.765   7.699  -4.848  0.00  0.00    +0.128 C 
ATOM     20  C   UNL     1       0.975   9.223  -4.760  0.00  0.00    +0.124 C 
ATOM     21  N   UNL     1      -0.073   9.671  -3.831  0.00  0.00    -0.298 N 
ATOM     22  C   UNL     1      -0.791   8.611  -3.435  0.00  0.00    +0.302 C 
ATOM     23  O   UNL     1      -1.729   8.696  -2.666  0.00  0.00    -0.253 OA
ATOM     24  H   UNL     1      -0.224  10.587  -3.553  0.00  0.00    +0.150 HD
ENDBRANCH  17  18
ENDBRANCH  16  17
ENDBRANCH  13  16
ENDBRANCH  10  13
ENDBRANCH   5   7
BRANCH   1  27
ATOM     25  C   UNL     1      -1.853   1.501   6.148  0.00  0.00    +0.248 C 
ATOM     26  O   UNL     1      -2.593   1.495   5.183  0.00  0.00    -0.270 OA
ATOM     27  N   UNL     1      -0.573   1.101   6.018  0.00  0.00    -0.281 N 
ATOM     28  H   UNL     1      -0.005   1.033   6.801  0.00  0.00    +0.155 HD
BRANCH  25  31
ATOM     29  C   UNL     1      -1.991   2.373   9.798  0.00  0.00    +0.001 A 
ATOM     30  C   UNL     1      -1.513   1.956   8.573  0.00  0.00    +0.013 A 
ATOM     31  C   UNL     1      -2.359   1.947   7.463  0.00  0.00    +0.038 A 
ATOM     32  C   UNL     1      -3.683   2.367   7.599  0.00  0.00    +0.025 A 
ATOM     33  C   UNL     1      -4.150   2.778   8.831  0.00  0.00    +0.056 A 
ATOM     34  C   UNL     1      -3.306   2.784   9.927  0.00  0.00    +0.012 A 
BRANCH  33  35
ATOM     35  C   UNL     1      -5.581   3.228   8.981  0.00  0.00    +0.417 C 
ATOM     36  F   UNL     1      -5.816   3.599  10.309  0.00  0.00    -0.166 F 
ATOM     37  F   UNL     1      -5.816   4.322   8.142  0.00  0.00    -0.166 F 
ATOM     38  F   UNL     1      -6.438   2.179   8.631  0.00  0.00    -0.166 F 
ENDBRANCH  33  35
ENDBRANCH  25  31
ENDBRANCH   1  27
TORSDOF 8
