REMARK  Name = ZINC01195142
REMARK  2 active torsions:
REMARK  status: ('A' for Active; 'I' for Inactive)
REMARK    1  A    between atoms: C_3  and  C_8
REMARK    2  A    between atoms: N_13  and  C_16
REMARK                            x       y       z     vdW  Elec       q    Type
REMARK                         _______ _______ _______ _____ _____    ______ ____
ROOT
ATOM      1  C   UNL     1      -1.256  -0.759   0.009  0.00  0.00    +0.026 C 
ATOM      2  C   UNL     1      -1.236  -2.131  -0.102  0.00  0.00    +0.102 C 
ATOM      3  C   UNL     1      -0.051  -3.013  -0.134  0.00  0.00    +0.266 C 
ATOM      4  O   UNL     1       1.113  -2.666  -0.066  0.00  0.00    -0.268 OA
ATOM      5  N   UNL     1      -0.508  -4.274  -0.253  0.00  0.00    -0.223 N 
ATOM      6  N   UNL     1      -1.901  -4.290  -0.301  0.00  0.00    -0.184 N 
ATOM      7  C   UNL     1      -2.394  -3.040  -0.209  0.00  0.00    +0.272 C 
ATOM      8  O   UNL     1      -3.568  -2.722  -0.216  0.00  0.00    -0.268 OA
ATOM      9  H   UNL     1       0.055  -5.063  -0.298  0.00  0.00    +0.174 HD
ENDROOT
BRANCH   6  10
ATOM     10  C   UNL     1      -2.680  -5.446  -0.422  0.00  0.00    +0.058 A 
ATOM     11  C   UNL     1      -2.070  -6.691  -0.503  0.00  0.00    +0.027 A 
ATOM     12  C   UNL     1      -2.840  -7.831  -0.622  0.00  0.00    +0.023 A 
ATOM     13  C   UNL     1      -4.220  -7.734  -0.660  0.00  0.00    +0.059 A 
ATOM     14  C   UNL     1      -4.832  -6.494  -0.580  0.00  0.00    +0.061 A 
ATOM     15  C   UNL     1      -4.065  -5.351  -0.455  0.00  0.00    +0.046 A 
ATOM     16 CL   UNL     1      -6.563  -6.376  -0.628  0.00  0.00    -0.082 Cl
ATOM     17 CL   UNL     1      -5.186  -9.168  -0.810  0.00  0.00    -0.082 Cl
ENDBRANCH   6  10
BRANCH   1  20
ATOM     18  C   UNL     1       2.098   0.144   1.419  0.00  0.00    +0.002 A 
ATOM     19  C   UNL     1       0.933  -0.550   1.170  0.00  0.00    +0.008 A 
ATOM     20  C   UNL     1      -0.014  -0.027   0.280  0.00  0.00    -0.023 A 
ATOM     21  C   UNL     1       0.233   1.199  -0.351  0.00  0.00    +0.023 A 
ATOM     22  C   UNL     1       1.404   1.880  -0.091  0.00  0.00    +0.018 A 
ATOM     23  C   UNL     1       2.334   1.355   0.791  0.00  0.00    +0.015 A 
ATOM     24 BR   UNL     1       1.740   3.536  -0.940  0.00  0.00    -0.050 Br
ENDBRANCH   1  20
TORSDOF 2
