REMARK  Name = ZINC01312260
REMARK  3 active torsions:
REMARK  status: ('A' for Active; 'I' for Inactive)
REMARK    1  A    between atoms: C_6  and  N_7
REMARK    2  A    between atoms: C_8  and  C_10
REMARK    3  A    between atoms: C_17  and  C_19
REMARK                            x       y       z     vdW  Elec       q    Type
REMARK                         _______ _______ _______ _____ _____    ______ ____
ROOT
ATOM      1  C   UNL     1       1.171   1.790   0.190  0.00  0.00    +0.027 A 
ATOM      2  C   UNL     1      -0.012   1.083   0.205  0.00  0.00    +0.050 A 
ATOM      3  C   UNL     1      -1.218   1.746   0.037  0.00  0.00    +0.156 A 
ATOM      4  C   UNL     1      -1.234   3.140  -0.135  0.00  0.00    +0.112 A 
ATOM      5  C   UNL     1      -0.031   3.849  -0.148  0.00  0.00    +0.055 A 
ATOM      6  C   UNL     1       1.165   3.172   0.014  0.00  0.00    +0.036 A 
ATOM      7  N   UNL     1      -2.536   3.502  -0.264  0.00  0.00    -0.209 NA
ATOM      8  C   UNL     1      -3.281   2.429  -0.191  0.00  0.00    +0.230 A 
ATOM      9  O   UNL     1      -2.509   1.343   0.000  0.00  0.00    -0.435 OA
ENDROOT
BRANCH   8  10
ATOM     10  C   UNL     1      -4.756   2.413  -0.290  0.00  0.00    +0.056 A 
ATOM     11  C   UNL     1      -5.463   1.208  -0.192  0.00  0.00    +0.031 A 
ATOM     12  C   UNL     1      -6.843   1.248  -0.286  0.00  0.00    +0.037 A 
ATOM     13  C   UNL     1      -7.473   2.465  -0.484  0.00  0.00    +0.126 A 
ATOM     14  N   UNL     1      -6.780   3.583  -0.578  0.00  0.00    -0.261 NA
ATOM     15  C   UNL     1      -5.466   3.597  -0.489  0.00  0.00    +0.124 A 
ATOM     16 BR   UNL     1      -7.857  -0.343  -0.154  0.00  0.00    -0.049 Br
ENDBRANCH   8  10
BRANCH   6  17
ATOM     17  N   UNL     1       2.373   3.879   0.001  0.00  0.00    -0.279 N 
ATOM     18  C   UNL     1       3.483   3.307  -0.506  0.00  0.00    +0.284 C 
ATOM     19  O   UNL     1       3.416   2.215  -1.039  0.00  0.00    -0.266 OA
ATOM     20  H   UNL     1       2.412   4.780   0.357  0.00  0.00    +0.155 HD
BRANCH  18  21
ATOM     21  C   UNL     1       4.771   3.999  -0.415  0.00  0.00    +0.191 A 
ATOM     22  C   UNL     1       5.968   3.533  -0.880  0.00  0.00    +0.056 A 
ATOM     23  C   UNL     1       6.926   4.514  -0.585  0.00  0.00    +0.058 A 
ATOM     24  C   UNL     1       6.282   5.522   0.048  0.00  0.00    +0.171 A 
ATOM     25  O   UNL     1       4.984   5.207   0.149  0.00  0.00    -0.444 OA
ATOM     26 BR   UNL     1       7.083   7.112   0.686  0.00  0.00    -0.008 Br
ENDBRANCH  18  21
ENDBRANCH   6  17
TORSDOF 3
