REMARK  Name = ZINC16002696
REMARK  8 active torsions:
REMARK  status: ('A' for Active; 'I' for Inactive)
REMARK    1  A    between atoms: C_1  and  N_2
REMARK    2  A    between atoms: N_5  and  C_8
REMARK    3  A    between atoms: C_13  and  N_14
REMARK    4  A    between atoms: C_15  and  C_17
REMARK    5  A    between atoms: C_17  and  S_18
REMARK    6  A    between atoms: S_18  and  C_19
REMARK    7  A    between atoms: C_22  and  C_28
REMARK    8  A    between atoms: C_24  and  N_25
REMARK                            x       y       z     vdW  Elec       q    Type
REMARK                         _______ _______ _______ _____ _____    ______ ____
ROOT
ATOM      1  N   UNL     1       0.378  -5.247  -0.031  0.00  0.00    -0.283 N 
ATOM      2  C   UNL     1      -0.008  -6.442   0.456  0.00  0.00    +0.227 C 
ATOM      3  O   UNL     1       0.808  -7.183   0.964  0.00  0.00    -0.275 OA
ATOM      4  H   UNL     1      -0.285  -4.621  -0.363  0.00  0.00    +0.155 HD
ENDROOT
BRANCH   1  10
ATOM      5  C   UNL     1       2.123  -3.566  -0.059  0.00  0.00    +0.051 A 
ATOM      6  C   UNL     1       3.470  -3.236  -0.080  0.00  0.00    +0.026 A 
ATOM      7  C   UNL     1       4.426  -4.234  -0.105  0.00  0.00    +0.022 A 
ATOM      8  C   UNL     1       4.044  -5.564  -0.108  0.00  0.00    +0.043 A 
ATOM      9  C   UNL     1       2.703  -5.902  -0.088  0.00  0.00    +0.045 A 
ATOM     10  C   UNL     1       1.737  -4.906  -0.057  0.00  0.00    +0.056 A 
ATOM     11 CL   UNL     1       5.250  -6.811  -0.140  0.00  0.00    -0.083 Cl
BRANCH   5  16
ATOM     12  C   UNL     1       0.005   1.466   0.009  0.00  0.00    -0.096 C 
ATOM     13  N   UNL     1       0.020  -0.003   0.001  0.00  0.00    +0.380 N 
ATOM     14  C   UNL     1       0.687  -0.478  -1.217  0.00  0.00    -0.060 C 
ATOM     15  C   UNL     1       0.602  -2.006  -1.282  0.00  0.00    +0.086 C 
ATOM     16  N   UNL     1       1.153  -2.557  -0.034  0.00  0.00    -0.332 N 
ATOM     17  C   UNL     1       0.655  -2.018   1.241  0.00  0.00    +0.086 C 
ATOM     18  C   UNL     1       0.737  -0.489   1.187  0.00  0.00    -0.060 C 
ATOM     19  H   UNL     1      -0.928  -0.348   0.019  0.00  0.00    -0.082 HD
ENDBRANCH   5  16
ENDBRANCH   1  10
BRANCH   2  20
ATOM     20  C   UNL     1      -1.454  -6.860   0.371  0.00  0.00    +0.170 C 
BRANCH  20  21
ATOM     21  S   UNL     1      -1.652  -8.506   1.107  0.00  0.00    -0.114 S 
BRANCH  21  22
ATOM     22  C   UNL     1      -3.372  -8.846   0.932  0.00  0.00    +0.039 A 
ATOM     23  C   UNL     1      -4.207  -7.912   0.323  0.00  0.00    +0.018 A 
ATOM     24  C   UNL     1      -5.541  -8.171   0.185  0.00  0.00    +0.014 A 
ATOM     25  C   UNL     1      -6.074  -9.375   0.655  0.00  0.00    +0.039 A 
ATOM     26  C   UNL     1      -5.237 -10.315   1.266  0.00  0.00    +0.047 A 
ATOM     27  C   UNL     1      -3.893 -10.052   1.397  0.00  0.00    +0.140 A 
BRANCH  25  28
ATOM     28  C   UNL     1      -7.514  -9.654   0.507  0.00  0.00    +0.242 C 
ATOM     29  O   UNL     1      -7.976 -10.702   0.916  0.00  0.00    -0.270 OA
ATOM     30  N   UNL     1      -8.319  -8.748  -0.082  0.00  0.00    -0.325 N 
ATOM     31  H   UNL     1      -7.950  -7.912  -0.409  0.00  0.00    +0.145 HD
ATOM     32  H   UNL     1      -9.266  -8.931  -0.180  0.00  0.00    +0.145 HD
ENDBRANCH  25  28
BRANCH  27  33
ATOM     33  N   UNL     1      -3.003 -11.045   2.038  0.00  0.00    +0.058 N 
ATOM     34  O   UNL     1      -3.455 -12.091   2.442  0.00  0.00    -0.126 OA
ATOM     35  O   UNL     1      -1.823 -10.811   2.158  0.00  0.00    -0.126 OA
ENDBRANCH  27  33
ENDBRANCH  21  22
ENDBRANCH  20  21
ENDBRANCH   2  20
TORSDOF 7
