REMARK  Name = ZINC02671579
REMARK  7 active torsions:
REMARK  status: ('A' for Active; 'I' for Inactive)
REMARK    1  A    between atoms: C_1  and  C_2
REMARK    2  A    between atoms: C_5  and  C_8
REMARK    3  A    between atoms: C_8  and  N_9
REMARK    4  A    between atoms: C_13  and  C_14
REMARK    5  A    between atoms: C_15  and  S_26
REMARK    6  A    between atoms: C_20  and  C_25
REMARK    7  A    between atoms: S_26  and  C_27
REMARK                            x       y       z     vdW  Elec       q    Type
REMARK                         _______ _______ _______ _____ _____    ______ ____
ROOT
ATOM      1  C   UNL     1       5.195   2.061  -0.347  0.00  0.00    +0.073 A 
ATOM      2  C   UNL     1       3.800   2.268  -0.469  0.00  0.00    +0.116 A 
ATOM      3  N   UNL     1       3.319   3.503  -0.444  0.00  0.00    -0.222 NA
ATOM      4  C   UNL     1       4.117   4.562  -0.311  0.00  0.00    +0.141 A 
ATOM      5  C   UNL     1       3.548   5.849  -0.290  0.00  0.00    +0.047 A 
ATOM      6  C   UNL     1       4.356   6.939  -0.154  0.00  0.00    +0.008 A 
ATOM      7  C   UNL     1       5.742   6.762  -0.035  0.00  0.00    -0.034 A 
ATOM      8  C   UNL     1       6.271   5.518  -0.056  0.00  0.00    +0.099 A 
ATOM      9  N   UNL     1       5.472   4.422  -0.193  0.00  0.00    -0.267 N 
ATOM     10  C   UNL     1       6.033   3.193  -0.211  0.00  0.00    +0.267 A 
ATOM     11  O   UNL     1       7.240   3.062  -0.106  0.00  0.00    -0.267 OA
ATOM     12  C   UNL     1       6.643   7.960   0.117  0.00  0.00    +0.045 C 
ENDROOT
BRANCH   1  17
ATOM     13  N   UNL     1       5.087  -2.255   1.619  0.00  0.00    -0.251 N 
ATOM     14  C   UNL     1       5.624  -1.559   0.632  0.00  0.00    +0.259 C 
ATOM     15  O   UNL     1       6.365  -2.089  -0.177  0.00  0.00    -0.269 OA
ATOM     16  C   UNL     1       5.316  -0.172   0.544  0.00  0.00    +0.077 C 
ATOM     17  C   UNL     1       5.738   0.755  -0.365  0.00  0.00    +0.036 C 
ATOM     18  S   UNL     1       4.221   0.024   1.943  0.00  0.00    -0.061 S 
ATOM     19  C   UNL     1       4.260  -1.669   2.513  0.00  0.00    +0.121 C 
ATOM     20  S   UNL     1       3.455  -2.370   3.851  0.00  0.00    -0.027 S 
BRANCH  13  21
ATOM     21  C   UNL     1       5.388  -3.684   1.742  0.00  0.00    +0.150 C 
BRANCH  21  26
ATOM     22  C   UNL     1       1.518  -6.734  -1.277  0.00  0.00    +0.044 C 
ATOM     23  C   UNL     1       2.527  -5.939  -0.489  0.00  0.00    -0.050 A 
ATOM     24  C   UNL     1       3.693  -5.508  -1.095  0.00  0.00    +0.003 A 
ATOM     25  C   UNL     1       4.619  -4.779  -0.373  0.00  0.00    +0.005 A 
ATOM     26  C   UNL     1       4.378  -4.479   0.955  0.00  0.00    -0.030 A 
ATOM     27  C   UNL     1       3.215  -4.913   1.562  0.00  0.00    +0.005 A 
ATOM     28  C   UNL     1       2.287  -5.639   0.839  0.00  0.00    +0.003 A 
ENDBRANCH  21  26
ENDBRANCH  13  21
ENDBRANCH   1  17
BRANCH   2  29
ATOM     29  S   UNL     1       2.711   0.894  -0.646  0.00  0.00    -0.069 S 
BRANCH  29  30
ATOM     30  C   UNL     1       1.189   1.742  -0.905  0.00  0.00    +0.014 A 
ATOM     31  C   UNL     1       0.832   2.157  -2.183  0.00  0.00    +0.015 A 
ATOM     32  C   UNL     1      -0.360   2.825  -2.382  0.00  0.00    +0.001 A 
ATOM     33  C   UNL     1      -1.202   3.074  -1.313  0.00  0.00    +0.000 A 
ATOM     34  C   UNL     1      -0.850   2.662  -0.041  0.00  0.00    +0.001 A 
ATOM     35  C   UNL     1       0.342   1.998   0.167  0.00  0.00    +0.015 A 
ENDBRANCH  29  30
ENDBRANCH   2  29
TORSDOF 5
