REMARK  Name = ZINC66147641
REMARK  12 active torsions:
REMARK  status: ('A' for Active; 'I' for Inactive)
REMARK    1  A    between atoms: C_1  and  C_2
REMARK    2  A    between atoms: C_2  and  C_3
REMARK    3  A    between atoms: C_3  and  C_4
REMARK    4  A    between atoms: C_4  and  C_6
REMARK    5  A    between atoms: C_4  and  N_22
REMARK    6  A    between atoms: N_8  and  N_9
REMARK    7  A    between atoms: N_9  and  C_10
REMARK    8  A    between atoms: C_10  and  N_12
REMARK    9  A    between atoms: N_12  and  C_13
REMARK   10  A    between atoms: C_18  and  C_19
REMARK   11  A    between atoms: C_19  and  C_20
REMARK   12  A    between atoms: C_19  and  C_21
REMARK                            x       y       z     vdW  Elec       q    Type
REMARK                         _______ _______ _______ _____ _____    ______ ____
ROOT
ATOM      1  C   UNL     1       1.704  -2.884  -1.943  0.00  0.00    +0.249 C 
ATOM      2  O   UNL     1       1.074  -3.359  -2.864  0.00  0.00    -0.272 OA
ATOM      3  N   UNL     1       2.969  -2.462  -2.140  0.00  0.00    -0.234 N 
ATOM      4  H   UNL     1       3.474  -2.082  -1.404  0.00  0.00    +0.173 HD
ENDROOT
BRANCH   3   5
ATOM      5  N   UNL     1       3.555  -2.571  -3.408  0.00  0.00    -0.246 N 
ATOM      6  H   UNL     1       3.050  -2.951  -4.144  0.00  0.00    +0.172 HD
BRANCH   5   7
ATOM      7  C   UNL     1       4.819  -2.148  -3.605  0.00  0.00    +0.151 C 
ATOM      8  S   UNL     1       5.535  -2.282  -5.154  0.00  0.00    -0.017 S 
BRANCH   7   9
ATOM      9  N   UNL     1       5.520  -1.620  -2.582  0.00  0.00    -0.296 N 
ATOM     10  H   UNL     1       5.090  -1.471  -1.726  0.00  0.00    +0.154 HD
BRANCH   9  11
ATOM     11  C   UNL     1       6.868  -1.288  -2.756  0.00  0.00    +0.036 A 
ATOM     12  C   UNL     1       7.724  -2.168  -3.405  0.00  0.00    +0.023 A 
ATOM     13  C   UNL     1       9.054  -1.837  -3.575  0.00  0.00    +0.002 A 
ATOM     14  C   UNL     1       9.534  -0.631  -3.099  0.00  0.00    +0.000 A 
ATOM     15  C   UNL     1       8.684   0.248  -2.452  0.00  0.00    +0.006 A 
ATOM     16  C   UNL     1       7.352  -0.074  -2.285  0.00  0.00    -0.024 A 
BRANCH  16  17
ATOM     17  C   UNL     1       6.425   0.886  -1.585  0.00  0.00    +0.015 C 
ATOM     18  C   UNL     1       6.913   1.115  -0.153  0.00  0.00    +0.012 C 
ATOM     19  C   UNL     1       6.410   2.219  -2.337  0.00  0.00    +0.012 C 
ENDBRANCH  16  17
ENDBRANCH   9  11
ENDBRANCH   7   9
ENDBRANCH   5   7
ENDBRANCH   3   5
BRANCH   1  20
ATOM     20  C   UNL     1       1.075  -2.767  -0.579  0.00  0.00    +0.162 C 
BRANCH  20  21
ATOM     21  N   UNL     1      -0.293  -3.291  -0.626  0.00  0.00    -0.288 N 
ATOM     22  C   UNL     1      -0.873  -3.760   0.496  0.00  0.00    +0.298 C 
ATOM     23  O   UNL     1      -0.263  -3.747   1.548  0.00  0.00    -0.253 OA
ATOM     24  N   UNL     1      -2.131  -4.242   0.454  0.00  0.00    -0.313 N 
ATOM     25  H   UNL     1      -0.780  -3.301  -1.464  0.00  0.00    +0.151 HD
ATOM     26  H   UNL     1      -2.618  -4.252  -0.385  0.00  0.00    +0.146 HD
ATOM     27  H   UNL     1      -2.549  -4.579   1.261  0.00  0.00    +0.146 HD
ENDBRANCH  20  21
BRANCH  20  28
ATOM     28  C   UNL     1       1.043  -1.296  -0.157  0.00  0.00    +0.031 C 
BRANCH  28  30
ATOM     29  C   UNL     1       0.487   0.282   1.698  0.00  0.00    +0.004 C 
ATOM     30  C   UNL     1       0.519  -1.188   1.276  0.00  0.00    -0.001 C 
ENDBRANCH  28  30
ENDBRANCH  20  28
ENDBRANCH   1  20
TORSDOF 9
