REMARK  Name = ZINC63351267
REMARK  2 active torsions:
REMARK  status: ('A' for Active; 'I' for Inactive)
REMARK    1  A    between atoms: C_8  and  C_32
REMARK    2  A    between atoms: N_19  and  C_22
REMARK                            x       y       z     vdW  Elec       q    Type
REMARK                         _______ _______ _______ _____ _____    ______ ____
ROOT
ATOM      1  C   UNL     1       0.046   1.389  -0.046  0.00  0.00    +0.001 A 
ATOM      2  C   UNL     1       1.214   2.158  -0.040  0.00  0.00    +0.002 A 
ATOM      3  C   UNL     1       2.471   1.646  -0.032  0.00  0.00    +0.026 A 
ATOM      4  C   UNL     1       2.601   0.227  -0.032  0.00  0.00    +0.043 A 
ATOM      5  N   UNL     1       3.663  -0.522  -0.044  0.00  0.00    -0.375 N 
ATOM      6  C   UNL     1       3.244  -1.924   0.024  0.00  0.00    +0.131 C 
ATOM      7  C   UNL     1       3.756  -2.716  -1.187  0.00  0.00    +0.135 C 
ATOM      8  N   UNL     1       2.908  -3.906  -1.325  0.00  0.00    -0.264 N 
ATOM      9  C   UNL     1       1.865  -4.321  -0.363  0.00  0.00    +0.169 C 
ATOM     10  C   UNL     1       0.897  -3.141  -0.173  0.00  0.00    +0.065 C 
ATOM     11  C   UNL     1       1.723  -1.899  -0.050  0.00  0.00    -0.034 C 
ATOM     12  C   UNL     1       1.368  -0.618  -0.043  0.00  0.00    -0.001 A 
ATOM     13  C   UNL     1       0.047   0.030  -0.048  0.00  0.00    +0.010 A 
ATOM     14  C   UNL     1       1.178  -5.468  -1.071  0.00  0.00    +0.248 C 
ATOM     15  O   UNL     1       0.196  -6.075  -0.700  0.00  0.00    -0.273 OA
ATOM     16  N   UNL     1       1.885  -5.674  -2.202  0.00  0.00    -0.192 N 
ATOM     17  C   UNL     1       2.894  -4.801  -2.321  0.00  0.00    +0.317 C 
ATOM     18  O   UNL     1       3.703  -4.819  -3.227  0.00  0.00    -0.252 OA
ATOM     19  H   UNL     1       4.579  -0.205  -0.090  0.00  0.00    +0.160 HD
ENDROOT
BRANCH  16  20
ATOM     20  C   UNL     1       1.598  -6.679  -3.139  0.00  0.00    +0.049 A 
ATOM     21  C   UNL     1       2.305  -6.739  -4.332  0.00  0.00    +0.028 A 
ATOM     22  C   UNL     1       2.022  -7.727  -5.255  0.00  0.00    +0.051 A 
ATOM     23  C   UNL     1       1.033  -8.663  -4.992  0.00  0.00    +0.162 A 
ATOM     24  C   UNL     1       0.325  -8.608  -3.797  0.00  0.00    +0.164 A 
ATOM     25  C   UNL     1       0.612  -7.617  -2.870  0.00  0.00    +0.073 A 
ATOM     26  O   UNL     1      -0.644  -9.522  -3.518  0.00  0.00    -0.485 OA
ATOM     27  C   UNL     1      -1.156 -10.275  -4.623  0.00  0.00    +0.270 C 
ATOM     28  C   UNL     1       0.032 -10.770  -5.460  0.00  0.00    +0.270 C 
ATOM     29  O   UNL     1       0.765  -9.628  -5.916  0.00  0.00    -0.485 OA
ENDBRANCH  16  20
BRANCH   7  30
ATOM     30  C   UNL     1       5.188  -3.129  -0.961  0.00  0.00    -0.023 A 
ATOM     31  C   UNL     1       5.473  -4.231  -0.176  0.00  0.00    +0.005 A 
ATOM     32  C   UNL     1       6.786  -4.611   0.032  0.00  0.00    +0.002 A 
ATOM     33  C   UNL     1       7.814  -3.888  -0.544  0.00  0.00    +0.020 A 
ATOM     34  C   UNL     1       7.529  -2.785  -1.329  0.00  0.00    +0.041 A 
ATOM     35  C   UNL     1       6.214  -2.409  -1.542  0.00  0.00    +0.025 A 
ATOM     36 CL   UNL     1       8.820  -1.877  -2.052  0.00  0.00    -0.084 Cl
ENDBRANCH   7  30
TORSDOF 2
