REMARK  Name = ZINC39944079
REMARK  5 active torsions:
REMARK  status: ('A' for Active; 'I' for Inactive)
REMARK    1  A    between atoms: C_1  and  C_2
REMARK    2  A    between atoms: C_5  and  O_28
REMARK    3  A    between atoms: C_6  and  N_8
REMARK    4  A    between atoms: C_15  and  C_17
REMARK    5  A    between atoms: O_28  and  C_29
REMARK                            x       y       z     vdW  Elec       q    Type
REMARK                         _______ _______ _______ _____ _____    ______ ____
ROOT
ATOM      1  N   UNL     1       0.036  -2.765   2.385  0.00  0.00    -0.222 NA
ATOM      2  C   UNL     1       0.166  -2.121   3.521  0.00  0.00    +0.164 C 
ATOM      3  N   UNL     1       0.297  -2.789   4.734  0.00  0.00    -0.247 N 
ATOM      4  C   UNL     1      -0.575  -2.391   5.844  0.00  0.00    +0.117 C 
ATOM      5  C   UNL     1      -0.359  -0.923   6.201  0.00  0.00    +0.030 C 
ATOM      6  C   UNL     1      -0.849  -0.023   5.060  0.00  0.00    +0.079 C 
ATOM      7  S   UNL     1       0.192  -0.349   3.595  0.00  0.00    -0.090 S 
ATOM      8  C   UNL     1       1.202  -3.777   4.886  0.00  0.00    +0.249 C 
ATOM      9  O   UNL     1       1.980  -4.032   3.987  0.00  0.00    -0.270 OA
ENDROOT
BRANCH   8  10
ATOM     10  C   UNL     1       1.249  -4.548   6.143  0.00  0.00    +0.032 C 
ATOM     11  C   UNL     1       0.382  -5.596   6.378  0.00  0.00    +0.005 A 
ATOM     12  C   UNL     1      -0.620  -5.983   5.385  0.00  0.00    +0.010 A 
ATOM     13  C   UNL     1      -1.449  -7.020   5.661  0.00  0.00    +0.001 A 
ATOM     14  C   UNL     1      -1.365  -7.720   6.871  0.00  0.00    +0.002 A 
ATOM     15  C   UNL     1      -0.461  -7.414   7.833  0.00  0.00    +0.024 A 
ATOM     16  C   UNL     1       0.451  -6.352   7.646  0.00  0.00    +0.041 A 
ATOM     17  N   UNL     1       1.332  -6.058   8.591  0.00  0.00    -0.285 N 
ATOM     18  C   UNL     1       2.216  -5.074   8.484  0.00  0.00    +0.222 C 
ATOM     19  O   UNL     1       2.997  -4.856   9.389  0.00  0.00    -0.275 OA
ATOM     20  C   UNL     1       2.256  -4.229   7.231  0.00  0.00    +0.137 C 
ATOM     21  H   UNL     1       1.330  -6.588   9.403  0.00  0.00    +0.155 HD
ENDBRANCH   8  10
BRANCH   1  27
ATOM     22  C   UNL     1       2.017   0.593  -0.576  0.00  0.00    +0.044 C 
ATOM     23  C   UNL     1       0.953  -0.430  -0.271  0.00  0.00    -0.048 A 
ATOM     24  C   UNL     1      -0.056  -0.669  -1.187  0.00  0.00    +0.007 A 
ATOM     25  C   UNL     1      -1.038  -1.605  -0.917  0.00  0.00    +0.048 A 
ATOM     26  C   UNL     1      -1.015  -2.311   0.274  0.00  0.00    +0.145 A 
ATOM     27  C   UNL     1       0.005  -2.072   1.204  0.00  0.00    +0.108 A 
ATOM     28  C   UNL     1       0.993  -1.128   0.919  0.00  0.00    +0.035 A 
BRANCH  26  29
ATOM     29  O   UNL     1      -1.980  -3.231   0.540  0.00  0.00    -0.493 OA
ATOM     30  C   UNL     1      -2.988  -3.420  -0.455  0.00  0.00    +0.277 C 
ENDBRANCH  26  29
ENDBRANCH   1  27
TORSDOF 3
