REMARK  Name = ZINC01142910
REMARK  9 active torsions:
REMARK  status: ('A' for Active; 'I' for Inactive)
REMARK    1  A    between atoms: C_1  and  C_2
REMARK    2  A    between atoms: C_2  and  C_3
REMARK    3  A    between atoms: C_2  and  C_4
REMARK    4  A    between atoms: C_2  and  N_5
REMARK    5  A    between atoms: N_5  and  S_6
REMARK    6  A    between atoms: S_6  and  C_9
REMARK    7  A    between atoms: C_12  and  N_15
REMARK    8  A    between atoms: C_16  and  C_18
REMARK    9  A    between atoms: C_19  and  C_20
REMARK                            x       y       z     vdW  Elec       q    Type
REMARK                         _______ _______ _______ _____ _____    ______ ____
ROOT
ATOM      1  C   UNL     1       2.062   2.084   0.205  0.00  0.00    +0.105 A 
ATOM      2  C   UNL     1       1.554   1.118   1.054  0.00  0.00    +0.030 A 
ATOM      3  C   UNL     1       1.669  -0.219   0.729  0.00  0.00    +0.025 A 
ATOM      4  C   UNL     1       2.297  -0.593  -0.453  0.00  0.00    +0.034 A 
ATOM      5  C   UNL     1       2.806   0.380  -1.303  0.00  0.00    +0.025 A 
ATOM      6  C   UNL     1       2.687   1.715  -0.972  0.00  0.00    +0.030 A 
ENDROOT
BRANCH   4   7
ATOM      7  N   UNL     1       2.415  -1.946  -0.785  0.00  0.00    -0.282 N 
ATOM      8  C   UNL     1       1.431  -2.808  -0.462  0.00  0.00    +0.241 C 
ATOM      9  O   UNL     1       0.414  -2.400   0.069  0.00  0.00    -0.270 OA
ATOM     10  H   UNL     1       3.206  -2.264  -1.248  0.00  0.00    +0.155 HD
BRANCH   8  11
ATOM     11  C   UNL     1       1.583  -4.233  -0.750  0.00  0.00    +0.068 C 
ATOM     12  C   UNL     1       0.597  -5.096  -0.426  0.00  0.00    +0.013 C 
BRANCH  12  13
ATOM     13  C   UNL     1       0.750  -6.530  -0.715  0.00  0.00    -0.021 A 
ATOM     14  C   UNL     1       1.918  -7.002  -1.326  0.00  0.00    +0.012 A 
ATOM     15  C   UNL     1       2.059  -8.345  -1.595  0.00  0.00    +0.050 A 
ATOM     16  C   UNL     1       1.046  -9.235  -1.264  0.00  0.00    +0.166 A 
ATOM     17  C   UNL     1      -0.121  -8.772  -0.654  0.00  0.00    +0.167 A 
ATOM     18  C   UNL     1      -0.268  -7.427  -0.376  0.00  0.00    +0.057 A 
ATOM     19  O   UNL     1      -0.949  -9.835  -0.435  0.00  0.00    -0.453 OA
ATOM     20  C   UNL     1      -0.112 -11.001  -0.540  0.00  0.00    +0.466 C 
ATOM     21  O   UNL     1       0.946 -10.586  -1.424  0.00  0.00    -0.453 OA
ENDBRANCH  12  13
ENDBRANCH   8  11
ENDBRANCH   4   7
BRANCH   1  22
ATOM     22  S   UNL     1       1.912   3.789   0.623  0.00  0.00    +0.059 S 
ATOM     23  O   UNL     1       2.389   4.526  -0.495  0.00  0.00    -0.153 OA
ATOM     24  O   UNL     1       0.603   3.965   1.149  0.00  0.00    -0.153 OA
BRANCH  22  25
ATOM     25  N   UNL     1       2.965   4.083   1.867  0.00  0.00    -0.185 NA
ATOM     26  H   UNL     1       2.625   4.304   2.749  0.00  0.00    +0.149 HD
BRANCH  25  28
ATOM     27  C   UNL     1       4.844   5.170   0.741  0.00  0.00    +0.029 C 
ATOM     28  C   UNL     1       4.410   4.008   1.637  0.00  0.00    +0.032 C 
ATOM     29  C   UNL     1       5.145   4.095   2.976  0.00  0.00    +0.029 C 
ATOM     30  C   UNL     1       4.750   2.682   0.954  0.00  0.00    +0.029 C 
ENDBRANCH  25  28
ENDBRANCH  22  25
ENDBRANCH   1  22
TORSDOF 6
