REMARK  Name = ZINC64687481
REMARK  9 active torsions:
REMARK  status: ('A' for Active; 'I' for Inactive)
REMARK    1  A    between atoms: C_1  and  C_2
REMARK    2  A    between atoms: C_4  and  C_32
REMARK    3  A    between atoms: C_5  and  N_28
REMARK    4  A    between atoms: C_6  and  C_8
REMARK    5  A    between atoms: C_12  and  S_15
REMARK    6  A    between atoms: S_15  and  C_16
REMARK    7  A    between atoms: C_16  and  C_17
REMARK    8  A    between atoms: N_19  and  C_20
REMARK    9  A    between atoms: C_29  and  C_31
REMARK                            x       y       z     vdW  Elec       q    Type
REMARK                         _______ _______ _______ _____ _____    ______ ____
ROOT
ATOM      1  C   UNL     1       0.438  -3.358   1.894  0.00  0.00    +0.161 A 
ATOM      2  C   UNL     1       0.706  -3.047   3.240  0.00  0.00    +0.300 A 
ATOM      3  O   UNL     1       0.692  -1.762   3.670  0.00  0.00    -0.263 OA
ATOM      4  N   UNL     1       0.973  -4.039   4.080  0.00  0.00    -0.180 NA
ATOM      5  C   UNL     1       0.979  -5.290   3.632  0.00  0.00    +0.213 A 
ATOM      6  N   UNL     1       0.723  -5.561   2.358  0.00  0.00    -0.122 NA
ATOM      7  N   UNL     1       0.455  -4.630   1.512  0.00  0.00    -0.141 NA
ENDROOT
BRANCH   1  13
ATOM      8  C   UNL     1       1.471   1.117  -0.058  0.00  0.00    +0.044 C 
ATOM      9  C   UNL     1       0.627  -0.131  -0.023  0.00  0.00    -0.049 A 
ATOM     10  C   UNL     1      -0.433  -0.271  -0.901  0.00  0.00    +0.008 A 
ATOM     11  C   UNL     1      -1.214  -1.411  -0.877  0.00  0.00    -0.028 A 
ATOM     12  C   UNL     1      -0.938  -2.423   0.030  0.00  0.00    +0.046 A 
ATOM     13  C   UNL     1       0.134  -2.284   0.920  0.00  0.00    +0.029 A 
ATOM     14  C   UNL     1       0.917  -1.131   0.882  0.00  0.00    +0.015 A 
ATOM     15  C   UNL     1      -2.366  -1.555  -1.838  0.00  0.00    +0.046 C 
BRANCH  12  16
ATOM     16  N   UNL     1      -1.726  -3.576   0.057  0.00  0.00    -0.285 N 
ATOM     17  C   UNL     1      -2.122  -4.095   1.236  0.00  0.00    +0.214 C 
ATOM     18  O   UNL     1      -1.842  -3.529   2.272  0.00  0.00    -0.276 OA
ATOM     19  C   UNL     1      -2.913  -5.377   1.268  0.00  0.00    +0.109 C 
ATOM     20  H   UNL     1      -1.989  -4.003  -0.773  0.00  0.00    +0.155 HD
ENDBRANCH  12  16
ENDBRANCH   1  13
BRANCH   5  21
ATOM     21  S   UNL     1       1.333  -6.609   4.745  0.00  0.00    -0.075 S 
BRANCH  21  22
ATOM     22  C   UNL     1       1.231  -8.096   3.711  0.00  0.00    +0.173 C 
BRANCH  22  23
ATOM     23  C   UNL     1       1.517  -9.313   4.553  0.00  0.00    +0.228 C 
ATOM     24  O   UNL     1       1.766  -9.190   5.733  0.00  0.00    -0.275 OA
ATOM     25  N   UNL     1       1.497 -10.539   3.993  0.00  0.00    -0.284 N 
ATOM     26  H   UNL     1       1.231 -10.645   3.066  0.00  0.00    +0.155 HD
BRANCH  25  27
ATOM     27  C   UNL     1       1.860 -11.660   4.749  0.00  0.00    +0.052 A 
ATOM     28  C   UNL     1       1.583 -11.701   6.109  0.00  0.00    +0.026 A 
ATOM     29  C   UNL     1       1.942 -12.808   6.853  0.00  0.00    +0.022 A 
ATOM     30  C   UNL     1       2.578 -13.876   6.245  0.00  0.00    +0.042 A 
ATOM     31  C   UNL     1       2.856 -13.838   4.890  0.00  0.00    +0.041 A 
ATOM     32  C   UNL     1       2.494 -12.736   4.139  0.00  0.00    +0.064 A 
ATOM     33 CL   UNL     1       2.836 -12.692   2.438  0.00  0.00    -0.082 Cl
ATOM     34 CL   UNL     1       3.029 -15.265   7.183  0.00  0.00    -0.083 Cl
ENDBRANCH  25  27
ENDBRANCH  22  23
ENDBRANCH  21  22
ENDBRANCH   5  21
TORSDOF 6
