REMARK  Name = ZINC40378502
REMARK  6 active torsions:
REMARK  status: ('A' for Active; 'I' for Inactive)
REMARK    1  A    between atoms: C_1  and  C_2
REMARK    2  A    between atoms: C_4  and  C_7
REMARK    3  A    between atoms: N_9  and  C_10
REMARK    4  A    between atoms: C_14  and  N_16
REMARK    5  A    between atoms: N_16  and  S_17
REMARK    6  A    between atoms: S_17  and  N_20
REMARK                            x       y       z     vdW  Elec       q    Type
REMARK                         _______ _______ _______ _____ _____    ______ ____
ROOT
ATOM      1  C   UNL     1      -1.768  -5.690  -0.110  0.00  0.00    +0.036 A 
ATOM      2  C   UNL     1      -3.143  -5.505  -0.203  0.00  0.00    +0.023 A 
ATOM      3  C   UNL     1      -3.983  -6.597  -0.293  0.00  0.00    +0.004 A 
ATOM      4  C   UNL     1      -3.462  -7.877  -0.291  0.00  0.00    +0.027 A 
ATOM      5  C   UNL     1      -2.089  -8.068  -0.198  0.00  0.00    +0.077 A 
ATOM      6  C   UNL     1      -1.241  -6.973  -0.113  0.00  0.00    +0.050 A 
ENDROOT
BRANCH   1   9
ATOM      7  C   UNL     1       0.292  -4.613  -0.610  0.00  0.00    +0.270 C 
ATOM      8  O   UNL     1       0.679  -5.630  -1.151  0.00  0.00    -0.268 OA
ATOM      9  N   UNL     1      -0.918  -4.583  -0.018  0.00  0.00    -0.280 N 
ATOM     10  H   UNL     1      -1.199  -3.795   0.472  0.00  0.00    +0.155 HD
BRANCH   7  14
ATOM     11  C   UNL     1       4.217  -1.490  -1.404  0.00  0.00    +0.089 C 
ATOM     12  C   UNL     1       2.887  -2.043  -0.959  0.00  0.00    +0.135 A 
ATOM     13  C   UNL     1       2.439  -3.293  -1.179  0.00  0.00    +0.080 A 
ATOM     14  C   UNL     1       1.152  -3.405  -0.600  0.00  0.00    +0.168 A 
ATOM     15  N   UNL     1       0.856  -2.250  -0.055  0.00  0.00    -0.073 NA
ATOM     16  O   UNL     1       1.950  -1.377  -0.269  0.00  0.00    -0.359 OA
ENDBRANCH   7  14
ENDBRANCH   1   9
BRANCH   5  17
ATOM     17  N   UNL     1      -1.562  -9.362  -0.197  0.00  0.00    -0.087 NA
BRANCH  17  18
ATOM     18  S   UNL     1      -2.574 -10.668  -0.305  0.00  0.00    +0.126 S 
ATOM     19  O   UNL     1      -3.346 -10.685   0.888  0.00  0.00    -0.137 OA
ATOM     20  O   UNL     1      -3.168 -10.616  -1.595  0.00  0.00    -0.137 OA
BRANCH  18  21
ATOM     21  N   UNL     1      -1.627 -12.026  -0.275  0.00  0.00    -0.189 NA
ATOM     22  H   UNL     1      -0.663 -11.943  -0.204  0.00  0.00    +0.146 HD
ATOM     23  H   UNL     1      -2.035 -12.904  -0.329  0.00  0.00    +0.146 HD
ENDBRANCH  18  21
ENDBRANCH  17  18
ENDBRANCH   5  17
TORSDOF 5
