REMARK  Name = ZINC02316270
REMARK  6 active torsions:
REMARK  status: ('A' for Active; 'I' for Inactive)
REMARK    1  A    between atoms: C_1  and  C_2
REMARK    2  A    between atoms: C_2  and  C_3
REMARK    3  A    between atoms: C_2  and  C_4
REMARK    4  A    between atoms: C_13  and  S_17
REMARK    5  A    between atoms: S_17  and  C_18
REMARK    6  A    between atoms: C_18  and  C_19
REMARK                            x       y       z     vdW  Elec       q    Type
REMARK                         _______ _______ _______ _____ _____    ______ ____
ROOT
ATOM      1  C   UNL     1      -1.308   3.771  -2.292  0.00  0.00    +0.049 A 
ATOM      2  C   UNL     1      -0.988   3.082  -1.125  0.00  0.00    -0.022 A 
ATOM      3  C   UNL     1      -0.892   3.761   0.061  0.00  0.00    -0.031 A 
ATOM      4  C   UNL     1      -1.129   5.159   0.077  0.00  0.00    +0.037 A 
ATOM      5  C   UNL     1      -1.079   6.061   1.243  0.00  0.00    +0.093 A 
ATOM      6  C   UNL     1      -1.354   7.401   0.987  0.00  0.00    +0.085 A 
ATOM      7  C   UNL     1      -1.337   8.352   2.020  0.00  0.00    +0.179 A 
ATOM      8  N   UNL     1      -1.547   9.648   2.104  0.00  0.00    -0.127 NA
ATOM      9  N   UNL     1      -1.400  10.037   3.322  0.00  0.00    -0.122 NA
ATOM     10  C   UNL     1      -1.087   9.018   4.092  0.00  0.00    +0.198 A 
ATOM     11  N   UNL     1      -1.035   7.912   3.299  0.00  0.00    -0.260 N 
ATOM     12  C   UNL     1      -0.770   6.590   3.501  0.00  0.00    +0.208 A 
ATOM     13  N   UNL     1      -0.792   5.722   2.541  0.00  0.00    -0.235 NA
ATOM     14  S   UNL     1      -1.671   7.475  -0.755  0.00  0.00    -0.063 S 
ATOM     15  C   UNL     1      -1.446   5.759  -1.154  0.00  0.00    +0.112 A 
ATOM     16  N   UNL     1      -1.524   5.070  -2.272  0.00  0.00    -0.244 NA
ATOM     17  C   UNL     1      -0.544   3.096   1.364  0.00  0.00    +0.036 C 
ATOM     18  C   UNL     1      -0.738   1.584   1.263  0.00  0.00    +0.005 C 
ATOM     19  C   UNL     1      -0.013   1.086   0.008  0.00  0.00    +0.005 C 
ATOM     20  C   UNL     1      -0.759   1.596  -1.223  0.00  0.00    +0.037 C 
ENDROOT
BRANCH   1  22
ATOM     21  C   UNL     1      -2.817   3.175  -4.167  0.00  0.00    +0.014 C 
ATOM     22  C   UNL     1      -1.406   3.021  -3.595  0.00  0.00    +0.032 C 
ATOM     23  C   UNL     1      -0.389   3.588  -4.588  0.00  0.00    +0.014 C 
ENDBRANCH   1  22
BRANCH  10  24
ATOM     24  S   UNL     1      -0.788   9.074   5.828  0.00  0.00    -0.076 S 
BRANCH  24  25
ATOM     25  C   UNL     1      -1.016  10.821   6.256  0.00  0.00    +0.172 C 
BRANCH  25  26
ATOM     26  C   UNL     1      -0.786  11.010   7.734  0.00  0.00    +0.221 C 
ATOM     27  O   UNL     1      -0.498  10.059   8.429  0.00  0.00    -0.275 OA
ATOM     28  N   UNL     1      -0.902  12.236   8.282  0.00  0.00    -0.329 N 
ATOM     29  H   UNL     1      -1.133  12.996   7.726  0.00  0.00    +0.145 HD
ATOM     30  H   UNL     1      -0.754  12.357   9.233  0.00  0.00    +0.145 HD
ENDBRANCH  25  26
ENDBRANCH  24  25
ENDBRANCH  10  24
TORSDOF 4
