REMARK  Name = ZINC12710258
REMARK  6 active torsions:
REMARK  status: ('A' for Active; 'I' for Inactive)
REMARK    1  A    between atoms: C_1  and  C_2
REMARK    2  A    between atoms: C_3  and  C_7
REMARK    3  A    between atoms: N_9  and  C_10
REMARK    4  A    between atoms: C_10  and  C_11
REMARK    5  A    between atoms: C_15  and  N_16
REMARK    6  A    between atoms: N_19  and  C_22
REMARK                            x       y       z     vdW  Elec       q    Type
REMARK                         _______ _______ _______ _____ _____    ______ ____
ROOT
ATOM      1  C   UNL     1       1.463  -2.531   2.219  0.00  0.00    +0.008 A 
ATOM      2  C   UNL     1       1.553  -3.911   2.171  0.00  0.00    +0.010 A 
ATOM      3  C   UNL     1       0.778  -4.594   1.242  0.00  0.00    +0.018 A 
ATOM      4  C   UNL     1      -0.052  -3.881   0.400  0.00  0.00    +0.084 A 
ATOM      5  C   UNL     1       0.605  -1.879   1.340  0.00  0.00    +0.104 A 
ATOM      6  N   UNL     1      -0.170  -2.527   0.423  0.00  0.00    -0.349 N 
ATOM      7  H   UNL     1      -0.802  -2.024  -0.210  0.00  0.00    +0.167 HD
ENDROOT
BRANCH   5   8
ATOM      8  N   UNL     1       0.504  -0.493   1.378  0.00  0.00    -0.313 N 
ATOM      9  C   UNL     1      -0.868  -0.072   1.691  0.00  0.00    +0.125 C 
ATOM     10  C   UNL     1      -0.919   1.453   1.802  0.00  0.00    +0.125 C 
ATOM     11  N   UNL     1      -0.465   2.049   0.537  0.00  0.00    -0.314 N 
ATOM     12  C   UNL     1       0.907   1.629   0.223  0.00  0.00    +0.125 C 
ATOM     13  C   UNL     1       0.958   0.103   0.113  0.00  0.00    +0.125 C 
BRANCH  11  14
ATOM     14  C   UNL     1      -0.566   3.435   0.575  0.00  0.00    +0.099 A 
ATOM     15  C   UNL     1      -0.182   4.184  -0.533  0.00  0.00    +0.042 A 
ATOM     16  C   UNL     1      -0.287   5.562  -0.482  0.00  0.00    +0.005 A 
ATOM     17  C   UNL     1      -0.775   6.147   0.680  0.00  0.00    +0.018 A 
ATOM     18  C   UNL     1      -1.137   5.343   1.741  0.00  0.00    +0.084 A 
ATOM     19  N   UNL     1      -1.053   3.985   1.724  0.00  0.00    -0.350 N 
ATOM     20  H   UNL     1      -1.338   3.411   2.526  0.00  0.00    +0.166 HD
ENDBRANCH  11  14
ENDBRANCH   5   8
BRANCH   1  21
ATOM     21  C   UNL     1       2.284  -1.747   3.209  0.00  0.00    +0.143 C 
BRANCH  21  24
ATOM     22  C   UNL     1       1.958  -0.614   5.342  0.00  0.00    +0.248 C 
ATOM     23  O   UNL     1       3.135  -0.309   5.327  0.00  0.00    -0.270 OA
ATOM     24  N   UNL     1       1.435  -1.333   4.329  0.00  0.00    -0.307 N 
ATOM     25  H   UNL     1       0.496  -1.576   4.340  0.00  0.00    +0.149 HD
BRANCH  22  28
ATOM     26  C   UNL     1       2.860   1.054   7.840  0.00  0.00    +0.087 C 
ATOM     27  C   UNL     1       1.476   0.527   7.562  0.00  0.00    +0.114 A 
ATOM     28  C   UNL     1       1.103  -0.198   6.468  0.00  0.00    +0.077 A 
ATOM     29  C   UNL     1      -0.331  -0.471   6.644  0.00  0.00    +0.054 A 
ATOM     30  C   UNL     1      -0.674   0.097   7.810  0.00  0.00    +0.196 A 
ATOM     31  O   UNL     1       0.405   0.689   8.345  0.00  0.00    -0.467 OA
ENDBRANCH  22  28
ENDBRANCH  21  24
ENDBRANCH   1  21
TORSDOF 5
