REMARK  Name = ZINC16102439
REMARK  7 active torsions:
REMARK  status: ('A' for Active; 'I' for Inactive)
REMARK    1  A    between atoms: C_1  and  N_2
REMARK    2  A    between atoms: C_6  and  C_8
REMARK    3  A    between atoms: C_8  and  C_14
REMARK    4  A    between atoms: N_9  and  N_10
REMARK    5  A    between atoms: N_10  and  C_11
REMARK    6  A    between atoms: C_11  and  N_13
REMARK    7  A    between atoms: C_19  and  N_20
REMARK                            x       y       z     vdW  Elec       q    Type
REMARK                         _______ _______ _______ _____ _____    ______ ____
ROOT
ATOM      1  C   UNL     1       2.644  -0.045   0.022  0.00  0.00    +0.125 C 
ATOM      2  N   UNL     1       2.777   1.225   0.311  0.00  0.00    -0.178 NA
ENDROOT
BRANCH   1   8
ATOM      3  C   UNL     1       7.932  -3.780   0.009  0.00  0.00    +0.127 C 
ATOM      4  N   UNL     1       6.500  -3.900  -0.273  0.00  0.00    -0.325 N 
ATOM      5  C   UNL     1       5.673  -2.797  -0.141  0.00  0.00    +0.182 A 
ATOM      6  N   UNL     1       5.971  -1.559   0.224  0.00  0.00    -0.126 NA
ATOM      7  N   UNL     1       5.093  -0.655   0.298  0.00  0.00    -0.138 NA
ATOM      8  C   UNL     1       3.826  -0.925   0.007  0.00  0.00    +0.154 A 
ATOM      9  S   UNL     1       3.958  -2.662  -0.400  0.00  0.00    -0.029 S 
ATOM     10  H   UNL     1       6.130  -4.752  -0.553  0.00  0.00    +0.148 HD
ENDBRANCH   1   8
BRANCH   1  11
ATOM     11  C   UNL     1       1.306  -0.597  -0.289  0.00  0.00    +0.025 A 
ATOM     12  C   UNL     1       0.318  -0.635   0.694  0.00  0.00    +0.012 A 
ATOM     13  C   UNL     1      -0.927  -1.151   0.399  0.00  0.00    +0.001 A 
ATOM     14  C   UNL     1      -1.201  -1.632  -0.870  0.00  0.00    +0.002 A 
ATOM     15  C   UNL     1      -0.233  -1.594  -1.855  0.00  0.00    +0.023 A 
ATOM     16  C   UNL     1       1.026  -1.083  -1.572  0.00  0.00    +0.034 A 
BRANCH  16  17
ATOM     17  N   UNL     1       2.006  -1.049  -2.563  0.00  0.00    -0.357 N 
ATOM     18  H   UNL     1       2.882  -0.681  -2.367  0.00  0.00    +0.142 HD
ATOM     19  H   UNL     1       1.813  -1.397  -3.448  0.00  0.00    +0.142 HD
ENDBRANCH  16  17
ENDBRANCH   1  11
BRANCH   2  20
ATOM     20  N   UNL     1       4.054   1.774   0.483  0.00  0.00    -0.218 N 
ATOM     21  H   UNL     1       4.841   1.220   0.362  0.00  0.00    +0.176 HD
BRANCH  20  22
ATOM     22  C   UNL     1       4.190   3.072   0.818  0.00  0.00    +0.147 C 
ATOM     23  S   UNL     1       5.751   3.743   1.029  0.00  0.00    -0.017 S 
BRANCH  22  24
ATOM     24  N   UNL     1       3.097   3.843   0.987  0.00  0.00    -0.339 N 
ATOM     25  H   UNL     1       2.213   3.463   0.868  0.00  0.00    +0.144 HD
ATOM     26  H   UNL     1       3.195   4.777   1.228  0.00  0.00    +0.144 HD
ENDBRANCH  22  24
ENDBRANCH  20  22
ENDBRANCH   2  20
TORSDOF 6
