REMARK  Name = ZINC63573088
REMARK  10 active torsions:
REMARK  status: ('A' for Active; 'I' for Inactive)
REMARK    1  A    between atoms: C_1  and  O_2
REMARK    2  A    between atoms: O_2  and  C_3
REMARK    3  A    between atoms: C_6  and  C_9
REMARK    4  A    between atoms: C_16  and  O_21
REMARK    5  A    between atoms: O_21  and  C_22
REMARK    6  A    between atoms: N_28  and  C_29
REMARK    7  A    between atoms: C_32  and  O_37
REMARK    8  A    between atoms: C_34  and  O_35
REMARK    9  A    between atoms: O_35  and  C_36
REMARK   10  A    between atoms: O_37  and  C_38
REMARK                            x       y       z     vdW  Elec       q    Type
REMARK                         _______ _______ _______ _____ _____    ______ ____
ROOT
ATOM      1  C   UNL     1       3.534  -2.323   4.276  0.00  0.00    +0.134 C 
ATOM      2  C   UNL     1       2.359  -2.315   5.261  0.00  0.00    +0.131 C 
ATOM      3  C   UNL     1       2.630  -3.426   6.268  0.00  0.00    -0.035 C 
ATOM      4  C   UNL     1       2.609  -2.857   7.468  0.00  0.00    +0.003 A 
ATOM      5  C   UNL     1       2.735  -3.417   8.822  0.00  0.00    +0.055 A 
ATOM      6  C   UNL     1       2.680  -2.533   9.856  0.00  0.00    +0.121 A 
ATOM      7  C   UNL     1       2.514  -1.149   9.696  0.00  0.00    +0.047 A 
ATOM      8  C   UNL     1       2.382  -0.529   8.496  0.00  0.00    +0.029 A 
ATOM      9  C   UNL     1       2.422  -1.383   7.300  0.00  0.00    +0.043 A 
ATOM     10  N   UNL     1       2.298  -1.067   6.025  0.00  0.00    -0.375 N 
ATOM     11  C   UNL     1       2.929  -4.844   5.849  0.00  0.00    +0.052 C 
ATOM     12  C   UNL     1       4.051  -4.767   4.797  0.00  0.00    +0.114 C 
ATOM     13  N   UNL     1       3.741  -3.709   3.830  0.00  0.00    -0.276 N 
ATOM     14  C   UNL     1       3.642  -4.011   2.520  0.00  0.00    +0.307 C 
ATOM     15  O   UNL     1       3.523  -3.122   1.699  0.00  0.00    -0.252 OA
ATOM     16  N   UNL     1       3.676  -5.297   2.120  0.00  0.00    -0.266 N 
ATOM     17  H   UNL     1       3.689  -6.010   2.778  0.00  0.00    +0.156 HD
ATOM     18  H   UNL     1       2.191  -0.178   5.652  0.00  0.00    +0.160 HD
ENDROOT
BRANCH   1  22
ATOM     19  C   UNL     1       2.620   0.156   0.917  0.00  0.00    +0.120 A 
ATOM     20  C   UNL     1       3.879   0.209   1.498  0.00  0.00    +0.046 A 
ATOM     21  C   UNL     1       4.171  -0.593   2.584  0.00  0.00    +0.009 A 
ATOM     22  C   UNL     1       3.211  -1.449   3.092  0.00  0.00    -0.024 A 
ATOM     23  C   UNL     1       1.956  -1.504   2.514  0.00  0.00    +0.009 A 
ATOM     24  C   UNL     1       1.657  -0.700   1.431  0.00  0.00    +0.046 A 
BRANCH  19  26
ATOM     25  C   UNL     1       3.370   1.800  -0.628  0.00  0.00    +0.277 C 
ATOM     26  O   UNL     1       2.330   0.944  -0.151  0.00  0.00    -0.495 OA
ENDBRANCH  19  26
ENDBRANCH   1  22
BRANCH  16  27
ATOM     27  C   UNL     1       3.693  -5.607   0.751  0.00  0.00    +0.077 A 
ATOM     28  C   UNL     1       3.099  -4.749  -0.162  0.00  0.00    +0.030 A 
ATOM     29  C   UNL     1       3.115  -5.053  -1.510  0.00  0.00    +0.047 A 
ATOM     30  C   UNL     1       3.726  -6.217  -1.953  0.00  0.00    +0.124 A 
ATOM     31  C   UNL     1       4.322  -7.078  -1.044  0.00  0.00    +0.093 A 
ATOM     32  C   UNL     1       4.313  -6.772   0.307  0.00  0.00    +0.145 A 
BRANCH  32  33
ATOM     33  O   UNL     1       4.902  -7.612   1.200  0.00  0.00    -0.493 OA
ATOM     34  C   UNL     1       5.518  -8.790   0.674  0.00  0.00    +0.277 C 
ENDBRANCH  32  33
BRANCH  30  35
ATOM     35  O   UNL     1       3.740  -6.514  -3.279  0.00  0.00    -0.495 OA
ATOM     36  C   UNL     1       3.107  -5.583  -4.159  0.00  0.00    +0.277 C 
ENDBRANCH  30  35
ENDBRANCH  16  27
BRANCH   6  37
ATOM     37  O   UNL     1       2.794  -3.020  11.120  0.00  0.00    -0.495 OA
ATOM     38  C   UNL     1       2.733  -2.073  12.188  0.00  0.00    +0.277 C 
ENDBRANCH   6  37
TORSDOF 6
