REMARK  Name = ZINC16432244
REMARK  17 active torsions:
REMARK  status: ('A' for Active; 'I' for Inactive)
REMARK    1  A    between atoms: C_1  and  C_2
REMARK    2  A    between atoms: C_2  and  N_3
REMARK    3  A    between atoms: N_3  and  C_4
REMARK    4  A    between atoms: C_4  and  C_5
REMARK    5  A    between atoms: N_7  and  C_8
REMARK    6  A    between atoms: C_10  and  C_20
REMARK    7  A    between atoms: N_12  and  C_13
REMARK    8  A    between atoms: C_20  and  C_21
REMARK    9  A    between atoms: C_20  and  C_22
REMARK   10  A    between atoms: C_20  and  C_23
REMARK   11  A    between atoms: N_26  and  C_27
REMARK   12  A    between atoms: C_28  and  C_36
REMARK   13  A    between atoms: C_32  and  C_33
REMARK   14  A    between atoms: C_33  and  C_34
REMARK   15  A    between atoms: C_33  and  C_35
REMARK   16  A    between atoms: C_36  and  C_37
REMARK   17  A    between atoms: C_36  and  C_38
REMARK                            x       y       z     vdW  Elec       q    Type
REMARK                         _______ _______ _______ _____ _____    ______ ____
ROOT
ATOM      1  C   UNL     1      -0.454   9.538  -0.110  0.00  0.00    +0.205 C 
ENDROOT
BRANCH   1   2
ATOM      2  N   UNL     1       0.717  10.334  -0.485  0.00  0.00    -0.277 N 
ATOM      3  C   UNL     1       0.859  10.766  -1.754  0.00  0.00    +0.307 C 
ATOM      4  O   UNL     1       0.016  10.495  -2.587  0.00  0.00    -0.252 OA
ATOM      5  N   UNL     1       1.936  11.499  -2.099  0.00  0.00    -0.269 N 
ATOM      6  H   UNL     1       2.638  11.665  -1.450  0.00  0.00    +0.156 HD
BRANCH   5   7
ATOM      7  C   UNL     1       2.042  12.020  -3.394  0.00  0.00    +0.042 A 
ATOM      8  C   UNL     1       2.037  11.168  -4.490  0.00  0.00    -0.023 A 
ATOM      9  C   UNL     1       2.137  11.686  -5.766  0.00  0.00    +0.006 A 
ATOM     10  C   UNL     1       2.253  13.051  -5.953  0.00  0.00    +0.001 A 
ATOM     11  C   UNL     1       2.265  13.902  -4.863  0.00  0.00    +0.006 A 
ATOM     12  C   UNL     1       2.160  13.391  -3.584  0.00  0.00    -0.023 A 
BRANCH  12  13
ATOM     13  C   UNL     1       2.172  14.319  -2.397  0.00  0.00    +0.015 C 
ATOM     14  C   UNL     1       3.487  15.101  -2.376  0.00  0.00    +0.012 C 
ATOM     15  C   UNL     1       1.000  15.296  -2.501  0.00  0.00    +0.012 C 
ENDBRANCH  12  13
BRANCH   8  16
ATOM     16  C   UNL     1       1.916   9.679  -4.287  0.00  0.00    +0.015 C 
ATOM     17  C   UNL     1       0.756   9.142  -5.128  0.00  0.00    +0.012 C 
ATOM     18  C   UNL     1       3.217   8.999  -4.718  0.00  0.00    +0.012 C 
ENDBRANCH   8  16
ENDBRANCH   5   7
BRANCH   2  20
ATOM     19  C   UNL     1       2.802   9.566   0.536  0.00  0.00    +0.024 C 
ATOM     20  C   UNL     1       1.733  10.661   0.518  0.00  0.00    +0.106 C 
ENDBRANCH   2  20
ENDBRANCH   1   2
BRANCH   1  21
ATOM     21  C   UNL     1      -0.151   8.075  -0.308  0.00  0.00    +0.236 C 
ATOM     22  O   UNL     1       0.936   7.731  -0.721  0.00  0.00    -0.274 OA
ATOM     23  N   UNL     1      -1.088   7.148  -0.025  0.00  0.00    -0.269 N 
ATOM     24  H   UNL     1      -1.958   7.423   0.306  0.00  0.00    +0.156 HD
BRANCH  23  25
ATOM     25  C   UNL     1      -0.807   5.795  -0.208  0.00  0.00    +0.129 A 
ATOM     26  C   UNL     1       0.398   5.260  -0.545  0.00  0.00    +0.069 A 
ATOM     27  C   UNL     1       0.246   3.873  -0.626  0.00  0.00    +0.071 A 
ATOM     28  N   UNL     1      -0.997   3.576  -0.344  0.00  0.00    -0.169 NA
ATOM     29  N   UNL     1      -1.689   4.765  -0.082  0.00  0.00    -0.217 N 
BRANCH  29  30
ATOM     30  C   UNL     1      -3.045   4.875   0.255  0.00  0.00    +0.086 A 
ATOM     31  C   UNL     1      -3.431   5.649   1.342  0.00  0.00    +0.029 A 
ATOM     32  C   UNL     1      -4.768   5.755   1.672  0.00  0.00    +0.002 A 
ATOM     33  C   UNL     1      -5.722   5.088   0.925  0.00  0.00    +0.002 A 
ATOM     34  C   UNL     1      -5.342   4.322  -0.161  0.00  0.00    +0.022 A 
ATOM     35  C   UNL     1      -4.006   4.211  -0.497  0.00  0.00    +0.066 A 
ATOM     36 CL   UNL     1      -3.529   3.243  -1.857  0.00  0.00    -0.081 Cl
ENDBRANCH  29  30
BRANCH  27  37
ATOM     37  C   UNL     1       1.331   2.886  -0.971  0.00  0.00    +0.006 C 
ATOM     38  C   UNL     1       2.268   2.719   0.227  0.00  0.00    +0.017 C 
ATOM     39  C   UNL     1       0.701   1.536  -1.319  0.00  0.00    +0.017 C 
ATOM     40  C   UNL     1       2.126   3.403  -2.172  0.00  0.00    +0.017 C 
ENDBRANCH  27  37
ENDBRANCH  23  25
ENDBRANCH   1  21
TORSDOF 9
