REMARK  Name = ZINC39461898
REMARK  7 active torsions:
REMARK  status: ('A' for Active; 'I' for Inactive)
REMARK    1  A    between atoms: C_1  and  C_2
REMARK    2  A    between atoms: C_2  and  C_3
REMARK    3  A    between atoms: C_3  and  C_4
REMARK    4  A    between atoms: N_9  and  C_10
REMARK    5  A    between atoms: C_10  and  C_11
REMARK    6  A    between atoms: N_13  and  C_14
REMARK    7  A    between atoms: C_17  and  C_21
REMARK                            x       y       z     vdW  Elec       q    Type
REMARK                         _______ _______ _______ _____ _____    ______ ____
ROOT
ATOM      1  C   UNL     1      -4.421  -1.844   4.760  0.00  0.00    +0.202 C 
ATOM      2  N   UNL     1      -4.464  -1.153   6.075  0.00  0.00    -0.286 NA
ATOM      3  C   UNL     1      -5.568  -1.644   6.921  0.00  0.00    +0.072 C 
ATOM      4  C   UNL     1      -5.531  -3.202   6.931  0.00  0.00    +0.091 C 
ATOM      5  S   UNL     1      -5.120  -3.502   5.152  0.00  0.00    -0.121 S 
ATOM      6  H   UNL     1      -3.579  -1.232   6.554  0.00  0.00    +0.125 HD
ENDROOT
BRANCH   3   7
ATOM      7  C   UNL     1      -5.396  -1.119   8.348  0.00  0.00    -0.012 C 
ATOM      8  C   UNL     1      -4.048  -1.581   8.903  0.00  0.00    +0.012 C 
ATOM      9  C   UNL     1      -3.877  -1.055  10.330  0.00  0.00    -0.010 C 
ATOM     10  C   UNL     1      -3.927   0.474  10.319  0.00  0.00    +0.007 C 
ATOM     11  C   UNL     1      -5.275   0.936   9.764  0.00  0.00    -0.010 C 
ATOM     12  C   UNL     1      -5.447   0.410   8.337  0.00  0.00    +0.012 C 
ATOM     13  C   UNL     1      -6.403   0.395  10.645  0.00  0.00    +0.007 C 
ATOM     14  C   UNL     1      -6.352  -1.134  10.656  0.00  0.00    -0.010 C 
ATOM     15  C   UNL     1      -5.004  -1.596  11.211  0.00  0.00    +0.007 C 
ATOM     16  C   UNL     1      -6.524  -1.660   9.229  0.00  0.00    +0.012 C 
ENDBRANCH   3   7
BRANCH   1  19
ATOM     17  C   UNL     1      -2.802  -2.328   3.004  0.00  0.00    +0.235 C 
ATOM     18  O   UNL     1      -3.728  -2.561   2.255  0.00  0.00    -0.274 OA
ATOM     19  N   UNL     1      -3.042  -1.961   4.278  0.00  0.00    -0.290 N 
ATOM     20  H   UNL     1      -2.302  -1.775   4.877  0.00  0.00    +0.151 HD
BRANCH  17  21
ATOM     21  C   UNL     1      -1.384  -2.448   2.508  0.00  0.00    +0.221 C 
BRANCH  21  27
ATOM     22  C   UNL     1      -1.413  -2.041   0.005  0.00  0.00    +0.135 A 
ATOM     23  N   UNL     1      -1.407  -2.807  -1.049  0.00  0.00    -0.133 NA
ATOM     24  N   UNL     1      -1.388  -4.043  -0.696  0.00  0.00    -0.122 NA
ATOM     25  C   UNL     1      -1.381  -4.132   0.614  0.00  0.00    +0.203 A 
ATOM     26  S   UNL     1      -1.356  -5.617   1.562  0.00  0.00    -0.009 SA
ATOM     27  N   UNL     1      -1.391  -2.857   1.102  0.00  0.00    -0.296 N 
BRANCH  22  28
ATOM     28  C   UNL     1      -1.433  -0.534   0.013  0.00  0.00    +0.076 C 
BRANCH  28  30
ATOM     29  C   UNL     1      -0.019   1.526   0.010  0.00  0.00    +0.004 C 
ATOM     30  C   UNL     1       0.002  -0.004   0.002  0.00  0.00    +0.004 C 
ENDBRANCH  28  30
ENDBRANCH  22  28
ENDBRANCH  21  27
ENDBRANCH  17  21
ENDBRANCH   1  19
TORSDOF 6
