REMARK  Name = ZINC35485776
REMARK  5 active torsions:
REMARK  status: ('A' for Active; 'I' for Inactive)
REMARK    1  A    between atoms: C_1  and  C_2
REMARK    2  A    between atoms: C_8  and  C_24
REMARK    3  A    between atoms: C_27  and  C_30
REMARK    4  A    between atoms: C_30  and  C_31
REMARK    5  A    between atoms: C_30  and  C_32
REMARK                            x       y       z     vdW  Elec       q    Type
REMARK                         _______ _______ _______ _____ _____    ______ ____
ROOT
ATOM      1  C   UNL     1      -0.018   1.503   0.010  0.00  0.00    +0.075 C 
ATOM      2  C   UNL     1       0.002  -0.004   0.002  0.00  0.00    +0.101 A 
ATOM      3  N   UNL     1       0.010  -0.846  -1.013  0.00  0.00    -0.145 NA
ATOM      4  N   UNL     1       0.027  -2.096  -0.848  0.00  0.00    -0.125 NA
ATOM      5  C   UNL     1       0.039  -2.642   0.360  0.00  0.00    +0.191 A 
ATOM      6  S   UNL     1       0.031  -1.162   1.367  0.00  0.00    -0.035 S 
ATOM      7  N   UNL     1       0.059  -3.979   0.736  0.00  0.00    -0.230 N 
ATOM      8  C   UNL     1       0.077  -5.134  -0.176  0.00  0.00    +0.151 C 
ATOM      9  C   UNL     1       0.091  -6.344   0.700  0.00  0.00    +0.072 A 
ATOM     10  C   UNL     1       0.103  -7.773   0.373  0.00  0.00    +0.199 A 
ATOM     11  O   UNL     1       0.278  -8.198  -0.756  0.00  0.00    -0.287 OA
ATOM     12  C   UNL     1      -0.120  -8.653   1.548  0.00  0.00    +0.065 A 
ATOM     13  C   UNL     1      -0.336 -10.021   1.374  0.00  0.00    +0.030 A 
ATOM     14  C   UNL     1      -0.546 -10.822   2.475  0.00  0.00    +0.019 A 
ATOM     15  C   UNL     1      -0.544 -10.268   3.749  0.00  0.00    +0.019 A 
ATOM     16  C   UNL     1      -0.331  -8.921   3.932  0.00  0.00    +0.048 A 
ATOM     17  C   UNL     1      -0.113  -8.089   2.833  0.00  0.00    +0.140 A 
ATOM     18  O   UNL     1       0.104  -6.770   3.042  0.00  0.00    -0.450 OA
ATOM     19  C   UNL     1       0.087  -5.918   1.998  0.00  0.00    +0.199 A 
ATOM     20  C   UNL     1       0.070  -4.446   2.002  0.00  0.00    +0.289 C 
ATOM     21  O   UNL     1       0.063  -3.752   2.999  0.00  0.00    -0.266 OA
ATOM     22 BR   UNL     1      -0.839 -12.676   2.252  0.00  0.00    -0.050 Br
ENDROOT
BRANCH   8  23
ATOM     23  C   UNL     1      -1.155  -5.132  -1.043  0.00  0.00    -0.022 A 
ATOM     24  C   UNL     1      -2.373  -4.751  -0.511  0.00  0.00    +0.006 A 
ATOM     25  C   UNL     1      -3.504  -4.749  -1.306  0.00  0.00    +0.004 A 
ATOM     26  C   UNL     1      -3.417  -5.128  -2.633  0.00  0.00    -0.045 A 
ATOM     27  C   UNL     1      -2.199  -5.508  -3.165  0.00  0.00    +0.004 A 
ATOM     28  C   UNL     1      -1.067  -5.505  -2.371  0.00  0.00    +0.006 A 
BRANCH  26  29
ATOM     29  C   UNL     1      -4.650  -5.127  -3.500  0.00  0.00    +0.013 C 
ATOM     30  C   UNL     1      -4.446  -4.170  -4.676  0.00  0.00    +0.012 C 
ATOM     31  C   UNL     1      -4.902  -6.540  -4.030  0.00  0.00    +0.012 C 
ENDBRANCH  26  29
ENDBRANCH   8  23
TORSDOF 2
