REMARK  Name = ZINC44325584
REMARK  8 active torsions:
REMARK  status: ('A' for Active; 'I' for Inactive)
REMARK    1  A    between atoms: C_1  and  C_2
REMARK    2  A    between atoms: C_9  and  C_12
REMARK    3  A    between atoms: C_12  and  CA_13
REMARK    4  A    between atoms: CA_13  and  C_15
REMARK    5  A    between atoms: CA_13  and  N_18
REMARK    6  A    between atoms: C_19  and  O_21
REMARK    7  A    between atoms: O_21  and  C_22
REMARK    8  A    between atoms: C_22  and  C_23
REMARK                            x       y       z     vdW  Elec       q    Type
REMARK                         _______ _______ _______ _____ _____    ______ ____
ROOT
ATOM      1  N   UNL     1      -1.893  -5.106   3.641  0.00  0.00    -0.267 N 
ATOM      2  C   UNL     1      -3.227  -4.935   3.734  0.00  0.00    +0.401 C 
ATOM      3  O   UNL     1      -3.972  -5.561   3.007  0.00  0.00    -0.226 OA
ATOM      4  H   UNL     1      -1.298  -4.606   4.222  0.00  0.00    +0.153 HD
ENDROOT
BRANCH   1   5
ATOM      5  CA  UNL     1      -1.342  -6.047   2.663  0.00  0.00    +0.195 C 
BRANCH   5   6
ATOM      6  C   UNL     1      -1.334  -7.435   3.251  0.00  0.00    +0.376 C 
ATOM      7  O   UNL     1      -1.575  -7.597   4.435  0.00  0.00    -0.244 OA
ATOM      8  OXT UNL     1      -1.086  -8.395   2.543  0.00  0.00    -0.244 OA
ENDBRANCH   5   6
BRANCH   5   9
ATOM      9  C   UNL     1       0.088  -5.635   2.309  0.00  0.00    +0.087 C 
BRANCH   9  18
ATOM     10  C   UNL     1      -0.018   1.503   0.010  0.00  0.00    +0.044 C 
ATOM     11  C   UNL     1       0.002  -0.004   0.002  0.00  0.00    -0.050 A 
ATOM     12  C   UNL     1       0.006  -0.686  -1.207  0.00  0.00    +0.005 A 
ATOM     13  C   UNL     1       0.024  -2.063  -1.237  0.00  0.00    +0.026 A 
ATOM     14  C   UNL     1       0.039  -2.780  -0.045  0.00  0.00    +0.047 A 
ATOM     15  C   UNL     1       0.036  -2.084   1.178  0.00  0.00    +0.000 A 
ATOM     16  C   UNL     1       0.023  -0.688   1.185  0.00  0.00    +0.013 A 
ATOM     17  C   UNL     1       0.055  -3.107   2.226  0.00  0.00    +0.031 A 
ATOM     18  C   UNL     1       0.067  -4.300   1.610  0.00  0.00    +0.019 A 
ATOM     19  N   UNL     1       0.058  -4.124   0.253  0.00  0.00    -0.358 N 
ATOM     20  H   UNL     1       0.065  -4.840  -0.402  0.00  0.00    +0.166 HD
ENDBRANCH   9  18
ENDBRANCH   5   9
ENDBRANCH   1   5
BRANCH   2  21
ATOM     21  O   UNL     1      -3.733  -4.070   4.633  0.00  0.00    -0.449 OA
BRANCH  21  22
ATOM     22  C   UNL     1      -5.156  -3.938   4.677  0.00  0.00    +0.246 C 
BRANCH  22  23
ATOM     23  C   UNL     1      -5.541  -2.919   5.750  0.00  0.00    +0.088 C 
ATOM     24  C   UNL     1      -5.106  -1.535   5.333  0.00  0.00    -0.029 A 
ATOM     25  C   UNL     1      -3.866  -0.999   5.057  0.00  0.00    +0.005 A 
ATOM     26  C   UNL     1      -3.753   0.330   4.689  0.00  0.00    +0.000 A 
ATOM     27  C   UNL     1      -4.883   1.123   4.597  0.00  0.00    +0.001 A 
ATOM     28  C   UNL     1      -6.127   0.595   4.872  0.00  0.00    +0.009 A 
ATOM     29  C   UNL     1      -6.249  -0.745   5.244  0.00  0.00    -0.014 A 
ATOM     30  C   UNL     1      -7.440  -1.559   5.589  0.00  0.00    -0.014 A 
ATOM     31  C   UNL     1      -7.042  -2.858   5.895  0.00  0.00    -0.029 A 
ATOM     32  C   UNL     1      -7.977  -3.807   6.249  0.00  0.00    +0.005 A 
ATOM     33  C   UNL     1      -9.318  -3.472   6.303  0.00  0.00    +0.000 A 
ATOM     34  C   UNL     1      -9.724  -2.184   6.001  0.00  0.00    +0.001 A 
ATOM     35  C   UNL     1      -8.795  -1.228   5.645  0.00  0.00    +0.009 A 
ENDBRANCH  22  23
ENDBRANCH  21  22
ENDBRANCH   2  21
TORSDOF 7
