REMARK  Name = ZINC63375025
REMARK  7 active torsions:
REMARK  status: ('A' for Active; 'I' for Inactive)
REMARK    1  A    between atoms: C_1  and  C_2
REMARK    2  A    between atoms: C_2  and  C_3
REMARK    3  A    between atoms: C_2  and  C_4
REMARK    4  A    between atoms: C_4  and  C_5
REMARK    5  A    between atoms: C_5  and  N_6
REMARK    6  A    between atoms: C_12  and  C_28
REMARK    7  A    between atoms: C_24  and  C_27
REMARK                            x       y       z     vdW  Elec       q    Type
REMARK                         _______ _______ _______ _____ _____    ______ ____
ROOT
ATOM      1  N   UNL     1       0.666  -0.601   3.685  0.00  0.00    -0.291 N 
ATOM      2  C   UNL     1       0.408  -1.941   4.243  0.00  0.00    +0.203 C 
ATOM      3  C   UNL     1       1.735  -2.612   4.524  0.00  0.00    +0.234 C 
ATOM      4  O   UNL     1       1.929  -3.778   4.249  0.00  0.00    -0.274 OA
ATOM      5  N   UNL     1       2.710  -1.838   5.106  0.00  0.00    -0.283 N 
ATOM      6  C   UNL     1       4.045  -2.405   5.185  0.00  0.00    +0.121 C 
ATOM      7  C   UNL     1       4.964  -1.665   6.162  0.00  0.00    +0.065 C 
ATOM      8  C   UNL     1       4.676  -0.196   5.977  0.00  0.00    -0.027 C 
ATOM      9  C   UNL     1       5.431   0.830   5.615  0.00  0.00    -0.000 A 
ATOM     10  C   UNL     1       6.878   0.952   5.376  0.00  0.00    +0.010 A 
ATOM     11  C   UNL     1       7.321   2.176   4.984  0.00  0.00    +0.001 A 
ATOM     12  C   UNL     1       6.479   3.278   4.806  0.00  0.00    +0.002 A 
ATOM     13  C   UNL     1       5.138   3.260   5.014  0.00  0.00    +0.026 A 
ATOM     14  C   UNL     1       4.556   2.031   5.442  0.00  0.00    +0.043 A 
ATOM     15  N   UNL     1       3.323   1.744   5.741  0.00  0.00    -0.375 N 
ATOM     16  C   UNL     1       3.277   0.357   6.202  0.00  0.00    +0.139 C 
ATOM     17  C   UNL     1       2.280  -0.507   5.497  0.00  0.00    +0.135 C 
ATOM     18  C   UNL     1       1.604   0.159   4.327  0.00  0.00    +0.242 C 
ATOM     19  O   UNL     1       1.871   1.291   3.981  0.00  0.00    -0.273 OA
ATOM     20  C   UNL     1       1.152  -0.732   6.507  0.00  0.00    +0.044 C 
ATOM     21  H   UNL     1       2.565   2.345   5.671  0.00  0.00    +0.160 HD
ENDROOT
BRANCH   7  22
ATOM     22  C   UNL     1       6.406  -1.956   5.838  0.00  0.00    -0.039 A 
ATOM     23  C   UNL     1       6.919  -1.620   4.599  0.00  0.00    +0.006 A 
ATOM     24  C   UNL     1       8.242  -1.887   4.302  0.00  0.00    +0.020 A 
ATOM     25  C   UNL     1       9.053  -2.492   5.245  0.00  0.00    +0.041 A 
ATOM     26  C   UNL     1       8.540  -2.829   6.485  0.00  0.00    +0.020 A 
ATOM     27  C   UNL     1       7.218  -2.556   6.783  0.00  0.00    +0.006 A 
ATOM     28 CL   UNL     1      10.715  -2.829   4.873  0.00  0.00    -0.084 Cl
ENDBRANCH   7  22
BRANCH   1  29
ATOM     29  C   UNL     1      -0.042  -0.111   2.499  0.00  0.00    +0.108 C 
BRANCH  29  30
ATOM     30  C   UNL     1       0.740  -0.496   1.242  0.00  0.00    +0.022 C 
BRANCH  30  32
ATOM     31  C   UNL     1      -0.017   1.545   0.017  0.00  0.00    +0.007 C 
ATOM     32  C   UNL     1       0.000   0.015   0.004  0.00  0.00    -0.016 C 
ATOM     33  C   UNL     1       0.715  -0.476  -1.256  0.00  0.00    +0.007 C 
ENDBRANCH  30  32
ENDBRANCH  29  30
ENDBRANCH   1  29
TORSDOF 4
