REMARK  Name = ZINC21657197
REMARK  6 active torsions:
REMARK  status: ('A' for Active; 'I' for Inactive)
REMARK    1  A    between atoms: C_3  and  S_27
REMARK    2  A    between atoms: C_6  and  N_7
REMARK    3  A    between atoms: N_7  and  S_8
REMARK    4  A    between atoms: S_8  and  C_11
REMARK    5  A    between atoms: C_17  and  C_20
REMARK    6  A    between atoms: S_27  and  N_30
REMARK                            x       y       z     vdW  Elec       q    Type
REMARK                         _______ _______ _______ _____ _____    ______ ____
ROOT
ATOM      1  S   UNL     1      -1.557   1.995   0.119  0.00  0.00    +0.092 S 
ATOM      2  O   UNL     1      -1.505   3.408  -0.029  0.00  0.00    -0.148 OA
ATOM      3  O   UNL     1      -2.324   1.166  -0.743  0.00  0.00    -0.148 OA
ENDROOT
BRANCH   1   4
ATOM      4  C   UNL     1      -2.125   1.682   1.758  0.00  0.00    +0.111 A 
ATOM      5  C   UNL     1      -1.999   2.664   2.730  0.00  0.00    +0.032 A 
ATOM      6  C   UNL     1      -2.438   2.437   4.016  0.00  0.00    +0.051 A 
ATOM      7  C   UNL     1      -3.013   1.214   4.345  0.00  0.00    +0.168 A 
ATOM      8  C   UNL     1      -3.138   0.224   3.357  0.00  0.00    +0.055 A 
ATOM      9  C   UNL     1      -2.692   0.475   2.060  0.00  0.00    +0.043 A 
ATOM     10  C   UNL     1      -3.773  -0.933   4.008  0.00  0.00    +0.176 A 
ATOM     11  N   UNL     1      -3.982  -0.608   5.255  0.00  0.00    -0.072 NA
ATOM     12  O   UNL     1      -3.522   0.709   5.486  0.00  0.00    -0.354 OA
BRANCH  10  13
ATOM     13  C   UNL     1      -4.112  -2.226   3.367  0.00  0.00    +0.269 C 
ATOM     14  O   UNL     1      -3.865  -2.404   2.191  0.00  0.00    -0.268 OA
ATOM     15  N   UNL     1      -4.695  -3.203   4.089  0.00  0.00    -0.296 N 
ATOM     16  C   UNL     1      -5.042  -3.124   5.516  0.00  0.00    +0.108 C 
ATOM     17  C   UNL     1      -5.662  -4.481   5.912  0.00  0.00    +0.020 C 
ATOM     18  C   UNL     1      -5.104  -5.444   4.832  0.00  0.00    +0.020 C 
ATOM     19  C   UNL     1      -5.084  -4.531   3.581  0.00  0.00    +0.108 C 
ENDBRANCH  10  13
ENDBRANCH   1   4
BRANCH   1  20
ATOM     20  N   UNL     1       0.005   1.452   0.031  0.00  0.00    -0.098 NA
BRANCH  20  26
ATOM     21  C   UNL     1       0.858  -0.362   1.374  0.00  0.00    +0.028 A 
ATOM     22  C   UNL     1       1.126  -1.708   1.535  0.00  0.00    +0.030 A 
ATOM     23  C   UNL     1       0.833  -2.599   0.520  0.00  0.00    +0.105 A 
ATOM     24  C   UNL     1       0.264  -2.148  -0.658  0.00  0.00    +0.030 A 
ATOM     25  C   UNL     1      -0.011  -0.805  -0.823  0.00  0.00    +0.028 A 
ATOM     26  C   UNL     1       0.282   0.093   0.195  0.00  0.00    +0.074 A 
BRANCH  23  27
ATOM     27  S   UNL     1       1.182  -4.314   0.727  0.00  0.00    +0.056 S 
ATOM     28  O   UNL     1       1.209  -4.556   2.126  0.00  0.00    -0.153 OA
ATOM     29  O   UNL     1       0.313  -5.014  -0.152  0.00  0.00    -0.153 OA
BRANCH  27  30
ATOM     30  N   UNL     1       2.722  -4.570   0.172  0.00  0.00    -0.204 NA
ATOM     31  H   UNL     1       2.980  -5.633   0.285  0.00  0.00    +0.144 HD
ATOM     32  H   UNL     1       3.427  -3.958   0.754  0.00  0.00    +0.144 HD
ENDBRANCH  27  30
ENDBRANCH  23  27
ENDBRANCH  20  26
ENDBRANCH   1  20
TORSDOF 6
