REMARK  Name = ZINC59019040
REMARK  9 active torsions:
REMARK  status: ('A' for Active; 'I' for Inactive)
REMARK    1  A    between atoms: C_1  and  C_2
REMARK    2  A    between atoms: C_3  and  N_9
REMARK    3  A    between atoms: C_10  and  C_12
REMARK    4  A    between atoms: C_12  and  S_13
REMARK    5  A    between atoms: S_13  and  C_14
REMARK    6  A    between atoms: N_19  and  N_20
REMARK    7  A    between atoms: C_21  and  C_22
REMARK    8  A    between atoms: C_27  and  O_28
REMARK    9  A    between atoms: O_28  and  C_29
REMARK                            x       y       z     vdW  Elec       q    Type
REMARK                         _______ _______ _______ _____ _____    ______ ____
ROOT
ATOM      1  C   UNL     1       0.425  -0.023  -7.681  0.00  0.00    +0.211 A 
ATOM      2  N   UNL     1       0.530  -0.448  -8.945  0.00  0.00    -0.186 NA
ATOM      3  C   UNL     1       0.584   0.587  -9.757  0.00  0.00    +0.232 A 
ATOM      4  N   UNL     1       0.514   1.708  -9.009  0.00  0.00    -0.245 N 
ATOM      5  N   UNL     1       0.406   1.289  -7.673  0.00  0.00    -0.144 NA
ATOM      6  N   UNL     1       0.695   0.534 -11.135  0.00  0.00    -0.205 N 
ATOM      7  H   UNL     1       0.728   1.355 -11.650  0.00  0.00    +0.177 HD
ATOM      8  H   UNL     1       0.531   2.623  -9.331  0.00  0.00    +0.192 HD
ENDROOT
BRANCH   6   9
ATOM      9  N   UNL     1       0.758  -0.706 -11.785  0.00  0.00    -0.187 NA
ATOM     10  C   UNL     1       0.862  -0.755 -13.078  0.00  0.00    +0.142 C 
BRANCH  10  11
ATOM     11  C   UNL     1       0.929  -2.059 -13.763  0.00  0.00    +0.037 A 
ATOM     12  C   UNL     1       1.046  -2.116 -15.153  0.00  0.00    +0.028 A 
ATOM     13  C   UNL     1       1.109  -3.340 -15.788  0.00  0.00    +0.019 A 
ATOM     14  C   UNL     1       1.056  -4.512 -15.051  0.00  0.00    +0.019 A 
ATOM     15  C   UNL     1       0.940  -4.467 -13.674  0.00  0.00    +0.047 A 
ATOM     16  C   UNL     1       0.881  -3.247 -13.021  0.00  0.00    +0.129 A 
ATOM     17 BR   UNL     1       1.267  -3.418 -17.671  0.00  0.00    -0.050 Br
BRANCH  16  18
ATOM     18  O   UNL     1       0.772  -3.202 -11.668  0.00  0.00    -0.494 OA
ATOM     19  C   UNL     1       0.730  -4.454 -10.979  0.00  0.00    +0.277 C 
ENDBRANCH  16  18
ENDBRANCH  10  11
ENDBRANCH   6   9
BRANCH   1  20
ATOM     20  S   UNL     1       0.322  -1.057  -6.258  0.00  0.00    -0.075 S 
BRANCH  20  21
ATOM     21  C   UNL     1       0.192   0.111  -4.876  0.00  0.00    +0.173 C 
BRANCH  21  23
ATOM     22  N   UNL     1      -0.010   0.011  -2.413  0.00  0.00    -0.284 N 
ATOM     23  C   UNL     1       0.095  -0.653  -3.581  0.00  0.00    +0.227 C 
ATOM     24  O   UNL     1       0.112  -1.866  -3.589  0.00  0.00    -0.275 OA
ATOM     25  H   UNL     1      -0.104   0.977  -2.411  0.00  0.00    +0.155 HD
BRANCH  22  28
ATOM     26  C   UNL     1      -1.263   1.190  -0.146  0.00  0.00    +0.048 C 
ATOM     27  C   UNL     1      -0.583  -0.153  -0.073  0.00  0.00    +0.006 A 
ATOM     28  C   UNL     1       0.017  -0.692  -1.203  0.00  0.00    +0.039 A 
ATOM     29  C   UNL     1       0.643  -1.929  -1.132  0.00  0.00    +0.024 A 
ATOM     30  C   UNL     1       0.668  -2.622   0.063  0.00  0.00    +0.005 A 
ATOM     31  C   UNL     1       0.070  -2.085   1.188  0.00  0.00    +0.039 A 
ATOM     32  C   UNL     1      -0.550  -0.848   1.123  0.00  0.00    +0.128 A 
ATOM     33  F   UNL     1      -1.129  -0.324   2.225  0.00  0.00    -0.205 F 
ENDBRANCH  22  28
ENDBRANCH  21  23
ENDBRANCH  20  21
ENDBRANCH   1  20
TORSDOF 7
