REMARK  Name = ZINC08871188
REMARK  5 active torsions:
REMARK  status: ('A' for Active; 'I' for Inactive)
REMARK    1  A    between atoms: C_9  and  S_23
REMARK    2  A    between atoms: C_10  and  N_22
REMARK    3  A    between atoms: N_11  and  N_14
REMARK    4  A    between atoms: C_15  and  C_16
REMARK    5  A    between atoms: S_23  and  C_26
REMARK                            x       y       z     vdW  Elec       q    Type
REMARK                         _______ _______ _______ _____ _____    ______ ____
ROOT
ATOM      1  C   UNL     1      -4.692  -0.029   0.045  0.00  0.00    +0.002 A 
ATOM      2  C   UNL     1      -4.708   1.365   0.052  0.00  0.00    +0.002 A 
ATOM      3  C   UNL     1      -3.549   2.078   0.045  0.00  0.00    +0.030 A 
ATOM      4  C   UNL     1      -2.313   1.406   0.030  0.00  0.00    +0.092 A 
ATOM      5  C   UNL     1      -2.297  -0.012   0.023  0.00  0.00    +0.090 A 
ATOM      6  C   UNL     1      -3.518  -0.714   0.031  0.00  0.00    +0.030 A 
ATOM      7  N   UNL     1      -1.137  -0.677   0.009  0.00  0.00    -0.240 NA
ATOM      8  C   UNL     1       0.002  -0.004   0.002  0.00  0.00    +0.137 A 
ATOM      9  C   UNL     1       1.369  -0.375  -0.013  0.00  0.00    +0.162 A 
ATOM     10  C   UNL     1       2.112   0.757  -0.014  0.00  0.00    +0.148 A 
ATOM     11  N   UNL     1       1.303   1.868  -0.000  0.00  0.00    -0.197 N 
ATOM     12  C   UNL     1      -0.018   1.464   0.010  0.00  0.00    +0.184 A 
ATOM     13  N   UNL     1      -1.168   2.100   0.020  0.00  0.00    -0.224 NA
ENDROOT
BRANCH  10  14
ATOM     14  N   UNL     1       3.495   0.790  -0.027  0.00  0.00    -0.341 N 
ATOM     15  H   UNL     1       4.000  -0.038  -0.036  0.00  0.00    +0.144 HD
ATOM     16  H   UNL     1       3.960   1.642  -0.026  0.00  0.00    +0.144 HD
ENDBRANCH  10  14
BRANCH   9  17
ATOM     17  S   UNL     1       1.994  -2.022  -0.028  0.00  0.00    +0.032 S 
ATOM     18  O   UNL     1       3.307  -1.963   0.510  0.00  0.00    -0.164 OA
ATOM     19  O   UNL     1       0.979  -2.847   0.527  0.00  0.00    -0.164 OA
BRANCH  17  20
ATOM     20  C   UNL     1       2.162  -2.500  -1.716  0.00  0.00    +0.113 A 
ATOM     21  C   UNL     1       3.416  -2.749  -2.241  0.00  0.00    +0.048 A 
ATOM     22  C   UNL     1       3.549  -3.128  -3.565  0.00  0.00    +0.043 A 
ATOM     23  C   UNL     1       2.426  -3.248  -4.366  0.00  0.00    +0.021 A 
ATOM     24  C   UNL     1       1.173  -2.994  -3.842  0.00  0.00    +0.023 A 
ATOM     25  C   UNL     1       1.041  -2.619  -2.517  0.00  0.00    +0.066 A 
ATOM     26 CL   UNL     1      -0.534  -2.300  -1.858  0.00  0.00    -0.082 Cl
ATOM     27 CL   UNL     1       5.123  -3.447  -4.224  0.00  0.00    -0.083 Cl
ENDBRANCH  17  20
ENDBRANCH   9  17
BRANCH  11  28
ATOM     28  N   UNL     1       1.746   3.197   0.002  0.00  0.00    -0.171 NA
ATOM     29  C   UNL     1       1.963   3.807   1.127  0.00  0.00    +0.142 C 
BRANCH  29  30
ATOM     30  C   UNL     1       2.430   5.206   1.129  0.00  0.00    +0.013 A 
ATOM     31  C   UNL     1       2.662   5.877   2.337  0.00  0.00    +0.012 A 
ATOM     32  C   UNL     1       3.105   7.187   2.284  0.00  0.00    +0.020 A 
ATOM     33  C   UNL     1       3.292   7.790   1.053  0.00  0.00    +0.111 A 
ATOM     34  N   UNL     1       3.060   7.135  -0.069  0.00  0.00    -0.263 NA
ATOM     35  C   UNL     1       2.643   5.886  -0.072  0.00  0.00    +0.120 A 
ENDBRANCH  29  30
ENDBRANCH  11  28
TORSDOF 5
