REMARK  Name = ZINC20156871
REMARK  4 active torsions:
REMARK  status: ('A' for Active; 'I' for Inactive)
REMARK    1  A    between atoms: C_1  and  C_2
REMARK    2  A    between atoms: C_7  and  C_8
REMARK    3  A    between atoms: C_11  and  C_13
REMARK    4  A    between atoms: C_16  and  N_19
REMARK                            x       y       z     vdW  Elec       q    Type
REMARK                         _______ _______ _______ _____ _____    ______ ____
ROOT
ATOM      1  C   UNL     1      -2.860   1.536  -0.049  0.00  0.00    +0.044 C 
ATOM      2  C   UNL     1      -2.087   1.788   1.221  0.00  0.00    -0.044 A 
ATOM      3  C   UNL     1      -2.747   2.228   2.347  0.00  0.00    +0.035 A 
ATOM      4  C   UNL     1      -2.029   2.467   3.521  0.00  0.00    +0.111 A 
ATOM      5  C   UNL     1      -0.641   2.251   3.543  0.00  0.00    +0.170 A 
ATOM      6  C   UNL     1       0.005   1.804   2.401  0.00  0.00    +0.065 A 
ATOM      7  C   UNL     1      -0.718   1.572   1.248  0.00  0.00    -0.030 A 
ATOM      8  C   UNL     1      -0.013   1.086   0.008  0.00  0.00    +0.045 C 
ATOM      9 BR   UNL     1       1.873   1.511   2.423  0.00  0.00    -0.046 Br
ATOM     10  O   UNL     1      -0.227   2.561   4.792  0.00  0.00    -0.434 OA
ATOM     11  C   UNL     1      -1.301   2.949   5.506  0.00  0.00    +0.228 A 
ATOM     12  N   UNL     1      -2.377   2.896   4.762  0.00  0.00    -0.209 NA
ENDROOT
BRANCH  11  13
ATOM     13  C   UNL     1      -1.270   3.370   6.921  0.00  0.00    +0.037 A 
ATOM     14  C   UNL     1      -2.449   3.759   7.562  0.00  0.00    +0.015 A 
ATOM     15  C   UNL     1      -2.418   4.146   8.883  0.00  0.00    +0.023 A 
ATOM     16  C   UNL     1      -1.212   4.162   9.576  0.00  0.00    +0.025 A 
ATOM     17  C   UNL     1      -0.035   3.781   8.939  0.00  0.00    +0.023 A 
ATOM     18  C   UNL     1      -0.060   3.387   7.620  0.00  0.00    +0.015 A 
BRANCH  16  19
ATOM     19  N   UNL     1      -1.182   4.560  10.911  0.00  0.00    -0.358 N 
ATOM     20  H   UNL     1      -0.229   4.573  11.460  0.00  0.00    +0.142 HD
ATOM     21  H   UNL     1      -2.112   4.862  11.415  0.00  0.00    +0.142 HD
ENDBRANCH  16  19
ENDBRANCH  11  13
TORSDOF 2
