REMARK  Name = ZINC20745133
REMARK  2 active torsions:
REMARK  status: ('A' for Active; 'I' for Inactive)
REMARK    1  A    between atoms: C_1  and  C_2
REMARK    2  A    between atoms: N_17  and  C_18
REMARK                            x       y       z     vdW  Elec       q    Type
REMARK                         _______ _______ _______ _____ _____    ______ ____
ROOT
ATOM      1  C   UNL     1      -0.018   1.503   0.010  0.00  0.00    +0.044 C 
ATOM      2  C   UNL     1       0.002  -0.004   0.002  0.00  0.00    -0.050 A 
ATOM      3  C   UNL     1       0.005  -0.673  -1.205  0.00  0.00    +0.005 A 
ATOM      4  C   UNL     1       0.025  -2.057  -1.277  0.00  0.00    +0.024 A 
ATOM      5  C   UNL     1       0.040  -2.759  -0.070  0.00  0.00    +0.038 A 
ATOM      6  C   UNL     1       0.036  -2.068   1.148  0.00  0.00    -0.006 A 
ATOM      7  C   UNL     1       0.023  -0.691   1.211  0.00  0.00    +0.010 A 
ATOM      8  C   UNL     1       0.052  -3.111   2.219  0.00  0.00    +0.111 C 
ATOM      9  C   UNL     1      -1.194  -3.022   3.097  0.00  0.00    +0.122 C 
ATOM     10  C   UNL     1      -1.054  -1.940   4.132  0.00  0.00    +0.220 C 
ATOM     11  O   UNL     1      -2.027  -1.276   4.423  0.00  0.00    -0.275 OA
ATOM     12  N   UNL     1       0.119  -1.684   4.748  0.00  0.00    -0.270 N 
ATOM     13  C   UNL     1       1.270  -2.309   4.269  0.00  0.00    +0.133 A 
ATOM     14  C   UNL     1       1.278  -2.993   3.081  0.00  0.00    +0.032 A 
ATOM     15  C   UNL     1       2.556  -3.497   2.887  0.00  0.00    +0.141 A 
ATOM     16  N   UNL     1       3.302  -3.131   3.903  0.00  0.00    -0.173 NA
ATOM     17  N   UNL     1       2.515  -2.371   4.783  0.00  0.00    -0.218 N 
ATOM     18  C   UNL     1       0.066  -4.425   1.467  0.00  0.00    +0.233 C 
ATOM     19  O   UNL     1       0.081  -5.535   1.954  0.00  0.00    -0.274 OA
ATOM     20  N   UNL     1       0.060  -4.125   0.151  0.00  0.00    -0.284 N 
ATOM     21  H   UNL     1       0.161  -1.079   5.505  0.00  0.00    +0.156 HD
ATOM     22  H   UNL     1       0.067  -4.788  -0.557  0.00  0.00    +0.155 HD
ENDROOT
BRANCH  17  23
ATOM     23  C   UNL     1       2.945  -1.785   5.982  0.00  0.00    +0.067 A 
ATOM     24  C   UNL     1       2.420  -0.565   6.387  0.00  0.00    +0.029 A 
ATOM     25  C   UNL     1       2.846   0.010   7.568  0.00  0.00    +0.017 A 
ATOM     26  C   UNL     1       3.795  -0.627   8.347  0.00  0.00    +0.018 A 
ATOM     27  C   UNL     1       4.320  -1.843   7.945  0.00  0.00    +0.017 A 
ATOM     28  C   UNL     1       3.893  -2.426   6.768  0.00  0.00    +0.029 A 
ATOM     29 BR   UNL     1       4.377   0.164   9.963  0.00  0.00    -0.050 Br
ENDBRANCH  17  23
TORSDOF 1
