REMARK  Name = ZINC49273067
REMARK  6 active torsions:
REMARK  status: ('A' for Active; 'I' for Inactive)
REMARK    1  A    between atoms: C_1  and  C_2
REMARK    2  A    between atoms: C_5  and  C_27
REMARK    3  A    between atoms: C_6  and  N_8
REMARK    4  A    between atoms: C_9  and  C_11
REMARK    5  A    between atoms: N_13  and  C_14
REMARK    6  A    between atoms: C_14  and  C_15
REMARK                            x       y       z     vdW  Elec       q    Type
REMARK                         _______ _______ _______ _____ _____    ______ ____
ROOT
ATOM      1  C   UNL     1       0.278  -2.893   4.840  0.00  0.00    +0.300 C 
ATOM      2  O   UNL     1       0.293  -4.107   4.827  0.00  0.00    -0.265 OA
ATOM      3  N   UNL     1       0.376  -2.231   6.010  0.00  0.00    -0.303 N 
ATOM      4  H   UNL     1       0.363  -1.261   6.020  0.00  0.00    +0.149 HD
ENDROOT
BRANCH   1   6
ATOM      5  N   UNL     1       0.051  -2.797   2.391  0.00  0.00    -0.278 N 
ATOM      6  C   UNL     1       0.149  -2.134   3.560  0.00  0.00    +0.303 C 
ATOM      7  O   UNL     1       0.134  -0.921   3.573  0.00  0.00    -0.265 OA
ATOM      8  H   UNL     1      -0.017  -3.765   2.386  0.00  0.00    +0.155 HD
BRANCH   5  14
ATOM      9  C   UNL     1       1.265   1.227  -0.158  0.00  0.00    +0.044 C 
ATOM     10  C   UNL     1       0.628  -0.137  -0.079  0.00  0.00    -0.049 A 
ATOM     11  C   UNL     1       0.039  -0.690  -1.201  0.00  0.00    +0.004 A 
ATOM     12  C   UNL     1      -0.546  -1.941  -1.133  0.00  0.00    +0.005 A 
ATOM     13  C   UNL     1      -0.544  -2.643   0.056  0.00  0.00    -0.029 A 
ATOM     14  C   UNL     1       0.047  -2.090   1.185  0.00  0.00    +0.037 A 
ATOM     15  C   UNL     1       0.639  -0.835   1.112  0.00  0.00    +0.027 A 
ATOM     16  C   UNL     1      -1.182  -4.006   0.129  0.00  0.00    +0.045 C 
ENDBRANCH   5  14
ENDBRANCH   1   6
BRANCH   3  17
ATOM     17  C   UNL     1       0.502  -2.975   7.265  0.00  0.00    +0.140 C 
BRANCH  17  18
ATOM     18  C   UNL     1       0.594  -2.007   8.416  0.00  0.00    -0.025 A 
ATOM     19  C   UNL     1       1.830  -1.543   8.829  0.00  0.00    +0.054 A 
ATOM     20  C   UNL     1       1.911  -0.653   9.887  0.00  0.00    +0.164 A 
ATOM     21  C   UNL     1       0.757  -0.229  10.529  0.00  0.00    +0.180 A 
ATOM     22  C   UNL     1      -0.480  -0.695  10.113  0.00  0.00    +0.086 A 
ATOM     23  C   UNL     1      -0.557  -1.581   9.052  0.00  0.00    +0.029 A 
ATOM     24 CL   UNL     1      -1.926  -0.167  10.915  0.00  0.00    -0.080 Cl
ATOM     25  O   UNL     1       0.848   0.649  11.570  0.00  0.00    -0.487 OA
ATOM     26  C   UNL     1       1.451   0.143  12.763  0.00  0.00    +0.232 C 
ATOM     27  C   UNL     1       2.966   0.249  12.687  0.00  0.00    +0.082 C 
ATOM     28  C   UNL     1       3.554  -0.629  11.593  0.00  0.00    +0.232 C 
ATOM     29  O   UNL     1       3.124  -0.187  10.303  0.00  0.00    -0.488 OA
ENDBRANCH  17  18
ENDBRANCH   3  17
TORSDOF 4
