REMARK  Name = ZINC03605333
REMARK  3 active torsions:
REMARK  status: ('A' for Active; 'I' for Inactive)
REMARK    1  A    between atoms: N_11  and  C_14
REMARK    2  A    between atoms: C_14  and  C_15
REMARK    3  A    between atoms: N_20  and  C_21
REMARK                            x       y       z     vdW  Elec       q    Type
REMARK                         _______ _______ _______ _____ _____    ______ ____
ROOT
ATOM      1  C   UNL     1      -2.482   0.853   0.018  0.00  0.00    +0.213 C 
ENDROOT
BRANCH   1  12
ATOM      2  C   UNL     1      -6.204   3.946   1.448  0.00  0.00    +0.035 A 
ATOM      3  C   UNL     1      -5.283   3.181   0.749  0.00  0.00    +0.051 A 
ATOM      4  C   UNL     1      -5.290   3.189  -0.660  0.00  0.00    +0.051 A 
ATOM      5  C   UNL     1      -6.217   3.961  -1.342  0.00  0.00    +0.035 A 
ATOM      6  C   UNL     1      -7.133   4.722  -0.631  0.00  0.00    +0.060 A 
ATOM      7  C   UNL     1      -7.126   4.714   0.754  0.00  0.00    +0.060 A 
ATOM      8 CL   UNL     1      -8.281   5.673   1.627  0.00  0.00    -0.082 Cl
ATOM      9 CL   UNL     1      -8.296   5.689  -1.483  0.00  0.00    -0.082 Cl
ATOM     10  C   UNL     1      -4.199   2.282  -1.075  0.00  0.00    +0.254 C 
ATOM     11  O   UNL     1      -3.888   2.024  -2.220  0.00  0.00    -0.270 OA
ATOM     12  N   UNL     1      -3.608   1.789   0.029  0.00  0.00    -0.225 N 
ATOM     13  C   UNL     1      -4.192   2.266   1.143  0.00  0.00    +0.254 C 
ATOM     14  O   UNL     1      -3.874   1.991   2.283  0.00  0.00    -0.270 OA
ENDBRANCH   1  12
BRANCH   1  15
ATOM     15  C   UNL     1      -1.187   1.624   0.017  0.00  0.00    +0.238 C 
ATOM     16  O   UNL     1      -1.204   2.836   0.023  0.00  0.00    -0.274 OA
ATOM     17  N   UNL     1      -0.011   0.966   0.007  0.00  0.00    -0.239 N 
ATOM     18  C   UNL     1       1.147   1.655   0.000  0.00  0.00    +0.306 C 
ATOM     19  O   UNL     1       1.130   2.871   0.007  0.00  0.00    -0.252 OA
ATOM     20  N   UNL     1       2.323   0.998  -0.015  0.00  0.00    -0.296 N 
ATOM     21  H   UNL     1       0.002  -0.004   0.002  0.00  0.00    +0.159 HD
ATOM     22  H   UNL     1       2.336   0.028  -0.020  0.00  0.00    +0.151 HD
BRANCH  20  23
ATOM     23  C   UNL     1       3.582   1.747  -0.023  0.00  0.00    +0.074 C 
ATOM     24  C   UNL     1       3.942   2.124  -1.461  0.00  0.00    +0.022 C 
ATOM     25  C   UNL     1       5.256   2.907  -1.470  0.00  0.00    +0.002 C 
ATOM     26  C   UNL     1       6.369   2.042  -0.875  0.00  0.00    +0.000 C 
ATOM     27  C   UNL     1       6.009   1.665   0.563  0.00  0.00    +0.002 C 
ATOM     28  C   UNL     1       4.694   0.882   0.572  0.00  0.00    +0.022 C 
ENDBRANCH  20  23
ENDBRANCH   1  15
TORSDOF 3
