REMARK  Name = ZINC04776773
REMARK  4 active torsions:
REMARK  status: ('A' for Active; 'I' for Inactive)
REMARK    1  A    between atoms: C_5  and  N_7
REMARK    2  A    between atoms: C_8  and  N_22
REMARK    3  A    between atoms: C_9  and  S_12
REMARK    4  A    between atoms: S_12  and  C_15
REMARK                            x       y       z     vdW  Elec       q    Type
REMARK                         _______ _______ _______ _____ _____    ______ ____
ROOT
ATOM      1  N   UNL     1       3.645   2.932  -0.661  0.00  0.00    -0.194 N 
ATOM      2  C   UNL     1       2.401   2.606  -1.118  0.00  0.00    +0.166 A 
ATOM      3  C   UNL     1       1.640   2.349  -0.022  0.00  0.00    +0.244 A 
ATOM      4  N   UNL     1       2.386   2.515   1.070  0.00  0.00    -0.108 NA
ATOM      5  N   UNL     1       3.582   2.856   0.739  0.00  0.00    -0.057 NA
ENDROOT
BRANCH   1  10
ATOM      6  C   UNL     1       5.744   4.537  -3.222  0.00  0.00    +0.002 A 
ATOM      7  C   UNL     1       6.970   3.951  -2.964  0.00  0.00    +0.003 A 
ATOM      8  C   UNL     1       7.096   3.027  -1.944  0.00  0.00    +0.040 A 
ATOM      9  C   UNL     1       5.997   2.690  -1.174  0.00  0.00    +0.149 A 
ATOM     10  C   UNL     1       4.763   3.275  -1.436  0.00  0.00    +0.104 A 
ATOM     11  C   UNL     1       4.641   4.202  -2.461  0.00  0.00    +0.031 A 
ATOM     12  F   UNL     1       6.122   1.791  -0.174  0.00  0.00    -0.203 F 
ENDBRANCH   1  10
BRANCH   3  13
ATOM     13  S   UNL     1      -0.059   1.879  -0.041  0.00  0.00    +0.047 S 
ATOM     14  O   UNL     1      -0.598   2.354  -1.267  0.00  0.00    -0.163 OA
ATOM     15  O   UNL     1      -0.596   2.249   1.221  0.00  0.00    -0.163 OA
BRANCH  13  16
ATOM     16  C   UNL     1      -0.112   0.119  -0.115  0.00  0.00    +0.096 A 
ATOM     17  C   UNL     1      -0.139  -0.520  -1.341  0.00  0.00    +0.028 A 
ATOM     18  C   UNL     1      -0.176  -1.900  -1.399  0.00  0.00    +0.017 A 
ATOM     19  C   UNL     1      -0.196  -2.642  -0.232  0.00  0.00    +0.018 A 
ATOM     20  C   UNL     1      -0.174  -2.001   0.994  0.00  0.00    +0.017 A 
ATOM     21  C   UNL     1      -0.132  -0.621   1.052  0.00  0.00    +0.028 A 
ATOM     22 BR   UNL     1      -0.253  -4.530  -0.311  0.00  0.00    -0.050 Br
ENDBRANCH  13  16
ENDBRANCH   3  13
BRANCH   2  23
ATOM     23  N   UNL     1       1.991   2.549  -2.448  0.00  0.00    -0.340 N 
ATOM     24  H   UNL     1       1.106   2.220  -2.669  0.00  0.00    +0.144 HD
ATOM     25  H   UNL     1       2.591   2.838  -3.153  0.00  0.00    +0.144 HD
ENDBRANCH   2  23
TORSDOF 4
