REMARK  Name = ZINC39015622
REMARK  8 active torsions:
REMARK  status: ('A' for Active; 'I' for Inactive)
REMARK    1  A    between atoms: C_1  and  C_2
REMARK    2  A    between atoms: C_5  and  C_8
REMARK    3  A    between atoms: C_10  and  C_14
REMARK    4  A    between atoms: C_18  and  S_22
REMARK    5  A    between atoms: N_20  and  N_21
REMARK    6  A    between atoms: S_22  and  C_23
REMARK    7  A    between atoms: C_23  and  C_24
REMARK    8  A    between atoms: N_26  and  C_27
REMARK                            x       y       z     vdW  Elec       q    Type
REMARK                         _______ _______ _______ _____ _____    ______ ____
ROOT
ATOM      1  C   UNL     1       1.315  -7.204   0.968  0.00  0.00    +0.185 C 
ATOM      2  N   UNL     1       2.527  -6.548   0.413  0.00  0.00    -0.234 NA
ATOM      3  N   UNL     1       3.542  -7.604   0.397  0.00  0.00    -0.228 NA
ATOM      4  C   UNL     1       2.819  -8.892   0.368  0.00  0.00    +0.214 C 
ATOM      5  N   UNL     1       1.372  -8.567   0.377  0.00  0.00    -0.197 NA
ATOM      6  H   UNL     1       2.354  -6.198  -0.518  0.00  0.00    +0.143 HD
ATOM      7  H   UNL     1       4.139  -7.544   1.208  0.00  0.00    +0.143 HD
ENDROOT
BRANCH   1  10
ATOM      8  C   UNL     1       0.015  -4.280  -0.025  0.00  0.00    +0.091 C 
ATOM      9  C   UNL     1       0.021  -5.058   1.075  0.00  0.00    +0.034 C 
ATOM     10  C   UNL     1       0.048  -6.471   0.520  0.00  0.00    +0.187 C 
ATOM     11  N   UNL     1       0.054  -6.260  -0.937  0.00  0.00    -0.176 NA
ATOM     12  N   UNL     1       0.029  -5.045  -1.147  0.00  0.00    -0.154 NA
BRANCH   8  17
ATOM     13  C   UNL     1      -0.081   1.478   0.025  0.00  0.00    +0.044 C 
ATOM     14  C   UNL     1      -0.056  -0.029   0.012  0.00  0.00    -0.050 A 
ATOM     15  C   UNL     1      -0.042  -0.707  -1.193  0.00  0.00    +0.004 A 
ATOM     16  C   UNL     1      -0.019  -2.087  -1.211  0.00  0.00    +0.010 A 
ATOM     17  C   UNL     1      -0.009  -2.797  -0.012  0.00  0.00    +0.002 A 
ATOM     18  C   UNL     1      -0.023  -2.108   1.200  0.00  0.00    +0.010 A 
ATOM     19  C   UNL     1      -0.041  -0.728   1.206  0.00  0.00    +0.004 A 
ENDBRANCH   8  17
ENDBRANCH   1  10
BRANCH   5  20
ATOM     20  N   UNL     1       0.625  -9.517   1.186  0.00  0.00    -0.264 NA
ATOM     21  H   UNL     1       0.664 -10.442   0.785  0.00  0.00    +0.137 HD
ATOM     22  H   UNL     1       0.958  -9.522   2.138  0.00  0.00    +0.137 HD
ENDBRANCH   5  20
BRANCH   4  23
ATOM     23  S   UNL     1       3.244  -9.810  -1.137  0.00  0.00    -0.115 S 
BRANCH  23  24
ATOM     24  C   UNL     1       2.764  -8.693  -2.483  0.00  0.00    +0.168 C 
BRANCH  24  25
ATOM     25  C   UNL     1       3.068  -9.343  -3.808  0.00  0.00    +0.227 C 
ATOM     26  O   UNL     1       3.561 -10.451  -3.841  0.00  0.00    -0.275 OA
ATOM     27  N   UNL     1       2.793  -8.694  -4.956  0.00  0.00    -0.284 N 
ATOM     28  H   UNL     1       2.340  -7.836  -4.932  0.00  0.00    +0.155 HD
BRANCH  27  29
ATOM     29  C   UNL     1       3.161  -9.256  -6.184  0.00  0.00    +0.053 A 
ATOM     30  C   UNL     1       3.123 -10.633  -6.358  0.00  0.00    +0.044 A 
ATOM     31  C   UNL     1       3.486 -11.185  -7.572  0.00  0.00    +0.043 A 
ATOM     32  C   UNL     1       3.888 -10.367  -8.613  0.00  0.00    +0.021 A 
ATOM     33  C   UNL     1       3.928  -8.996  -8.443  0.00  0.00    +0.023 A 
ATOM     34  C   UNL     1       3.560  -8.437  -7.234  0.00  0.00    +0.062 A 
ATOM     35 CL   UNL     1       3.604  -6.715  -7.023  0.00  0.00    -0.082 Cl
ATOM     36 CL   UNL     1       3.439 -12.907  -7.790  0.00  0.00    -0.083 Cl
ENDBRANCH  27  29
ENDBRANCH  24  25
ENDBRANCH  23  24
ENDBRANCH   4  23
TORSDOF 7
