REMARK  Name = ZINC11976513
REMARK  8 active torsions:
REMARK  status: ('A' for Active; 'I' for Inactive)
REMARK    1  A    between atoms: C_1  and  C_2
REMARK    2  A    between atoms: C_4  and  C_10
REMARK    3  A    between atoms: C_7  and  O_8
REMARK    4  A    between atoms: O_8  and  C_9
REMARK    5  A    between atoms: C_10  and  N_66
REMARK    6  A    between atoms: C_17  and  C_27
REMARK    7  A    between atoms: C_19  and  O_20
REMARK    8  A    between atoms: O_20  and  C_21
REMARK                            x       y       z     vdW  Elec       q    Type
REMARK                         _______ _______ _______ _____ _____    ______ ____
ROOT
ATOM      1  C   UNL     1      -6.955   6.658  -1.295  0.00  0.00    -0.036 C 
ATOM      2  C   UNL     1      -5.839   7.670  -1.153  0.00  0.00    +0.211 C 
ATOM      3  O   UNL     1      -5.029   7.374  -0.009  0.00  0.00    -0.490 OA
ATOM      4  C   UNL     1      -4.029   6.475  -0.220  0.00  0.00    +0.163 A 
ATOM      5  C   UNL     1      -4.333   5.149  -0.468  0.00  0.00    -0.018 A 
ATOM      6  C   UNL     1      -3.335   4.235  -0.722  0.00  0.00    +0.016 A 
ATOM      7  C   UNL     1      -2.001   4.650  -0.721  0.00  0.00    +0.011 A 
ATOM      8  C   UNL     1      -1.688   5.984  -0.450  0.00  0.00    +0.060 A 
ATOM      9  C   UNL     1      -2.699   6.895  -0.203  0.00  0.00    +0.163 A 
ATOM     10  C   UNL     1      -5.783   4.703  -0.439  0.00  0.00    -0.039 C 
ATOM     11  N   UNL     1      -6.465   5.300  -1.612  0.00  0.00    +0.387 N 
ATOM     12  H   UNL     1      -5.794   5.364  -2.386  0.00  0.00    -0.081 HD
ENDROOT
BRANCH   7  13
ATOM     13  C   UNL     1      -0.922   3.679  -0.999  0.00  0.00    +0.110 A 
ATOM     14  N   UNL     1      -1.018   2.396  -1.273  0.00  0.00    -0.239 NA
ATOM     15  C   UNL     1       0.060   1.622  -1.505  0.00  0.00    +0.079 A 
ATOM     16  C   UNL     1       0.097   0.239  -1.804  0.00  0.00    +0.029 A 
ATOM     17  C   UNL     1       1.279  -0.396  -2.019  0.00  0.00    +0.002 A 
ATOM     18  C   UNL     1       2.491   0.277  -1.954  0.00  0.00    +0.001 A 
ATOM     19  C   UNL     1       2.501   1.629  -1.664  0.00  0.00    +0.017 A 
ATOM     20  C   UNL     1       1.312   2.280  -1.446  0.00  0.00    +0.040 A 
ATOM     21  S   UNL     1       0.844   3.949  -1.057  0.00  0.00    -0.067 S 
ENDBRANCH   7  13
BRANCH  11  22
ATOM     22  C   UNL     1      -7.590   4.447  -2.027  0.00  0.00    -0.042 C 
BRANCH  22  26
ATOM     23  C   UNL     1      -7.511   4.495  -7.029  0.00  0.00    +0.047 C 
ATOM     24  C   UNL     1      -8.091   4.988  -5.729  0.00  0.00    -0.009 A 
ATOM     25  C   UNL     1      -7.599   4.513  -4.528  0.00  0.00    +0.008 A 
ATOM     26  C   UNL     1      -8.130   4.966  -3.335  0.00  0.00    -0.063 A 
ATOM     27  C   UNL     1      -9.158   5.890  -3.339  0.00  0.00    +0.005 A 
ATOM     28  C   UNL     1      -9.650   6.372  -4.536  0.00  0.00    +0.046 A 
ATOM     29  C   UNL     1      -9.119   5.919  -5.736  0.00  0.00    +0.123 A 
BRANCH  29  30
ATOM     30  O   UNL     1      -9.605   6.388  -6.915  0.00  0.00    -0.495 OA
ATOM     31  C   UNL     1     -10.664   7.345  -6.846  0.00  0.00    +0.277 C 
ENDBRANCH  29  30
ENDBRANCH  22  26
ENDBRANCH  11  22
BRANCH   9  32
ATOM     32  O   UNL     1      -2.397   8.195   0.059  0.00  0.00    -0.483 OA
BRANCH  32  33
ATOM     33  C   UNL     1      -1.013   8.528   0.177  0.00  0.00    +0.201 C 
ATOM     34  C   UNL     1      -0.841   9.872   0.925  0.00  0.00    +0.075 C 
ATOM     35  C   UNL     1       0.297  10.549   0.120  0.00  0.00    +0.163 C 
ATOM     36  O   UNL     1       0.022  10.162  -1.243  0.00  0.00    -0.376 OA
ATOM     37  C   UNL     1      -0.400   8.788  -1.212  0.00  0.00    +0.204 C 
ENDBRANCH  32  33
ENDBRANCH   9  32
TORSDOF 6
