REMARK  Name = ZINC32812270
REMARK  5 active torsions:
REMARK  status: ('A' for Active; 'I' for Inactive)
REMARK    1  A    between atoms: C_5  and  C_6
REMARK    2  A    between atoms: C_7  and  C_8
REMARK    3  A    between atoms: C_7  and  C_10
REMARK    4  A    between atoms: N_12  and  C_13
REMARK    5  A    between atoms: C_18  and  N_19
REMARK                            x       y       z     vdW  Elec       q    Type
REMARK                         _______ _______ _______ _____ _____    ______ ____
ROOT
ATOM      1  C   UNL     1       4.983   1.969   0.529  0.00  0.00    +0.259 C 
ATOM      2  O   UNL     1       5.272   0.914   1.063  0.00  0.00    -0.269 OA
ATOM      3  N   UNL     1       5.943   2.713  -0.057  0.00  0.00    -0.279 N 
ATOM      4  H   UNL     1       5.673   3.629  -0.602  0.00  0.00    +0.155 HD
ENDROOT
BRANCH   3   5
ATOM      5  C   UNL     1       7.284   2.318   0.029  0.00  0.00    +0.068 A 
ATOM      6  C   UNL     1       7.614   0.970   0.013  0.00  0.00    +0.075 A 
ATOM      7  C   UNL     1       8.941   0.580   0.097  0.00  0.00    +0.164 A 
ATOM      8  C   UNL     1       9.941   1.541   0.195  0.00  0.00    +0.164 A 
ATOM      9  C   UNL     1       9.607   2.887   0.211  0.00  0.00    +0.084 A 
ATOM     10  C   UNL     1       8.284   3.276   0.123  0.00  0.00    +0.151 A 
ATOM     11  O   UNL     1      11.251   1.178   0.274  0.00  0.00    -0.485 OA
ATOM     12  C   UNL     1      11.521  -0.182   0.633  0.00  0.00    +0.270 C 
ATOM     13  C   UNL     1      10.608  -1.089  -0.204  0.00  0.00    +0.270 C 
ATOM     14  O   UNL     1       9.248  -0.746   0.085  0.00  0.00    -0.485 OA
BRANCH  10  15
ATOM     15  N   UNL     1       7.934   4.714   0.134  0.00  0.00    +0.058 N 
ATOM     16  O   UNL     1       8.814   5.556   0.117  0.00  0.00    -0.126 OA
ATOM     17  O   UNL     1       6.765   5.056   0.160  0.00  0.00    -0.126 OA
ENDBRANCH  10  15
ENDBRANCH   3   5
BRANCH   1  19
ATOM     18  C   UNL     1       2.603   1.668   1.126  0.00  0.00    +0.039 C 
ATOM     19  C   UNL     1       3.591   2.432   0.524  0.00  0.00    +0.115 C 
BRANCH  18  24
ATOM     20  C   UNL     1       0.137   1.502   1.664  0.00  0.00    +0.031 A 
ATOM     21  C   UNL     1      -1.055   2.158   1.510  0.00  0.00    +0.025 A 
ATOM     22  C   UNL     1      -1.078   3.353   0.857  0.00  0.00    +0.061 A 
ATOM     23  S   UNL     1       0.581   3.600   0.419  0.00  0.00    -0.096 S 
ATOM     24  C   UNL     1       1.269   2.111   1.121  0.00  0.00    +0.015 A 
ATOM     25 BR   UNL     1      -2.651   1.415   2.201  0.00  0.00    -0.050 Br
ENDBRANCH  18  24
BRANCH  19  26
ATOM     26  C   UNL     1       3.251   3.674  -0.104  0.00  0.00    +0.104 C 
ATOM     27  N   UNL     1       2.982   4.659  -0.602  0.00  0.00    -0.191 NA
ENDBRANCH  19  26
ENDBRANCH   1  19
TORSDOF 5
