REMARK  Name = ZINC02472093
REMARK  4 active torsions:
REMARK  status: ('A' for Active; 'I' for Inactive)
REMARK    1  A    between atoms: C_3  and  N_24
REMARK    2  A    between atoms: C_6  and  C_7
REMARK    3  A    between atoms: C_19  and  N_23
REMARK    4  A    between atoms: C_20  and  C_21
REMARK                            x       y       z     vdW  Elec       q    Type
REMARK                         _______ _______ _______ _____ _____    ______ ____
ROOT
ATOM      1  C   UNL     1      -2.553   3.869   0.045  0.00  0.00    +0.117 C 
ATOM      2  C   UNL     1      -3.342   3.505  -1.183  0.00  0.00    +0.107 A 
ATOM      3  C   UNL     1      -4.376   2.645  -1.117  0.00  0.00    +0.216 A 
ATOM      4  C   UNL     1      -5.093   2.332  -2.304  0.00  0.00    +0.297 A 
ATOM      5  O   UNL     1      -6.032   1.557  -2.268  0.00  0.00    -0.264 OA
ATOM      6  N   UNL     1      -4.730   2.892  -3.464  0.00  0.00    -0.270 N 
ATOM      7  H   UNL     1      -5.280   2.653  -4.386  0.00  0.00    +0.174 HD
ATOM      8  C   UNL     1      -3.692   3.748  -3.507  0.00  0.00    +0.349 A 
ATOM      9  O   UNL     1      -3.374   4.250  -4.568  0.00  0.00    -0.245 OA
ATOM     10  N   UNL     1      -3.004   4.058  -2.394  0.00  0.00    -0.193 NA
ATOM     11  O   UNL     1      -4.745   2.074   0.058  0.00  0.00    -0.434 OA
ATOM     12  C   UNL     1      -4.361   2.626   1.221  0.00  0.00    +0.199 C 
ATOM     13  C   UNL     1      -3.319   3.492   1.283  0.00  0.00    +0.099 C 
ENDROOT
BRANCH   1  19
ATOM     14  C   UNL     1      -1.219   1.751   0.017  0.00  0.00    +0.007 A 
ATOM     15  C   UNL     1      -0.013   1.076   0.008  0.00  0.00    +0.033 A 
ATOM     16  C   UNL     1       1.175   1.783   0.000  0.00  0.00    +0.126 A 
ATOM     17  C   UNL     1       1.156   3.165   0.008  0.00  0.00    +0.033 A 
ATOM     18  C   UNL     1      -0.050   3.840   0.022  0.00  0.00    +0.007 A 
ATOM     19  C   UNL     1      -1.238   3.133   0.029  0.00  0.00    -0.033 A 
BRANCH  16  20
ATOM     20  N   UNL     1       2.467   1.061  -0.015  0.00  0.00    +0.056 N 
ATOM     21  O   UNL     1       2.483  -0.157  -0.022  0.00  0.00    -0.126 OA
ATOM     22  O   UNL     1       3.513   1.684  -0.022  0.00  0.00    -0.126 OA
ENDBRANCH  16  20
ENDBRANCH   1  19
BRANCH  12  23
ATOM     23  N   UNL     1      -5.036   2.305   2.372  0.00  0.00    -0.328 N 
ATOM     24  H   UNL     1      -4.731   2.749   3.331  0.00  0.00    +0.145 HD
ATOM     25  H   UNL     1      -5.883   1.603   2.336  0.00  0.00    +0.145 HD
ENDBRANCH  12  23
BRANCH  13  26
ATOM     26  C   UNL     1      -2.943   4.055   2.545  0.00  0.00    +0.101 C 
ATOM     27  N   UNL     1      -2.645   4.502   3.546  0.00  0.00    -0.191 NA
ENDBRANCH  13  26
TORSDOF 4
