REMARK  Name = ZINC63271035
REMARK  5 active torsions:
REMARK  status: ('A' for Active; 'I' for Inactive)
REMARK    1  A    between atoms: C_4  and  O_7
REMARK    2  A    between atoms: O_7  and  C_8
REMARK    3  A    between atoms: C_11  and  N_14
REMARK    4  A    between atoms: C_15  and  C_17
REMARK    5  A    between atoms: C_17  and  N_18
REMARK                            x       y       z     vdW  Elec       q    Type
REMARK                         _______ _______ _______ _____ _____    ______ ____
ROOT
ATOM      1  C   UNL     1       3.991  -8.408   0.303  0.00  0.00    +0.202 C 
ENDROOT
BRANCH   1   2
ATOM      2  N   UNL     1       5.311  -9.026   0.456  0.00  0.00    -0.291 N 
ATOM      3  C   UNL     1       5.417 -10.362   0.600  0.00  0.00    +0.303 C 
ATOM      4  O   UNL     1       4.428 -11.063   0.508  0.00  0.00    -0.253 OA
ATOM      5  N   UNL     1       6.619 -10.919   0.846  0.00  0.00    -0.283 N 
ATOM      6  C   UNL     1       7.783 -10.060   1.081  0.00  0.00    +0.114 C 
ATOM      7  C   UNL     1       8.391 -10.385   2.457  0.00  0.00    +0.052 C 
ATOM      8  C   UNL     1       8.462 -11.889   2.554  0.00  0.00    -0.036 C 
ATOM      9  C   UNL     1       9.465 -12.704   2.857  0.00  0.00    -0.001 A 
ATOM     10  C   UNL     1      10.839 -12.438   3.314  0.00  0.00    +0.010 A 
ATOM     11  C   UNL     1      11.625 -13.528   3.516  0.00  0.00    +0.001 A 
ATOM     12  C   UNL     1      11.187 -14.840   3.312  0.00  0.00    +0.002 A 
ATOM     13  C   UNL     1       9.939 -15.177   2.901  0.00  0.00    +0.026 A 
ATOM     14  C   UNL     1       9.017 -14.116   2.664  0.00  0.00    +0.043 A 
ATOM     15  N   UNL     1       7.772 -14.152   2.293  0.00  0.00    -0.376 N 
ATOM     16  C   UNL     1       7.260 -12.781   2.265  0.00  0.00    +0.124 C 
ATOM     17  C   UNL     1       6.747 -12.385   0.882  0.00  0.00    +0.138 C 
ATOM     18  H   UNL     1       6.108  -8.473   0.453  0.00  0.00    +0.151 HD
ATOM     19  H   UNL     1       7.267 -14.950   2.072  0.00  0.00    +0.160 HD
ENDBRANCH   1   2
BRANCH   1  21
ATOM     20  N   UNL     1       3.061  -6.135   0.008  0.00  0.00    -0.284 N 
ATOM     21  C   UNL     1       4.149  -6.916   0.161  0.00  0.00    +0.234 C 
ATOM     22  O   UNL     1       5.254  -6.418   0.184  0.00  0.00    -0.274 OA
ATOM     23  H   UNL     1       2.183  -6.538  -0.078  0.00  0.00    +0.155 HD
BRANCH  20  27
ATOM     24  C   UNL     1       3.469  -1.987  -0.099  0.00  0.00    +0.129 A 
ATOM     25  C   UNL     1       4.452  -2.795  -0.652  0.00  0.00    +0.048 A 
ATOM     26  C   UNL     1       4.317  -4.169  -0.617  0.00  0.00    +0.027 A 
ATOM     27  C   UNL     1       3.198  -4.741  -0.028  0.00  0.00    +0.034 A 
ATOM     28  C   UNL     1       2.215  -3.932   0.526  0.00  0.00    +0.027 A 
ATOM     29  C   UNL     1       2.353  -2.559   0.494  0.00  0.00    +0.048 A 
BRANCH  24  30
ATOM     30  O   UNL     1       3.602  -0.634  -0.134  0.00  0.00    -0.456 OA
BRANCH  30  34
ATOM     31  C   UNL     1       2.910   1.288  -3.718  0.00  0.00    +0.000 A 
ATOM     32  C   UNL     1       3.166   2.026  -2.577  0.00  0.00    +0.004 A 
ATOM     33  C   UNL     1       3.398   1.385  -1.376  0.00  0.00    +0.046 A 
ATOM     34  C   UNL     1       3.374  -0.001  -1.315  0.00  0.00    +0.128 A 
ATOM     35  C   UNL     1       3.117  -0.739  -2.461  0.00  0.00    +0.046 A 
ATOM     36  C   UNL     1       2.886  -0.093  -3.660  0.00  0.00    +0.004 A 
ENDBRANCH  30  34
ENDBRANCH  24  30
ENDBRANCH  20  27
ENDBRANCH   1  21
TORSDOF 5
