REMARK  Name = ZINC38550876
REMARK  5 active torsions:
REMARK  status: ('A' for Active; 'I' for Inactive)
REMARK    1  A    between atoms: C_1  and  O_2
REMARK    2  A    between atoms: O_2  and  C_3
REMARK    3  A    between atoms: C_6  and  N_11
REMARK    4  A    between atoms: C_8  and  O_9
REMARK    5  A    between atoms: O_9  and  C_10
REMARK                            x       y       z     vdW  Elec       q    Type
REMARK                         _______ _______ _______ _____ _____    ______ ____
ROOT
ATOM      1  N   UNL     1       2.519  -2.454  -4.281  0.00  0.00    -0.269 N 
ATOM      2  C   UNL     1       2.921  -1.711  -5.331  0.00  0.00    +0.307 C 
ATOM      3  O   UNL     1       2.825  -0.499  -5.291  0.00  0.00    -0.252 OA
ATOM      4  N   UNL     1       3.429  -2.310  -6.426  0.00  0.00    -0.282 N 
ATOM      5  C   UNL     1       3.382  -3.772  -6.568  0.00  0.00    +0.128 C 
ATOM      6  C   UNL     1       2.683  -4.115  -7.889  0.00  0.00    +0.126 C 
ATOM      7  N   UNL     1       3.292  -3.319  -8.963  0.00  0.00    -0.307 N 
ATOM      8  C   UNL     1       3.339  -1.857  -8.822  0.00  0.00    +0.126 C 
ATOM      9  C   UNL     1       4.033  -1.514  -7.503  0.00  0.00    +0.128 C 
ATOM     10  C   UNL     1       3.812  -3.933 -10.085  0.00  0.00    +0.162 A 
ATOM     11  N   UNL     1       3.852  -5.212 -10.380  0.00  0.00    -0.222 NA
ATOM     12  C   UNL     1       4.397  -5.676 -11.526  0.00  0.00    +0.115 A 
ATOM     13  C   UNL     1       4.505  -7.018 -11.963  0.00  0.00    +0.150 A 
ATOM     14  C   UNL     1       5.093  -7.319 -13.165  0.00  0.00    +0.040 A 
ATOM     15  C   UNL     1       5.601  -6.327 -13.991  0.00  0.00    +0.004 A 
ATOM     16  C   UNL     1       5.512  -5.005 -13.596  0.00  0.00    +0.017 A 
ATOM     17  C   UNL     1       4.925  -4.694 -12.394  0.00  0.00    +0.044 A 
ATOM     18  S   UNL     1       4.595  -3.189 -11.509  0.00  0.00    -0.052 S 
ATOM     19  F   UNL     1       4.023  -8.014 -11.186  0.00  0.00    -0.203 F 
ATOM     20  H   UNL     1       2.712  -3.404  -4.257  0.00  0.00    +0.156 HD
ENDROOT
BRANCH   1  24
ATOM     21  C   UNL     1       0.448  -0.660  -1.133  0.00  0.00    +0.162 A 
ATOM     22  C   UNL     1       1.270   0.103  -1.947  0.00  0.00    +0.051 A 
ATOM     23  C   UNL     1       1.956  -0.491  -2.990  0.00  0.00    +0.027 A 
ATOM     24  C   UNL     1       1.823  -1.853  -3.223  0.00  0.00    +0.038 A 
ATOM     25  C   UNL     1       1.001  -2.620  -2.409  0.00  0.00    +0.072 A 
ATOM     26  C   UNL     1       0.318  -2.027  -1.361  0.00  0.00    +0.163 A 
BRANCH  21  28
ATOM     27  C   UNL     1      -0.046   1.333   0.069  0.00  0.00    +0.277 C 
ATOM     28  O   UNL     1      -0.227  -0.074  -0.107  0.00  0.00    -0.491 OA
ENDBRANCH  21  28
BRANCH  26  29
ATOM     29  O   UNL     1      -0.484  -2.777  -0.559  0.00  0.00    -0.491 OA
ATOM     30  C   UNL     1      -0.570  -4.173  -0.852  0.00  0.00    +0.277 C 
ENDBRANCH  26  29
ENDBRANCH   1  24
TORSDOF 3
