REMARK  Name = ZINC16457503
REMARK  9 active torsions:
REMARK  status: ('A' for Active; 'I' for Inactive)
REMARK    1  A    between atoms: C_1  and  C_2
REMARK    2  A    between atoms: C_2  and  C_3
REMARK    3  A    between atoms: C_2  and  C_4
REMARK    4  A    between atoms: C_2  and  N_5
REMARK    5  A    between atoms: C_9  and  C_11
REMARK    6  A    between atoms: C_11  and  O_12
REMARK    7  A    between atoms: O_12  and  C_13
REMARK    8  A    between atoms: C_13  and  C_15
REMARK    9  A    between atoms: C_18  and  C_20
REMARK                            x       y       z     vdW  Elec       q    Type
REMARK                         _______ _______ _______ _____ _____    ______ ____
ROOT
ATOM      1  O   UNL     1       6.319   2.618  -0.045  0.00  0.00    -0.451 OA
ENDROOT
BRANCH   1   2
ATOM      2  C   UNL     1       6.117   1.286  -0.049  0.00  0.00    +0.359 C 
ATOM      3  O   UNL     1       7.066   0.527  -0.062  0.00  0.00    -0.243 OA
BRANCH   2   4
ATOM      4  C   UNL     1       4.746   0.750  -0.038  0.00  0.00    +0.155 A 
ATOM      5  C   UNL     1       4.524  -0.616  -0.043  0.00  0.00    +0.082 A 
ATOM      6  S   UNL     1       2.789  -0.685  -0.020  0.00  0.00    -0.075 S 
ATOM      7  C   UNL     1       2.478   1.073  -0.016  0.00  0.00    +0.109 A 
ATOM      8  N   UNL     1       3.703   1.566  -0.025  0.00  0.00    -0.232 NA
BRANCH   7   9
ATOM      9  C   UNL     1       1.185   1.791   0.000  0.00  0.00    +0.007 A 
ATOM     10  C   UNL     1      -0.013   1.076   0.008  0.00  0.00    +0.012 A 
ATOM     11  C   UNL     1      -1.216   1.751   0.017  0.00  0.00    +0.020 A 
ATOM     12  C   UNL     1      -1.236   3.135   0.029  0.00  0.00    +0.041 A 
ATOM     13  C   UNL     1      -0.050   3.850   0.022  0.00  0.00    +0.020 A 
ATOM     14  C   UNL     1       1.159   3.186   0.008  0.00  0.00    +0.012 A 
ATOM     15 CL   UNL     1      -2.754   3.978   0.047  0.00  0.00    -0.084 Cl
ENDBRANCH   7   9
ENDBRANCH   2   4
ENDBRANCH   1   2
BRANCH   1  16
ATOM     16  C   UNL     1       7.697   3.076  -0.056  0.00  0.00    +0.328 C 
BRANCH  16  21
ATOM     17  N   UNL     1      10.112   7.232  -0.059  0.00  0.00    -0.294 N 
ATOM     18  C   UNL     1       8.932   6.581  -0.051  0.00  0.00    +0.306 C 
ATOM     19  O   UNL     1       7.892   7.209  -0.037  0.00  0.00    -0.252 OA
ATOM     20  N   UNL     1       8.906   5.234  -0.057  0.00  0.00    -0.237 N 
ATOM     21  C   UNL     1       7.726   4.583  -0.049  0.00  0.00    +0.258 C 
ATOM     22  O   UNL     1       6.688   5.209  -0.036  0.00  0.00    -0.272 OA
ATOM     23  H   UNL     1      10.943   6.731  -0.069  0.00  0.00    +0.151 HD
ATOM     24  H   UNL     1       9.737   4.733  -0.067  0.00  0.00    +0.159 HD
BRANCH  17  26
ATOM     25  C   UNL     1       9.441   9.215   1.207  0.00  0.00    +0.031 C 
ATOM     26  C   UNL     1      10.140   8.697  -0.052  0.00  0.00    +0.028 C 
ATOM     27  C   UNL     1      11.592   9.179  -0.064  0.00  0.00    +0.031 C 
ATOM     28  C   UNL     1       9.417   9.227  -1.292  0.00  0.00    +0.031 C 
ENDBRANCH  17  26
ENDBRANCH  16  21
ENDBRANCH   1  16
TORSDOF 6
