REMARK  Name = ZINC63405946
REMARK  7 active torsions:
REMARK  status: ('A' for Active; 'I' for Inactive)
REMARK    1  A    between atoms: C_7  and  C_10
REMARK    2  A    between atoms: C_10  and  C_11
REMARK    3  A    between atoms: C_11  and  N_12
REMARK    4  A    between atoms: C_13  and  C_15
REMARK    5  A    between atoms: C_15  and  N_23
REMARK    6  A    between atoms: C_16  and  C_17
REMARK    7  A    between atoms: C_24  and  C_26
REMARK                            x       y       z     vdW  Elec       q    Type
REMARK                         _______ _______ _______ _____ _____    ______ ____
ROOT
ATOM      1  C   UNL     1      -1.813  -6.396  -2.430  0.00  0.00    +0.097 C 
ATOM      2  C   UNL     1      -2.314  -6.866  -1.265  0.00  0.00    +0.038 C 
ENDROOT
BRANCH   2   3
ATOM      3  C   UNL     1      -1.869  -6.288   0.013  0.00  0.00    -0.005 A 
ATOM      4  C   UNL     1      -1.546  -4.926   0.107  0.00  0.00    +0.011 A 
ATOM      5  C   UNL     1      -1.134  -4.434   1.332  0.00  0.00    +0.020 A 
ATOM      6  C   UNL     1      -1.053  -5.292   2.415  0.00  0.00    +0.111 A 
ATOM      7  N   UNL     1      -1.363  -6.569   2.299  0.00  0.00    -0.263 NA
ATOM      8  C   UNL     1      -1.766  -7.086   1.157  0.00  0.00    +0.118 A 
ENDBRANCH   2   3
BRANCH   1  10
ATOM      9  N   UNL     1       0.538  -5.820  -2.110  0.00  0.00    -0.310 N 
ATOM     10  C   UNL     1      -0.712  -5.421  -2.418  0.00  0.00    +0.258 C 
ATOM     11  O   UNL     1      -0.930  -4.254  -2.684  0.00  0.00    -0.269 OA
ATOM     12  H   UNL     1       0.726  -6.761  -1.970  0.00  0.00    +0.149 HD
BRANCH   9  13
ATOM     13  C   UNL     1       1.613  -4.832  -1.988  0.00  0.00    +0.109 C 
BRANCH  13  14
ATOM     14  C   UNL     1       2.892  -5.526  -1.517  0.00  0.00    +0.052 C 
BRANCH  14  21
ATOM     15  C   UNL     1       4.472  -3.086   2.034  0.00  0.00    +0.001 A 
ATOM     16  C   UNL     1       5.538  -2.238   1.703  0.00  0.00    +0.002 A 
ATOM     17  C   UNL     1       6.044  -2.156   0.454  0.00  0.00    +0.026 A 
ATOM     18  C   UNL     1       5.500  -2.946  -0.595  0.00  0.00    +0.043 A 
ATOM     19  N   UNL     1       5.809  -3.043  -1.865  0.00  0.00    -0.380 N 
ATOM     20  C   UNL     1       4.912  -4.021  -2.492  0.00  0.00    +0.144 C 
ATOM     21  C   UNL     1       3.998  -4.510  -1.391  0.00  0.00    -0.040 C 
ATOM     22  C   UNL     1       4.373  -3.850  -0.272  0.00  0.00    -0.001 A 
ATOM     23  C   UNL     1       3.882  -3.880   1.111  0.00  0.00    +0.010 A 
ATOM     24  H   UNL     1       6.513  -2.550  -2.316  0.00  0.00    +0.160 HD
ENDBRANCH  14  21
ENDBRANCH  13  14
ENDBRANCH   9  13
ENDBRANCH   1  10
BRANCH   1  25
ATOM     25  N   UNL     1      -2.341  -6.837  -3.647  0.00  0.00    -0.277 N 
ATOM     26  C   UNL     1      -1.757  -6.476  -4.806  0.00  0.00    +0.251 C 
ATOM     27  O   UNL     1      -0.725  -5.834  -4.792  0.00  0.00    -0.270 OA
ATOM     28  H   UNL     1      -3.129  -7.403  -3.657  0.00  0.00    +0.155 HD
BRANCH  26  29
ATOM     29  C   UNL     1      -2.369  -6.862  -6.093  0.00  0.00    +0.072 A 
ATOM     30  C   UNL     1      -3.558  -7.595  -6.114  0.00  0.00    +0.016 A 
ATOM     31  C   UNL     1      -4.124  -7.951  -7.319  0.00  0.00    +0.001 A 
ATOM     32  C   UNL     1      -3.519  -7.585  -8.509  0.00  0.00    +0.003 A 
ATOM     33  C   UNL     1      -2.343  -6.859  -8.500  0.00  0.00    +0.039 A 
ATOM     34  C   UNL     1      -1.765  -6.489  -7.298  0.00  0.00    +0.135 A 
ATOM     35  F   UNL     1      -0.619  -5.774  -7.290  0.00  0.00    -0.205 F 
ENDBRANCH  26  29
ENDBRANCH   1  25
TORSDOF 7
