REMARK  Name = ZINC09601712
REMARK  8 active torsions:
REMARK  status: ('A' for Active; 'I' for Inactive)
REMARK    1  A    between atoms: C_1  and  C_2
REMARK    2  A    between atoms: C_2  and  C_4
REMARK    3  A    between atoms: C_2  and  N_10
REMARK    4  A    between atoms: N_10  and  C_11
REMARK    5  A    between atoms: C_13  and  N_20
REMARK    6  A    between atoms: C_16  and  N_17
REMARK    7  A    between atoms: N_23  and  S_26
REMARK    8  A    between atoms: S_26  and  C_29
REMARK                            x       y       z     vdW  Elec       q    Type
REMARK                         _______ _______ _______ _____ _____    ______ ____
ROOT
ATOM      1  C   UNL     1      -6.271   3.720  -4.283  0.00  0.00    +0.060 A 
ATOM      2  C   UNL     1      -5.073   3.077  -4.003  0.00  0.00    +0.048 A 
ATOM      3  C   UNL     1      -4.188   3.632  -3.090  0.00  0.00    +0.032 A 
ATOM      4  C   UNL     1      -4.499   4.835  -2.466  0.00  0.00    +0.025 A 
ATOM      5  C   UNL     1      -5.690   5.474  -2.751  0.00  0.00    +0.036 A 
ATOM      6  C   UNL     1      -6.576   4.922  -3.655  0.00  0.00    +0.147 A 
ENDROOT
BRANCH   3   7
ATOM      7  N   UNL     1      -2.984   2.986  -2.802  0.00  0.00    -0.327 N 
ATOM      8  C   UNL     1      -2.200   3.746  -1.819  0.00  0.00    +0.122 C 
ATOM      9  C   UNL     1      -0.817   3.104  -1.667  0.00  0.00    +0.128 C 
ATOM     10  N   UNL     1      -0.996   1.679  -1.351  0.00  0.00    -0.174 NA
ATOM     11  C   UNL     1      -1.875   0.879  -2.217  0.00  0.00    +0.128 C 
ATOM     12  C   UNL     1      -3.221   1.610  -2.345  0.00  0.00    +0.122 C 
BRANCH  10  13
ATOM     13  S   UNL     1      -0.223   0.991  -0.058  0.00  0.00    +0.061 S 
ATOM     14  O   UNL     1      -0.129  -0.400  -0.334  0.00  0.00    -0.153 OA
ATOM     15  O   UNL     1       0.919   1.794   0.206  0.00  0.00    -0.153 OA
BRANCH  13  16
ATOM     16  C   UNL     1      -1.288   1.157   1.335  0.00  0.00    +0.106 A 
ATOM     17  C   UNL     1      -1.189   2.288   2.144  0.00  0.00    +0.029 A 
ATOM     18  C   UNL     1      -2.001   2.450   3.225  0.00  0.00    +0.010 A 
ATOM     19  C   UNL     1      -2.946   1.459   3.539  0.00  0.00    -0.018 A 
ATOM     20  C   UNL     1      -3.797   1.588   4.650  0.00  0.00    +0.008 A 
ATOM     21  C   UNL     1      -4.701   0.608   4.924  0.00  0.00    +0.001 A 
ATOM     22  C   UNL     1      -4.796  -0.525   4.118  0.00  0.00    +0.001 A 
ATOM     23  C   UNL     1      -3.989  -0.684   3.034  0.00  0.00    +0.008 A 
ATOM     24  C   UNL     1      -3.043   0.307   2.720  0.00  0.00    -0.016 A 
ATOM     25  C   UNL     1      -2.192   0.177   1.609  0.00  0.00    +0.037 A 
ENDBRANCH  13  16
ENDBRANCH  10  13
ENDBRANCH   3   7
BRANCH   6  26
ATOM     26  N   UNL     1      -7.850   5.611  -3.957  0.00  0.00    +0.058 N 
ATOM     27  O   UNL     1      -7.885   6.826  -4.023  0.00  0.00    -0.126 OA
ATOM     28  O   UNL     1      -8.865   4.962  -4.139  0.00  0.00    -0.126 OA
ENDBRANCH   6  26
BRANCH   1  29
ATOM     29  N   UNL     1      -7.167   3.162  -5.198  0.00  0.00    -0.335 N 
ATOM     30  H   UNL     1      -7.964   3.651  -5.456  0.00  0.00    +0.147 HD
BRANCH  29  32
ATOM     31  C   UNL     1      -7.427   0.760  -4.820  0.00  0.00    +0.033 C 
ATOM     32  C   UNL     1      -6.902   1.839  -5.769  0.00  0.00    +0.098 C 
BRANCH  32  33
ATOM     33  C   UNL     1      -7.597   1.719  -7.101  0.00  0.00    -0.028 A 
ATOM     34  C   UNL     1      -8.869   2.234  -7.266  0.00  0.00    +0.005 A 
ATOM     35  C   UNL     1      -9.504   2.127  -8.489  0.00  0.00    +0.000 A 
ATOM     36  C   UNL     1      -8.871   1.497  -9.544  0.00  0.00    +0.000 A 
ATOM     37  C   UNL     1      -7.601   0.977  -9.377  0.00  0.00    +0.000 A 
ATOM     38  C   UNL     1      -6.964   1.088  -8.156  0.00  0.00    +0.005 A 
ENDBRANCH  32  33
ENDBRANCH  29  32
ENDBRANCH   1  29
TORSDOF 7
