REMARK  Name = ZINC00865819
REMARK  4 active torsions:
REMARK  status: ('A' for Active; 'I' for Inactive)
REMARK    1  A    between atoms: C_3  and  C_6
REMARK    2  A    between atoms: C_9  and  C_30
REMARK    3  A    between atoms: C_14  and  C_16
REMARK    4  A    between atoms: N_18  and  C_19
REMARK                            x       y       z     vdW  Elec       q    Type
REMARK                         _______ _______ _______ _____ _____    ______ ____
ROOT
ATOM      1  C   UNL     1       3.253   3.446   0.444  0.00  0.00    +0.111 C 
ATOM      2  C   UNL     1       2.897   4.704  -0.354  0.00  0.00    +0.063 C 
ATOM      3  C   UNL     1       1.488   5.165   0.047  0.00  0.00    +0.215 C 
ATOM      4  N   UNL     1       0.612   3.988   0.039  0.00  0.00    -0.237 N 
ATOM      5  C   UNL     1       1.060   2.701   0.022  0.00  0.00    +0.133 A 
ATOM      6  C   UNL     1      -0.023   1.887   0.018  0.00  0.00    +0.089 A 
ATOM      7  C   UNL     1      -1.175   2.704   0.028  0.00  0.00    +0.163 A 
ATOM      8  N   UNL     1      -0.784   3.966   0.047  0.00  0.00    -0.163 NA
ATOM      9 BR   UNL     1       0.003  -0.004  -0.005  0.00  0.00    -0.044 Br
ATOM     10  N   UNL     1       2.402   2.328   0.010  0.00  0.00    -0.321 N 
ATOM     11  H   UNL     1       2.857   1.365  -0.266  0.00  0.00    +0.148 HD
ENDROOT
BRANCH   1  14
ATOM     12  C   UNL     1       7.025   2.924   0.571  0.00  0.00    +0.008 A 
ATOM     13  C   UNL     1       5.777   3.343   0.994  0.00  0.00    +0.013 A 
ATOM     14  C   UNL     1       4.700   3.096   0.208  0.00  0.00    +0.010 A 
ATOM     15  S   UNL     1       5.439   2.241  -1.174  0.00  0.00    -0.100 S 
ATOM     16  C   UNL     1       7.135   2.279  -0.616  0.00  0.00    +0.045 A 
ENDBRANCH   1  14
BRANCH   7  17
ATOM     17  C   UNL     1      -2.574   2.230   0.023  0.00  0.00    +0.270 C 
ATOM     18  O   UNL     1      -2.812   1.038   0.009  0.00  0.00    -0.268 OA
ATOM     19  N   UNL     1      -3.586   3.120   0.034  0.00  0.00    -0.280 N 
ATOM     20  H   UNL     1      -3.373   4.195   0.124  0.00  0.00    +0.155 HD
BRANCH  19  21
ATOM     21  C   UNL     1      -4.910   2.675  -0.069  0.00  0.00    +0.037 A 
ATOM     22  C   UNL     1      -5.848   3.437  -0.752  0.00  0.00    +0.027 A 
ATOM     23  C   UNL     1      -7.154   2.997  -0.858  0.00  0.00    +0.051 A 
ATOM     24  C   UNL     1      -7.533   1.799  -0.274  0.00  0.00    +0.166 A 
ATOM     25  C   UNL     1      -6.596   1.035   0.417  0.00  0.00    +0.168 A 
ATOM     26  C   UNL     1      -5.286   1.474   0.518  0.00  0.00    +0.072 A 
ATOM     27  O   UNL     1      -7.213  -0.086   0.893  0.00  0.00    -0.453 OA
ATOM     28  C   UNL     1      -8.623   0.198   0.838  0.00  0.00    +0.466 C 
ATOM     29  O   UNL     1      -8.737   1.156  -0.231  0.00  0.00    -0.453 OA
ENDBRANCH  19  21
ENDBRANCH   7  17
BRANCH   3  30
ATOM     30  C   UNL     1       0.976   6.199  -0.958  0.00  0.00    +0.412 C 
ATOM     31  F   UNL     1      -0.322   6.587  -0.608  0.00  0.00    -0.168 F 
ATOM     32  F   UNL     1       1.816   7.318  -0.945  0.00  0.00    -0.168 F 
ATOM     33  F   UNL     1       0.966   5.639  -2.240  0.00  0.00    -0.168 F 
ENDBRANCH   3  30
TORSDOF 4
