REMARK  Name = ZINC39325166
REMARK  6 active torsions:
REMARK  status: ('A' for Active; 'I' for Inactive)
REMARK    1  A    between atoms: C_3  and  C_6
REMARK    2  A    between atoms: C_6  and  N_7
REMARK    3  A    between atoms: N_7  and  C_8
REMARK    4  A    between atoms: N_7  and  S_25
REMARK    5  A    between atoms: C_8  and  C_9
REMARK    6  A    between atoms: S_25  and  C_28
REMARK                            x       y       z     vdW  Elec       q    Type
REMARK                         _______ _______ _______ _____ _____    ______ ____
ROOT
ATOM      1  N   UNL     1       4.056   0.549   1.259  0.00  0.00    -0.168 NA
ENDROOT
BRANCH   1   2
ATOM      2  S   UNL     1       4.565   1.996   1.885  0.00  0.00    +0.061 S 
ATOM      3  O   UNL     1       5.554   1.691   2.858  0.00  0.00    -0.153 OA
ATOM      4  O   UNL     1       4.823   2.849   0.778  0.00  0.00    -0.153 OA
BRANCH   2   5
ATOM      5  C   UNL     1       3.202   2.696   2.754  0.00  0.00    +0.109 A 
ATOM      6  C   UNL     1       2.313   3.522   2.092  0.00  0.00    +0.032 A 
ATOM      7  C   UNL     1       1.243   4.074   2.771  0.00  0.00    +0.051 A 
ATOM      8  C   UNL     1       1.057   3.799   4.118  0.00  0.00    +0.162 A 
ATOM      9  C   UNL     1       1.950   2.966   4.782  0.00  0.00    +0.164 A 
ATOM     10  C   UNL     1       3.019   2.413   4.094  0.00  0.00    +0.078 A 
ATOM     11  O   UNL     1       1.782   2.677   6.101  0.00  0.00    -0.485 OA
ATOM     12  C   UNL     1       0.913   3.539   6.844  0.00  0.00    +0.270 C 
ATOM     13  C   UNL     1      -0.365   3.756   6.022  0.00  0.00    +0.270 C 
ATOM     14  O   UNL     1       0.001   4.353   4.773  0.00  0.00    -0.485 OA
ENDBRANCH   2   5
ENDBRANCH   1   2
BRANCH   1  15
ATOM     15  C   UNL     1       3.599   0.473  -0.131  0.00  0.00    +0.183 C 
BRANCH  15  18
ATOM     16  C   UNL     1       0.017   1.331  -0.275  0.00  0.00    +0.041 A 
ATOM     17  C   UNL     1       1.381   1.704  -0.274  0.00  0.00    +0.046 A 
ATOM     18  C   UNL     1       2.095   0.568  -0.171  0.00  0.00    +0.120 A 
ATOM     19  O   UNL     1       1.241  -0.466  -0.109  0.00  0.00    -0.466 OA
ATOM     20  C   UNL     1      -0.021  -0.010  -0.172  0.00  0.00    +0.195 A 
ENDBRANCH  15  18
ENDBRANCH   1  15
BRANCH   1  21
ATOM     21  C   UNL     1       4.064  -0.654   2.094  0.00  0.00    +0.126 C 
BRANCH  21  22
ATOM     22  C   UNL     1       5.389  -1.395   1.910  0.00  0.00    +0.114 C 
ATOM     23  C   UNL     1       5.540  -1.718   0.437  0.00  0.00    -0.003 C 
ATOM     24  C   UNL     1       5.686  -3.027   0.096  0.00  0.00    -0.003 A 
ATOM     25  C   UNL     1       5.836  -3.424  -1.305  0.00  0.00    +0.059 A 
ATOM     26  C   UNL     1       5.981  -4.741  -1.614  0.00  0.00    +0.163 A 
ATOM     27  C   UNL     1       5.991  -5.728  -0.607  0.00  0.00    +0.164 A 
ATOM     28  C   UNL     1       5.851  -5.405   0.727  0.00  0.00    +0.073 A 
ATOM     29  C   UNL     1       5.695  -4.074   1.134  0.00  0.00    +0.044 A 
ATOM     30  N   UNL     1       5.561  -3.785   2.431  0.00  0.00    -0.284 N 
ATOM     31  C   UNL     1       5.412  -2.553   2.882  0.00  0.00    +0.225 C 
ATOM     32  O   UNL     1       5.295  -2.350   4.076  0.00  0.00    -0.275 OA
ATOM     33  O   UNL     1       6.147  -7.039  -0.936  0.00  0.00    -0.485 OA
ATOM     34  C   UNL     1       5.906  -7.397  -2.300  0.00  0.00    +0.270 C 
ATOM     35  C   UNL     1       6.637  -6.390  -3.199  0.00  0.00    +0.270 C 
ATOM     36  O   UNL     1       6.114  -5.086  -2.926  0.00  0.00    -0.485 OA
ATOM     37  H   UNL     1       5.574  -4.514   3.071  0.00  0.00    +0.155 HD
ENDBRANCH  21  22
ENDBRANCH   1  21
TORSDOF 6
