REMARK  Name = ZINC54845733
REMARK  5 active torsions:
REMARK  status: ('A' for Active; 'I' for Inactive)
REMARK    1  A    between atoms: C_1  and  C_2
REMARK    2  A    between atoms: N_4  and  C_5
REMARK    3  A    between atoms: C_8  and  N_11
REMARK    4  A    between atoms: C_12  and  C_14
REMARK    5  A    between atoms: C_17  and  C_20
REMARK                            x       y       z     vdW  Elec       q    Type
REMARK                         _______ _______ _______ _____ _____    ______ ____
ROOT
ATOM      1  N   UNL     1      -0.710  -6.244   0.177  0.00  0.00    -0.282 N 
ATOM      2  C   UNL     1      -1.810  -7.012   0.052  0.00  0.00    +0.261 C 
ATOM      3  O   UNL     1      -2.906  -6.497  -0.006  0.00  0.00    -0.271 OA
ATOM      4  H   UNL     1       0.160  -6.657   0.291  0.00  0.00    +0.155 HD
ENDROOT
BRANCH   1   8
ATOM      5  C   UNL     1      -1.047  -2.089   0.075  0.00  0.00    +0.033 A 
ATOM      6  C   UNL     1       0.068  -2.709  -0.474  0.00  0.00    +0.025 A 
ATOM      7  C   UNL     1       0.179  -4.084  -0.440  0.00  0.00    +0.025 A 
ATOM      8  C   UNL     1      -0.823  -4.848   0.143  0.00  0.00    +0.034 A 
ATOM      9  C   UNL     1      -1.938  -4.228   0.693  0.00  0.00    +0.025 A 
ATOM     10  C   UNL     1      -2.047  -2.853   0.664  0.00  0.00    +0.025 A 
BRANCH   5  14
ATOM     11  C   UNL     1      -1.766   1.468   1.081  0.00  0.00    +0.109 C 
ATOM     12  C   UNL     1      -1.737  -0.038   1.069  0.00  0.00    +0.214 C 
ATOM     13  O   UNL     1      -2.232  -0.662   1.984  0.00  0.00    -0.276 OA
ATOM     14  N   UNL     1      -1.161  -0.693   0.041  0.00  0.00    -0.286 N 
ATOM     15  H   UNL     1      -0.824  -0.198  -0.722  0.00  0.00    +0.155 HD
ENDBRANCH   5  14
ENDBRANCH   1   8
BRANCH   2  16
ATOM     16  C   UNL     1      -1.678  -8.512  -0.017  0.00  0.00    +0.295 C 
ATOM     17  C   UNL     1      -0.990  -8.948  -1.332  0.00  0.00    +0.117 C 
ATOM     18  C   UNL     1      -1.738 -10.217  -1.692  0.00  0.00    +0.098 C 
ATOM     19  N   UNL     1      -2.825 -10.259  -0.988  0.00  0.00    -0.088 NA
ATOM     20  O   UNL     1      -2.970  -9.139  -0.137  0.00  0.00    -0.380 OA
BRANCH  18  21
ATOM     21  C   UNL     1      -1.305 -11.223  -2.667  0.00  0.00    +0.038 A 
ATOM     22  C   UNL     1      -1.935 -12.396  -3.048  0.00  0.00    +0.019 A 
ATOM     23  C   UNL     1      -1.327 -13.187  -3.993  0.00  0.00    +0.028 A 
ATOM     24  C   UNL     1      -0.135 -12.796  -4.521  0.00  0.00    +0.079 A 
ATOM     25  S   UNL     1       0.166 -11.252  -3.678  0.00  0.00    -0.075 S 
ATOM     26 CL   UNL     1       0.841 -13.592  -5.716  0.00  0.00    -0.076 Cl
ENDBRANCH  18  21
ENDBRANCH   2  16
TORSDOF 4
