REMARK  Name = ZINC35894577
REMARK  4 active torsions:
REMARK  status: ('A' for Active; 'I' for Inactive)
REMARK    1  A    between atoms: C_1  and  N_2
REMARK    2  A    between atoms: C_9  and  N_33
REMARK    3  A    between atoms: C_13  and  C_18
REMARK    4  A    between atoms: N_23  and  C_26
REMARK                            x       y       z     vdW  Elec       q    Type
REMARK                         _______ _______ _______ _____ _____    ______ ____
ROOT
ATOM      1  C   UNL     1      -0.039   1.421  -0.033  0.00  0.00    -0.096 C 
ATOM      2  N   UNL     1      -0.022  -0.047  -0.022  0.00  0.00    +0.380 N 
ATOM      3  C   UNL     1      -1.402  -0.555   0.013  0.00  0.00    -0.060 C 
ATOM      4  C   UNL     1      -1.365  -2.067  -0.201  0.00  0.00    +0.087 C 
ATOM      5  N   UNL     1      -0.440  -2.698   0.745  0.00  0.00    -0.329 N 
ATOM      6  C   UNL     1      -0.743  -4.000   1.173  0.00  0.00    +0.033 A 
ATOM      7  C   UNL     1      -1.865  -4.632   0.645  0.00  0.00    +0.025 A 
ATOM      8  C   UNL     1      -2.185  -5.914   1.043  0.00  0.00    +0.034 A 
ATOM      9  C   UNL     1      -1.391  -6.571   1.965  0.00  0.00    +0.127 A 
ATOM     10  C   UNL     1      -0.278  -5.945   2.492  0.00  0.00    +0.038 A 
ATOM     11  C   UNL     1       0.048  -4.659   2.098  0.00  0.00    -0.023 A 
ATOM     12  C   UNL     1       1.259  -3.990   2.694  0.00  0.00    +0.051 C 
ATOM     13  C   UNL     1       1.077  -2.474   2.651  0.00  0.00    +0.098 C 
ATOM     14  C   UNL     1       0.768  -2.038   1.214  0.00  0.00    +0.069 C 
ATOM     15  C   UNL     1       0.687  -0.520   1.167  0.00  0.00    -0.056 C 
ATOM     16  H   UNL     1       0.444  -0.386  -0.850  0.00  0.00    -0.082 HD
ENDROOT
BRANCH  13  17
ATOM     17  C   UNL     1      -0.064  -2.079   3.552  0.00  0.00    +0.221 C 
ATOM     18  O   UNL     1      -1.174  -1.920   3.091  0.00  0.00    -0.275 OA
ATOM     19  N   UNL     1       0.150  -1.902   4.871  0.00  0.00    -0.298 N 
ATOM     20  C   UNL     1       1.508  -1.984   5.427  0.00  0.00    +0.126 C 
ATOM     21  C   UNL     1       1.806  -0.687   6.188  0.00  0.00    +0.124 C 
ATOM     22  N   UNL     1       0.685  -0.407   7.096  0.00  0.00    -0.327 N 
ATOM     23  C   UNL     1      -0.673  -0.324   6.540  0.00  0.00    +0.124 C 
ATOM     24  C   UNL     1      -0.971  -1.616   5.779  0.00  0.00    +0.126 C 
BRANCH  22  25
ATOM     25  C   UNL     1       0.906  -0.223   8.463  0.00  0.00    +0.031 A 
ATOM     26  C   UNL     1       2.203  -0.175   8.958  0.00  0.00    +0.023 A 
ATOM     27  C   UNL     1       2.419   0.007  10.309  0.00  0.00    +0.003 A 
ATOM     28  C   UNL     1       1.346   0.141  11.171  0.00  0.00    +0.020 A 
ATOM     29  C   UNL     1       0.052   0.093  10.682  0.00  0.00    +0.043 A 
ATOM     30  C   UNL     1      -0.170  -0.084   9.329  0.00  0.00    +0.043 A 
ATOM     31 CL   UNL     1      -1.292   0.260  11.768  0.00  0.00    -0.083 Cl
ENDBRANCH  22  25
ENDBRANCH  13  17
BRANCH   9  32
ATOM     32  N   UNL     1      -1.734  -7.947   2.389  0.00  0.00    +0.056 N 
ATOM     33  O   UNL     1      -2.708  -8.496   1.928  0.00  0.00    -0.126 OA
ATOM     34  O   UNL     1      -1.040  -8.522   3.195  0.00  0.00    -0.126 OA
ENDBRANCH   9  32
TORSDOF 3
