REMARK  Name = ZINC63140810
REMARK  5 active torsions:
REMARK  status: ('A' for Active; 'I' for Inactive)
REMARK    1  A    between atoms: C_1  and  O_2
REMARK    2  A    between atoms: O_2  and  C_3
REMARK    3  A    between atoms: C_6  and  C_9
REMARK    4  A    between atoms: C_9  and  N_10
REMARK    5  A    between atoms: C_30  and  C_32
REMARK                            x       y       z     vdW  Elec       q    Type
REMARK                         _______ _______ _______ _____ _____    ______ ____
ROOT
ATOM      1  N   UNL     1       3.923  -2.713  -4.080  0.00  0.00    -0.287 N 
ATOM      2  C   UNL     1       4.941  -1.697  -4.402  0.00  0.00    +0.204 C 
ATOM      3  C   UNL     1       5.851  -1.532  -3.203  0.00  0.00    +0.234 C 
ATOM      4  O   UNL     1       6.194  -0.436  -2.813  0.00  0.00    -0.274 OA
ATOM      5  N   UNL     1       6.269  -2.681  -2.577  0.00  0.00    -0.279 N 
ATOM      6  C   UNL     1       5.846  -3.917  -3.200  0.00  0.00    +0.167 C 
ATOM      7  C   UNL     1       4.366  -3.858  -3.481  0.00  0.00    +0.237 C 
ATOM      8  O   UNL     1       3.619  -4.770  -3.197  0.00  0.00    -0.274 OA
ATOM      9  C   UNL     1       6.257  -5.218  -2.559  0.00  0.00    +0.065 C 
ATOM     10  C   UNL     1       6.871  -4.953  -1.212  0.00  0.00    -0.034 C 
ATOM     11  C   UNL     1       6.759  -5.574  -0.046  0.00  0.00    -0.001 A 
ATOM     12  C   UNL     1       6.024  -6.785   0.353  0.00  0.00    +0.010 A 
ATOM     13  C   UNL     1       6.123  -7.144   1.661  0.00  0.00    +0.001 A 
ATOM     14  C   UNL     1       6.870  -6.427   2.600  0.00  0.00    +0.002 A 
ATOM     15  C   UNL     1       7.581  -5.306   2.321  0.00  0.00    +0.026 A 
ATOM     16  C   UNL     1       7.558  -4.832   0.976  0.00  0.00    +0.043 A 
ATOM     17  N   UNL     1       8.145  -3.807   0.437  0.00  0.00    -0.375 N 
ATOM     18  C   UNL     1       7.821  -3.777  -0.995  0.00  0.00    +0.131 C 
ATOM     19  C   UNL     1       7.037  -2.523  -1.350  0.00  0.00    +0.133 C 
ATOM     20  H   UNL     1       8.704  -3.166   0.903  0.00  0.00    +0.160 HD
ENDROOT
BRANCH  19  21
ATOM     21  C   UNL     1       7.973  -1.353  -1.504  0.00  0.00    -0.023 A 
ATOM     22  C   UNL     1       8.625  -1.142  -2.705  0.00  0.00    +0.005 A 
ATOM     23  C   UNL     1       9.484  -0.069  -2.847  0.00  0.00    +0.002 A 
ATOM     24  C   UNL     1       9.693   0.795  -1.788  0.00  0.00    +0.020 A 
ATOM     25  C   UNL     1       9.040   0.585  -0.586  0.00  0.00    +0.041 A 
ATOM     26  C   UNL     1       8.176  -0.486  -0.447  0.00  0.00    +0.025 A 
ATOM     27 CL   UNL     1       9.301   1.670   0.744  0.00  0.00    -0.084 Cl
ENDBRANCH  19  21
BRANCH   1  28
ATOM     28  C   UNL     1       2.505  -2.503  -4.381  0.00  0.00    +0.143 C 
BRANCH  28  32
ATOM     29  C   UNL     1       0.606  -0.607  -1.056  0.00  0.00    +0.120 A 
ATOM     30  C   UNL     1       1.173   0.161  -2.062  0.00  0.00    +0.046 A 
ATOM     31  C   UNL     1       1.786  -0.455  -3.136  0.00  0.00    +0.009 A 
ATOM     32  C   UNL     1       1.835  -1.835  -3.209  0.00  0.00    -0.030 A 
ATOM     33  C   UNL     1       1.270  -2.602  -2.207  0.00  0.00    +0.009 A 
ATOM     34  C   UNL     1       0.661  -1.992  -1.128  0.00  0.00    +0.046 A 
BRANCH  29  36
ATOM     35  C   UNL     1      -0.017   1.425   0.010  0.00  0.00    +0.277 C 
ATOM     36  O   UNL     1       0.002  -0.004   0.002  0.00  0.00    -0.495 OA
ENDBRANCH  29  36
ENDBRANCH  28  32
ENDBRANCH   1  28
TORSDOF 4
