REMARK  Name = ZINC36341260
REMARK  9 active torsions:
REMARK  status: ('A' for Active; 'I' for Inactive)
REMARK    1  A    between atoms: C_1  and  O_2
REMARK    2  A    between atoms: O_2  and  C_3
REMARK    3  A    between atoms: C_6  and  C_9
REMARK    4  A    between atoms: C_12  and  C_31
REMARK    5  A    between atoms: C_15  and  C_17
REMARK    6  A    between atoms: C_17  and  N_18
REMARK    7  A    between atoms: N_21  and  C_24
REMARK    8  A    between atoms: C_35  and  O_37
REMARK    9  A    between atoms: O_37  and  C_38
REMARK                            x       y       z     vdW  Elec       q    Type
REMARK                         _______ _______ _______ _____ _____    ______ ____
ROOT
ATOM      1  C   UNL     1       2.505  -2.503  -4.381  0.00  0.00    +0.137 C 
ATOM      2  C   UNL     1       3.907  -3.009  -3.990  0.00  0.00    +0.087 C 
ATOM      3  C   UNL     1       3.824  -4.505  -4.191  0.00  0.00    +0.069 C 
ATOM      4  N   UNL     1       2.646  -4.819  -4.607  0.00  0.00    -0.181 NA
ATOM      5  N   UNL     1       1.784  -3.730  -4.759  0.00  0.00    -0.187 N 
ATOM      6  C   UNL     1       0.505  -3.790  -5.179  0.00  0.00    +0.219 C 
ATOM      7  O   UNL     1      -0.151  -2.774  -5.271  0.00  0.00    -0.276 OA
ENDROOT
BRANCH   1  11
ATOM      8  C   UNL     1       0.606  -0.607  -1.056  0.00  0.00    +0.120 A 
ATOM      9  C   UNL     1       1.173   0.161  -2.062  0.00  0.00    +0.046 A 
ATOM     10  C   UNL     1       1.786  -0.455  -3.136  0.00  0.00    +0.009 A 
ATOM     11  C   UNL     1       1.835  -1.835  -3.209  0.00  0.00    -0.024 A 
ATOM     12  C   UNL     1       1.270  -2.602  -2.207  0.00  0.00    +0.009 A 
ATOM     13  C   UNL     1       0.661  -1.992  -1.128  0.00  0.00    +0.046 A 
BRANCH   8  15
ATOM     14  C   UNL     1      -0.017   1.425   0.010  0.00  0.00    +0.277 C 
ATOM     15  O   UNL     1       0.002  -0.004   0.002  0.00  0.00    -0.495 OA
ENDBRANCH   8  15
ENDBRANCH   1  11
BRANCH   3  16
ATOM     16  C   UNL     1       4.923  -5.459  -3.949  0.00  0.00    +0.001 A 
ATOM     17  C   UNL     1       6.161  -5.001  -3.491  0.00  0.00    +0.010 A 
ATOM     18  C   UNL     1       7.186  -5.897  -3.266  0.00  0.00    +0.004 A 
ATOM     19  C   UNL     1       6.992  -7.247  -3.492  0.00  0.00    +0.045 A 
ATOM     20  C   UNL     1       5.766  -7.712  -3.947  0.00  0.00    +0.121 A 
ATOM     21  C   UNL     1       4.728  -6.824  -4.172  0.00  0.00    +0.055 A 
BRANCH  20  22
ATOM     22  O   UNL     1       5.582  -9.040  -4.168  0.00  0.00    -0.495 OA
ATOM     23  C   UNL     1       6.694  -9.900  -3.910  0.00  0.00    +0.277 C 
ENDBRANCH  20  22
ENDBRANCH   3  16
BRANCH   6  24
ATOM     24  C   UNL     1      -0.109  -5.120  -5.534  0.00  0.00    +0.021 C 
BRANCH  24  25
ATOM     25  N   UNL     1      -1.501  -4.918  -5.960  0.00  0.00    +0.387 N 
ATOM     26  C   UNL     1      -1.522  -4.125  -7.196  0.00  0.00    -0.059 C 
ATOM     27  C   UNL     1      -2.974  -3.817  -7.578  0.00  0.00    +0.086 C 
ATOM     28  N   UNL     1      -3.715  -5.085  -7.657  0.00  0.00    -0.331 N 
ATOM     29  C   UNL     1      -3.616  -6.017  -6.523  0.00  0.00    +0.086 C 
ATOM     30  C   UNL     1      -2.134  -6.222  -6.191  0.00  0.00    -0.059 C 
ATOM     31  H   UNL     1      -2.004  -4.424  -5.238  0.00  0.00    -0.081 HD
BRANCH  28  32
ATOM     32  C   UNL     1      -4.492  -5.396  -8.778  0.00  0.00    +0.065 A 
ATOM     33  C   UNL     1      -3.928  -6.080  -9.846  0.00  0.00    +0.026 A 
ATOM     34  C   UNL     1      -4.698  -6.386 -10.952  0.00  0.00    +0.002 A 
ATOM     35  C   UNL     1      -6.028  -6.012 -10.996  0.00  0.00    +0.003 A 
ATOM     36  C   UNL     1      -6.594  -5.330  -9.934  0.00  0.00    +0.040 A 
ATOM     37  C   UNL     1      -5.831  -5.026  -8.822  0.00  0.00    +0.144 A 
ATOM     38  F   UNL     1      -6.386  -4.365  -7.782  0.00  0.00    -0.204 F 
ENDBRANCH  28  32
ENDBRANCH  24  25
ENDBRANCH   6  24
TORSDOF 7
