REMARK  Name = ZINC09193184
REMARK  6 active torsions:
REMARK  status: ('A' for Active; 'I' for Inactive)
REMARK    1  A    between atoms: C_1  and  C_2
REMARK    2  A    between atoms: C_4  and  C_16
REMARK    3  A    between atoms: C_5  and  C_15
REMARK    4  A    between atoms: N_6  and  C_7
REMARK    5  A    between atoms: C_12  and  C_13
REMARK    6  A    between atoms: C_26  and  C_28
REMARK                            x       y       z     vdW  Elec       q    Type
REMARK                         _______ _______ _______ _____ _____    ______ ____
ROOT
ATOM      1  C   UNL     1       0.129  -3.413  -1.427  0.00  0.00    +0.026 C 
ATOM      2  C   UNL     1       0.588  -3.322  -2.725  0.00  0.00    +0.081 C 
ATOM      3  C   UNL     1       1.180  -2.065  -3.261  0.00  0.00    +0.153 C 
ATOM      4  N   UNL     1       1.872  -1.230  -2.532  0.00  0.00    -0.283 NA
ATOM      5  N   UNL     1       0.920  -1.865  -4.634  0.00  0.00    -0.152 N 
ATOM      6  C   UNL     1       0.635  -2.977  -5.397  0.00  0.00    +0.181 C 
ATOM      7  N   UNL     1       0.478  -4.209  -4.982  0.00  0.00    -0.152 NA
ATOM      8  C   UNL     1       0.523  -4.472  -3.659  0.00  0.00    +0.273 C 
ATOM      9  O   UNL     1       0.507  -5.619  -3.242  0.00  0.00    -0.268 OA
ATOM     10  S   UNL     1       0.521  -2.294  -7.029  0.00  0.00    -0.033 S 
ATOM     11  C   UNL     1       0.756  -0.579  -6.584  0.00  0.00    +0.133 C 
ATOM     12  N   UNL     1       0.937  -0.651  -5.287  0.00  0.00    -0.164 NA
ATOM     13  H   UNL     1       2.207  -0.408  -2.923  0.00  0.00    +0.188 HD
ENDROOT
BRANCH   1  17
ATOM     14  C   UNL     1      -0.266   1.422  -0.016  0.00  0.00    +0.064 C 
ATOM     15  C   UNL     1      -0.171  -0.082  -0.017  0.00  0.00    +0.022 A 
ATOM     16  C   UNL     1      -0.052  -0.854  -1.110  0.00  0.00    +0.031 A 
ATOM     17  C   UNL     1       0.005  -2.243  -0.634  0.00  0.00    -0.003 A 
ATOM     18  C   UNL     1      -0.088  -2.176   0.746  0.00  0.00    +0.028 A 
ATOM     19  N   UNL     1      -0.186  -0.878   1.096  0.00  0.00    -0.317 N 
ATOM     20  C   UNL     1      -0.075  -3.349   1.692  0.00  0.00    +0.064 C 
BRANCH  19  21
ATOM     21  C   UNL     1      -0.292  -0.410   2.412  0.00  0.00    +0.051 A 
ATOM     22  C   UNL     1      -1.542  -0.258   2.998  0.00  0.00    +0.026 A 
ATOM     23  C   UNL     1      -1.645   0.203   4.296  0.00  0.00    +0.003 A 
ATOM     24  C   UNL     1      -0.504   0.514   5.013  0.00  0.00    +0.020 A 
ATOM     25  C   UNL     1       0.744   0.364   4.432  0.00  0.00    +0.046 A 
ATOM     26  C   UNL     1       0.852  -0.102   3.135  0.00  0.00    -0.008 A 
ATOM     27  C   UNL     1       2.211  -0.271   2.505  0.00  0.00    +0.047 C 
ATOM     28 CL   UNL     1       2.173   0.756   5.335  0.00  0.00    -0.083 Cl
ENDBRANCH  19  21
ENDBRANCH   1  17
BRANCH  11  29
ATOM     29  C   UNL     1       0.750   0.616  -7.455  0.00  0.00    +0.044 A 
ATOM     30  C   UNL     1       0.532   0.482  -8.827  0.00  0.00    +0.013 A 
ATOM     31  C   UNL     1       0.526   1.600  -9.634  0.00  0.00    +0.001 A 
ATOM     32  C   UNL     1       0.737   2.854  -9.088  0.00  0.00    +0.003 A 
ATOM     33  C   UNL     1       0.954   2.997  -7.731  0.00  0.00    +0.039 A 
ATOM     34  C   UNL     1       0.957   1.885  -6.908  0.00  0.00    +0.133 A 
ATOM     35  F   UNL     1       1.163   2.025  -5.581  0.00  0.00    -0.205 F 
ENDBRANCH  11  29
TORSDOF 3
