REMARK  Name = ZINC02955159
REMARK  7 active torsions:
REMARK  status: ('A' for Active; 'I' for Inactive)
REMARK    1  A    between atoms: C_1  and  C_2
REMARK    2  A    between atoms: C_7  and  N_8
REMARK    3  A    between atoms: C_10  and  C_22
REMARK    4  A    between atoms: C_13  and  C_20
REMARK    5  A    between atoms: C_16  and  C_19
REMARK    6  A    between atoms: C_20  and  O_21
REMARK    7  A    between atoms: N_24  and  C_25
REMARK                            x       y       z     vdW  Elec       q    Type
REMARK                         _______ _______ _______ _____ _____    ______ ____
ROOT
ATOM      1  N   UNL     1       0.220  -0.100   2.321  0.00  0.00    -0.325 N 
ATOM      2  C   UNL     1      -0.072  -0.687   3.461  0.00  0.00    +0.212 A 
ATOM      3  C   UNL     1      -0.457   0.106   4.646  0.00  0.00    +0.098 A 
ATOM      4  C   UNL     1      -1.259  -0.508   5.583  0.00  0.00    +0.030 A 
ATOM      5  C   UNL     1      -1.655  -1.894   5.322  0.00  0.00    +0.027 A 
ATOM      6  C   UNL     1      -2.665  -2.523   6.061  0.00  0.00    +0.007 A 
ATOM      7  C   UNL     1      -2.986  -3.829   5.757  0.00  0.00    +0.117 A 
ATOM      8  N   UNL     1      -2.362  -4.480   4.792  0.00  0.00    -0.256 NA
ATOM      9  C   UNL     1      -1.405  -3.933   4.070  0.00  0.00    +0.081 A 
ATOM     10  C   UNL     1      -1.012  -2.623   4.304  0.00  0.00    +0.159 A 
ATOM     11  O   UNL     1      -0.033  -2.040   3.579  0.00  0.00    -0.437 OA
ATOM     12  C   UNL     1      -0.735  -4.733   2.983  0.00  0.00    +0.069 C 
ATOM     13  H   UNL     1       0.117   0.860   2.230  0.00  0.00    +0.169 HD
ENDROOT
BRANCH   1  20
ATOM     14  C   UNL     1      -1.056   0.274  -0.191  0.00  0.00    +0.046 C 
ATOM     15  C   UNL     1       0.077  -0.701   0.006  0.00  0.00    -0.027 A 
ATOM     16  C   UNL     1       0.537  -1.450  -1.057  0.00  0.00    +0.005 A 
ATOM     17  C   UNL     1       1.577  -2.345  -0.878  0.00  0.00    +0.000 A 
ATOM     18  C   UNL     1       2.163  -2.496   0.367  0.00  0.00    +0.002 A 
ATOM     19  C   UNL     1       1.713  -1.753   1.439  0.00  0.00    +0.026 A 
ATOM     20  C   UNL     1       0.667  -0.844   1.264  0.00  0.00    +0.045 A 
ENDBRANCH   1  20
BRANCH   3  21
ATOM     21  C   UNL     1      -0.002   1.497   4.819  0.00  0.00    +0.253 C 
ATOM     22  O   UNL     1      -0.411   2.159   5.754  0.00  0.00    -0.270 OA
ATOM     23  N   UNL     1       0.866   2.036   3.941  0.00  0.00    -0.280 N 
ATOM     24  H   UNL     1       1.212   1.501   3.210  0.00  0.00    +0.155 HD
BRANCH  23  25
ATOM     25  C   UNL     1       1.269   3.368   4.083  0.00  0.00    +0.052 A 
ATOM     26  C   UNL     1       1.246   3.972   5.334  0.00  0.00    +0.025 A 
ATOM     27  C   UNL     1       1.644   5.287   5.471  0.00  0.00    +0.002 A 
ATOM     28  C   UNL     1       2.067   6.003   4.366  0.00  0.00    +0.002 A 
ATOM     29  C   UNL     1       2.091   5.406   3.119  0.00  0.00    +0.022 A 
ATOM     30  C   UNL     1       1.699   4.088   2.975  0.00  0.00    +0.062 A 
ATOM     31 CL   UNL     1       1.736   3.337   1.411  0.00  0.00    -0.082 Cl
ENDBRANCH  23  25
ENDBRANCH   3  21
BRANCH   6  32
ATOM     32  C   UNL     1      -3.384  -1.789   7.164  0.00  0.00    +0.193 C 
BRANCH  32  33
ATOM     33  O   UNL     1      -4.359  -2.652   7.753  0.00  0.00    -0.390 OA
ATOM     34  H   UNL     1      -4.861  -2.245   8.472  0.00  0.00    +0.210 HD
ENDBRANCH  32  33
ENDBRANCH   6  32
TORSDOF 5
