REMARK  Name = ZINC13815897
REMARK  5 active torsions:
REMARK  status: ('A' for Active; 'I' for Inactive)
REMARK    1  A    between atoms: C_1  and  C_2
REMARK    2  A    between atoms: N_24  and  C_27
REMARK    3  A    between atoms: C_29  and  N_35
REMARK    4  A    between atoms: C_32  and  O_33
REMARK    5  A    between atoms: O_33  and  C_34
REMARK                            x       y       z     vdW  Elec       q    Type
REMARK                         _______ _______ _______ _____ _____    ______ ____
ROOT
ATOM      1  C   UNL     1      -0.018   1.503   0.010  0.00  0.00    +0.046 C 
ATOM      2  C   UNL     1       0.002  -0.004   0.002  0.00  0.00    -0.028 A 
ATOM      3  C   UNL     1       0.006  -0.685  -1.198  0.00  0.00    +0.025 A 
ATOM      4  C   UNL     1       0.025  -2.068  -1.216  0.00  0.00    +0.042 A 
ATOM      5  C   UNL     1       0.040  -2.772  -0.023  0.00  0.00    +0.027 A 
ATOM      6  C   UNL     1       0.036  -2.096   1.176  0.00  0.00    +0.005 A 
ATOM      7  C   UNL     1       0.023  -0.705   1.205  0.00  0.00    +0.042 A 
ATOM      8  N   UNL     1       0.029  -0.249   2.526  0.00  0.00    -0.283 N 
ATOM      9  C   UNL     1       0.050  -1.263   3.413  0.00  0.00    +0.243 C 
ATOM     10  O   UNL     1       0.058  -1.168   4.622  0.00  0.00    -0.273 OA
ATOM     11  C   UNL     1       0.048  -2.538   2.612  0.00  0.00    +0.138 C 
ATOM     12  C   UNL     1       1.287  -3.382   2.930  0.00  0.00    +0.123 C 
ATOM     13  C   UNL     1       0.790  -4.444   3.948  0.00  0.00    +0.107 C 
ATOM     14  C   UNL     1      -0.704  -4.134   4.157  0.00  0.00    +0.071 C 
ATOM     15  N   UNL     1      -1.118  -3.382   2.927  0.00  0.00    -0.281 NA
ATOM     16  C   UNL     1      -1.288  -4.416   1.878  0.00  0.00    +0.086 C 
ATOM     17  C   UNL     1      -1.900  -5.631   2.603  0.00  0.00    +0.017 C 
ATOM     18  C   UNL     1      -1.506  -5.448   4.120  0.00  0.00    +0.021 C 
ATOM     19  C   UNL     1       0.946  -5.747   3.197  0.00  0.00    +0.232 C 
ATOM     20  O   UNL     1       0.669  -6.844   3.633  0.00  0.00    -0.274 OA
ATOM     21  N   UNL     1       1.437  -5.501   1.978  0.00  0.00    -0.206 N 
ATOM     22  C   UNL     1       1.676  -4.196   1.716  0.00  0.00    +0.233 C 
ATOM     23  O   UNL     1       2.123  -3.744   0.684  0.00  0.00    -0.274 OA
ATOM     24 CL   UNL     1       0.029  -2.920  -2.729  0.00  0.00    -0.084 Cl
ATOM     25  H   UNL     1       0.019   0.688   2.776  0.00  0.00    +0.155 HD
ENDROOT
BRANCH  21  26
ATOM     26  C   UNL     1       1.692  -6.517   1.043  0.00  0.00    +0.088 A 
ATOM     27  C   UNL     1       0.704  -6.903   0.149  0.00  0.00    +0.060 A 
ATOM     28  C   UNL     1       0.957  -7.903  -0.770  0.00  0.00    +0.128 A 
ATOM     29  C   UNL     1       2.193  -8.521  -0.802  0.00  0.00    +0.036 A 
ATOM     30  C   UNL     1       3.183  -8.142   0.085  0.00  0.00    +0.050 A 
ATOM     31  C   UNL     1       2.939  -7.135   1.006  0.00  0.00    +0.142 A 
BRANCH  28  32
ATOM     32  N   UNL     1      -0.099  -8.314  -1.723  0.00  0.00    +0.056 N 
ATOM     33  O   UNL     1      -1.181  -7.775  -1.696  0.00  0.00    -0.126 OA
ATOM     34  O   UNL     1       0.121  -9.189  -2.528  0.00  0.00    -0.126 OA
ENDBRANCH  28  32
BRANCH  31  35
ATOM     35  O   UNL     1       3.913  -6.757   1.876  0.00  0.00    -0.493 OA
ATOM     36  C   UNL     1       5.167  -7.436   1.781  0.00  0.00    +0.277 C 
ENDBRANCH  31  35
ENDBRANCH  21  26
TORSDOF 3
