REMARK  Name = ZINC21882713
REMARK  10 active torsions:
REMARK  status: ('A' for Active; 'I' for Inactive)
REMARK    1  A    between atoms: C_1  and  C_2
REMARK    2  A    between atoms: C_2  and  C_3
REMARK    3  A    between atoms: N_5  and  C_6
REMARK    4  A    between atoms: C_9  and  C_33
REMARK    5  A    between atoms: C_11  and  C_12
REMARK    6  A    between atoms: C_16  and  S_19
REMARK    7  A    between atoms: S_19  and  C_20
REMARK    8  A    between atoms: C_20  and  C_22
REMARK    9  A    between atoms: C_20  and  C_23
REMARK   10  A    between atoms: N_25  and  C_26
REMARK                            x       y       z     vdW  Elec       q    Type
REMARK                         _______ _______ _______ _____ _____    ______ ____
ROOT
ATOM      1  C   UNL     1      -2.583   0.461   0.843  0.00  0.00    +0.161 A 
ATOM      2  C   UNL     1      -2.661  -1.000   0.954  0.00  0.00    +0.300 A 
ATOM      3  O   UNL     1      -1.663  -1.674   1.142  0.00  0.00    -0.263 OA
ATOM      4  N   UNL     1      -3.883  -1.572   0.839  0.00  0.00    -0.180 NA
ATOM      5  C   UNL     1      -4.962  -0.765   0.629  0.00  0.00    +0.213 A 
ATOM      6  N   UNL     1      -4.831   0.545   0.537  0.00  0.00    -0.122 NA
ATOM      7  N   UNL     1      -3.699   1.141   0.644  0.00  0.00    -0.141 NA
ENDROOT
BRANCH   1  13
ATOM      8  C   UNL     1      -0.293   0.969  -0.016  0.00  0.00    +0.043 A 
ATOM      9  C   UNL     1       0.923   1.623   0.104  0.00  0.00    +0.024 A 
ATOM     10  C   UNL     1       1.155   2.462   1.177  0.00  0.00    +0.005 A 
ATOM     11  C   UNL     1       0.178   2.656   2.138  0.00  0.00    -0.050 A 
ATOM     12  C   UNL     1      -1.038   2.012   2.033  0.00  0.00    +0.015 A 
ATOM     13  C   UNL     1      -1.283   1.158   0.958  0.00  0.00    +0.029 A 
ATOM     14  C   UNL     1       0.443   3.574   3.303  0.00  0.00    +0.044 C 
BRANCH   8  17
ATOM     15  C   UNL     1       0.505  -0.459  -1.741  0.00  0.00    +0.217 C 
ATOM     16  O   UNL     1       1.633  -0.324  -1.317  0.00  0.00    -0.275 OA
ATOM     17  N   UNL     1      -0.530   0.120  -1.101  0.00  0.00    -0.285 N 
ATOM     18  H   UNL     1      -1.561  -0.074  -1.432  0.00  0.00    +0.155 HD
BRANCH  15  20
ATOM     19  C   UNL     1       1.591  -1.817  -3.509  0.00  0.00    +0.013 C 
ATOM     20  C   UNL     1       0.260  -1.275  -2.984  0.00  0.00    +0.093 C 
ENDBRANCH  15  20
ENDBRANCH   8  17
ENDBRANCH   1  13
BRANCH   5  21
ATOM     21  S   UNL     1      -6.563  -1.487   0.476  0.00  0.00    -0.072 S 
BRANCH  21  22
ATOM     22  C   UNL     1      -7.556   0.004   0.221  0.00  0.00    +0.137 C 
ATOM     23  C   UNL     1      -7.505   0.874   1.478  0.00  0.00    +0.029 C 
BRANCH  22  24
ATOM     24  C   UNL     1      -8.984  -0.386  -0.062  0.00  0.00    +0.230 C 
ATOM     25  O   UNL     1      -9.413  -1.447   0.338  0.00  0.00    -0.274 OA
ATOM     26  N   UNL     1      -9.784   0.445  -0.760  0.00  0.00    -0.283 N 
ATOM     27  H   UNL     1      -9.372   1.365  -1.199  0.00  0.00    +0.155 HD
BRANCH  26  28
ATOM     28  C   UNL     1     -11.139   0.136  -0.925  0.00  0.00    +0.052 A 
ATOM     29  C   UNL     1     -11.783  -0.685  -0.009  0.00  0.00    +0.025 A 
ATOM     30  C   UNL     1     -13.122  -0.983  -0.172  0.00  0.00    +0.002 A 
ATOM     31  C   UNL     1     -13.819  -0.474  -1.252  0.00  0.00    +0.002 A 
ATOM     32  C   UNL     1     -13.181   0.339  -2.170  0.00  0.00    +0.022 A 
ATOM     33  C   UNL     1     -11.842   0.646  -2.010  0.00  0.00    +0.062 A 
ATOM     34 CL   UNL     1     -11.041   1.667  -3.163  0.00  0.00    -0.082 Cl
ENDBRANCH  26  28
ENDBRANCH  22  24
ENDBRANCH  21  22
ENDBRANCH   5  21
TORSDOF 7
