REMARK  Name = ZINC45073415
REMARK  3 active torsions:
REMARK  status: ('A' for Active; 'I' for Inactive)
REMARK    1  A    between atoms: C_4  and  C_22
REMARK    2  A    between atoms: C_6  and  C_9
REMARK    3  A    between atoms: C_15  and  C_17
REMARK                            x       y       z     vdW  Elec       q    Type
REMARK                         _______ _______ _______ _____ _____    ______ ____
ROOT
ATOM      1  C   UNL     1      -0.011   0.002  -2.478  0.00  0.00    +0.220 C 
ATOM      2  O   UNL     1       0.562   0.711  -3.278  0.00  0.00    -0.275 OA
ATOM      3  N   UNL     1      -1.298  -0.340  -2.680  0.00  0.00    -0.298 N 
ATOM      4  C   UNL     1      -2.113  -1.187  -1.790  0.00  0.00    +0.108 C 
ATOM      5  C   UNL     1      -3.218  -1.775  -2.703  0.00  0.00    +0.021 C 
ATOM      6  C   UNL     1      -3.512  -0.579  -3.646  0.00  0.00    +0.024 C 
ATOM      7  C   UNL     1      -2.125   0.074  -3.823  0.00  0.00    +0.079 C 
ENDROOT
BRANCH   1  12
ATOM      8  C   UNL     1      -0.019   1.526   0.010  0.00  0.00    +0.001 C 
ATOM      9  C   UNL     1       1.417   2.055  -0.000  0.00  0.00    +0.001 C 
ATOM     10  C   UNL     1       2.133   1.562  -1.259  0.00  0.00    +0.015 C 
ATOM     11  C   UNL     1       2.154   0.032  -1.268  0.00  0.00    +0.114 C 
ATOM     12  C   UNL     1       0.718  -0.497  -1.257  0.00  0.00    +0.089 C 
ATOM     13  C   UNL     1       0.002  -0.004   0.002  0.00  0.00    +0.013 C 
BRANCH  11  14
ATOM     14  C   UNL     1       2.859  -0.454  -2.507  0.00  0.00    +0.360 C 
ATOM     15  O   UNL     1       4.020  -0.142  -2.710  0.00  0.00    -0.246 OA
ATOM     16  O   UNL     1       2.268  -1.159  -3.308  0.00  0.00    -0.246 OA
ENDBRANCH  11  14
ENDBRANCH   1  12
BRANCH   7  17
ATOM     17  C   UNL     1      -2.263   1.598  -3.841  0.00  0.00    +0.010 C 
ATOM     18  C   UNL     1      -0.887   2.264  -4.096  0.00  0.00    +0.005 C 
ATOM     19  C   UNL     1      -1.279   3.646  -4.674  0.00  0.00    +0.000 C 
ATOM     20  C   UNL     1      -2.503   3.351  -5.565  0.00  0.00    +0.000 C 
ATOM     21  C   UNL     1      -3.128   2.049  -5.035  0.00  0.00    +0.005 C 
ENDBRANCH   7  17
TORSDOF 3
