REMARK  Name = ZINC48743374
REMARK  11 active torsions:
REMARK  status: ('A' for Active; 'I' for Inactive)
REMARK    1  A    between atoms: C_1  and  C_2
REMARK    2  A    between atoms: C_5  and  N_12
REMARK    3  A    between atoms: C_7  and  N_8
REMARK    4  A    between atoms: C_9  and  C_11
REMARK    5  A    between atoms: C_13  and  C_15
REMARK    6  A    between atoms: N_17  and  C_18
REMARK    7  A    between atoms: C_18  and  C_19
REMARK    8  A    between atoms: C_19  and  C_21
REMARK    9  A    between atoms: C_19  and  N_26
REMARK   10  A    between atoms: N_26  and  C_27
REMARK   11  A    between atoms: N_26  and  C_28
REMARK                            x       y       z     vdW  Elec       q    Type
REMARK                         _______ _______ _______ _____ _____    ______ ____
ROOT
ATOM      1  N   UNL     1       0.009  -3.755  -0.233  0.00  0.00    -0.278 N 
ATOM      2  C   UNL     1      -0.082  -4.248  -1.485  0.00  0.00    +0.303 C 
ATOM      3  O   UNL     1      -0.181  -3.491  -2.429  0.00  0.00    -0.265 OA
ATOM      4  H   UNL     1       0.023  -4.359   0.526  0.00  0.00    +0.155 HD
ENDROOT
BRANCH   1   9
ATOM      5  C   UNL     1       0.301   1.853   0.585  0.00  0.00    +0.045 C 
ATOM      6  C   UNL     1       0.225   0.364   0.369  0.00  0.00    -0.029 A 
ATOM      7  C   UNL     1      -0.556  -0.146  -0.651  0.00  0.00    +0.007 A 
ATOM      8  C   UNL     1      -0.629  -1.511  -0.852  0.00  0.00    +0.024 A 
ATOM      9  C   UNL     1       0.084  -2.375  -0.029  0.00  0.00    +0.036 A 
ATOM     10  C   UNL     1       0.869  -1.866   0.995  0.00  0.00    +0.047 A 
ATOM     11  C   UNL     1       0.944  -0.494   1.191  0.00  0.00    +0.038 A 
BRANCH  11  12
ATOM     12  N   UNL     1       1.739   0.024   2.220  0.00  0.00    -0.285 N 
ATOM     13  C   UNL     1       1.966  -0.707   3.329  0.00  0.00    +0.214 C 
ATOM     14  O   UNL     1       1.551  -1.845   3.401  0.00  0.00    -0.276 OA
ATOM     15  C   UNL     1       2.735  -0.111   4.480  0.00  0.00    +0.109 C 
ATOM     16  H   UNL     1       2.126   0.909   2.134  0.00  0.00    +0.155 HD
ENDBRANCH  11  12
ENDBRANCH   1   9
BRANCH   2  17
ATOM     17  C   UNL     1      -0.063  -5.724  -1.709  0.00  0.00    +0.299 C 
ATOM     18  O   UNL     1       0.036  -6.481  -0.765  0.00  0.00    -0.265 OA
ATOM     19  N   UNL     1      -0.154  -6.217  -2.961  0.00  0.00    -0.309 N 
ATOM     20  H   UNL     1      -0.233  -5.612  -3.715  0.00  0.00    +0.149 HD
BRANCH  19  21
ATOM     21  C   UNL     1      -0.135  -7.665  -3.181  0.00  0.00    +0.094 C 
BRANCH  21  22
ATOM     22  C   UNL     1      -0.135  -7.952  -4.684  0.00  0.00    -0.014 C 
BRANCH  22  23
ATOM     23  C   UNL     1      -1.421  -7.455  -5.291  0.00  0.00    -0.022 A 
ATOM     24  C   UNL     1      -1.654  -6.311  -5.980  0.00  0.00    +0.009 A 
ATOM     25  C   UNL     1      -2.929  -6.059  -6.449  0.00  0.00    +0.008 A 
ATOM     26  C   UNL     1      -3.909  -6.963  -6.207  0.00  0.00    +0.045 A 
ATOM     27  S   UNL     1      -3.033  -8.223  -5.295  0.00  0.00    -0.103 S 
ENDBRANCH  22  23
BRANCH  22  28
ATOM     28  N   UNL     1      -0.016  -9.399  -4.906  0.00  0.00    +0.382 N 
ATOM     29  C   UNL     1       0.055  -9.669  -6.348  0.00  0.00    -0.096 C 
ATOM     30  C   UNL     1       1.203  -9.896  -4.254  0.00  0.00    -0.096 C 
ATOM     31  H   UNL     1      -0.821  -9.867  -4.516  0.00  0.00    -0.082 HD
ENDBRANCH  22  28
ENDBRANCH  21  22
ENDBRANCH  19  21
ENDBRANCH   2  17
TORSDOF 7
