REMARK  Name = ZINC00783737
REMARK  3 active torsions:
REMARK  status: ('A' for Active; 'I' for Inactive)
REMARK    1  A    between atoms: C_1  and  S_2
REMARK    2  A    between atoms: S_2  and  C_5
REMARK    3  A    between atoms: N_17  and  C_18
REMARK                            x       y       z     vdW  Elec       q    Type
REMARK                         _______ _______ _______ _____ _____    ______ ____
ROOT
ATOM      1  C   UNL     1       0.846  -0.441  -1.482  0.00  0.00    +0.089 A 
ATOM      2  C   UNL     1       0.138  -0.628  -2.660  0.00  0.00    +0.029 A 
ATOM      3  C   UNL     1       0.769  -0.966  -3.829  0.00  0.00    +0.031 A 
ATOM      4  C   UNL     1       2.173  -1.136  -3.869  0.00  0.00    +0.080 A 
ATOM      5  C   UNL     1       2.860  -0.938  -2.650  0.00  0.00    +0.043 A 
ATOM      6  C   UNL     1       2.220  -0.594  -1.486  0.00  0.00    +0.044 A 
ATOM      7  S   UNL     1       4.549  -1.236  -3.115  0.00  0.00    -0.052 S 
ATOM      8  C   UNL     1       4.246  -1.594  -4.840  0.00  0.00    +0.167 A 
ATOM      9  N   UNL     1       2.943  -1.465  -4.928  0.00  0.00    -0.225 NA
ATOM     10  N   UNL     1       5.156  -1.923  -5.831  0.00  0.00    -0.248 N 
ATOM     11  C   UNL     1       4.728  -2.160  -7.087  0.00  0.00    +0.310 C 
ATOM     12  O   UNL     1       3.543  -2.084  -7.350  0.00  0.00    -0.252 OA
ATOM     13  N   UNL     1       5.612  -2.481  -8.052  0.00  0.00    -0.269 N 
ATOM     14  H   UNL     1       6.101  -1.984  -5.622  0.00  0.00    +0.158 HD
ATOM     15  H   UNL     1       6.563  -2.476  -7.859  0.00  0.00    +0.156 HD
ENDROOT
BRANCH  13  16
ATOM     16  C   UNL     1       5.160  -2.820  -9.332  0.00  0.00    +0.035 A 
ATOM     17  C   UNL     1       5.826  -3.789 -10.071  0.00  0.00    +0.025 A 
ATOM     18  C   UNL     1       5.377  -4.123 -11.334  0.00  0.00    +0.022 A 
ATOM     19  C   UNL     1       4.265  -3.493 -11.863  0.00  0.00    +0.041 A 
ATOM     20  C   UNL     1       3.599  -2.526 -11.129  0.00  0.00    +0.022 A 
ATOM     21  C   UNL     1       4.041  -2.193  -9.863  0.00  0.00    +0.025 A 
ATOM     22 CL   UNL     1       3.703  -3.914 -13.451  0.00  0.00    -0.084 Cl
ENDBRANCH  13  16
BRANCH   1  24
ATOM     23  C   UNL     1      -0.033   1.806   0.007  0.00  0.00    +0.200 C 
ATOM     24  S   UNL     1       0.003  -0.008   0.004  0.00  0.00    -0.006 S 
ATOM     25  O   UNL     1       0.841  -0.482   1.048  0.00  0.00    -0.170 OA
ATOM     26  O   UNL     1      -1.311  -0.523  -0.162  0.00  0.00    -0.170 OA
ENDBRANCH   1  24
TORSDOF 2
