REMARK  Name = ZINC14464825
REMARK  4 active torsions:
REMARK  status: ('A' for Active; 'I' for Inactive)
REMARK    1  A    between atoms: C_1  and  C_2
REMARK    2  A    between atoms: N_4  and  C_5
REMARK    3  A    between atoms: N_4  and  C_6
REMARK    4  A    between atoms: C_19  and  C_22
REMARK                            x       y       z     vdW  Elec       q    Type
REMARK                         _______ _______ _______ _____ _____    ______ ____
ROOT
ATOM      1  C   UNL     1      -0.014   1.389   0.007  0.00  0.00    +0.036 A 
ATOM      2  C   UNL     1       0.011   0.001   0.041  0.00  0.00    +0.025 A 
ATOM      3  C   UNL     1       1.221  -0.661   0.020  0.00  0.00    +0.025 A 
ATOM      4  C   UNL     1       2.408   0.061  -0.034  0.00  0.00    +0.031 A 
ATOM      5  C   UNL     1       2.392   1.444  -0.062  0.00  0.00    -0.018 A 
ATOM      6  C   UNL     1       1.171   2.105  -0.044  0.00  0.00    +0.029 A 
ATOM      7  C   UNL     1       3.645   2.276  -0.110  0.00  0.00    +0.049 C 
ATOM      8  C   UNL     1       3.652   3.161   1.128  0.00  0.00    -0.023 C 
ATOM      9  C   UNL     1       4.375   2.618   2.075  0.00  0.00    -0.030 C 
ATOM     10  C   UNL     1       4.957   1.296   1.606  0.00  0.00    +0.033 C 
ATOM     11  C   UNL     1       4.919   1.430   0.065  0.00  0.00    +0.029 C 
ATOM     12  C   UNL     1       4.799   0.070  -0.596  0.00  0.00    +0.105 C 
ATOM     13  N   UNL     1       3.627  -0.633  -0.062  0.00  0.00    -0.336 N 
ATOM     14  H   UNL     1       3.692  -1.545   0.261  0.00  0.00    +0.147 HD
ENDROOT
BRANCH  12  15
ATOM     15  C   UNL     1       4.643   0.247  -2.084  0.00  0.00    -0.027 A 
ATOM     16  C   UNL     1       3.409   0.570  -2.616  0.00  0.00    +0.007 A 
ATOM     17  C   UNL     1       3.266   0.738  -3.981  0.00  0.00    +0.020 A 
ATOM     18  C   UNL     1       4.357   0.572  -4.816  0.00  0.00    +0.041 A 
ATOM     19  C   UNL     1       5.591   0.243  -4.283  0.00  0.00    +0.020 A 
ATOM     20  C   UNL     1       5.733   0.081  -2.918  0.00  0.00    +0.007 A 
ATOM     21 CL   UNL     1       4.177   0.776  -6.530  0.00  0.00    -0.084 Cl
ENDBRANCH  12  15
BRANCH   1  25
ATOM     22  C   UNL     1      -3.337   2.792  -1.075  0.00  0.00    +0.109 C 
ATOM     23  C   UNL     1      -2.074   1.971  -1.035  0.00  0.00    +0.216 C 
ATOM     24  O   UNL     1      -1.808   1.222  -1.952  0.00  0.00    -0.276 OA
ATOM     25  N   UNL     1      -1.241   2.067   0.019  0.00  0.00    -0.275 N 
ATOM     26  C   UNL     1      -1.616   2.881   1.178  0.00  0.00    +0.138 C 
ENDBRANCH   1  25
TORSDOF 2
