REMARK  Name = ZINC13254023
REMARK  6 active torsions:
REMARK  status: ('A' for Active; 'I' for Inactive)
REMARK    1  A    between atoms: C_5  and  N_7
REMARK    2  A    between atoms: N_7  and  S_8
REMARK    3  A    between atoms: S_8  and  C_11
REMARK    4  A    between atoms: C_15  and  N_17
REMARK    5  A    between atoms: C_18  and  C_20
REMARK    6  A    between atoms: C_26  and  C_28
REMARK                            x       y       z     vdW  Elec       q    Type
REMARK                         _______ _______ _______ _____ _____    ______ ____
ROOT
ATOM      1  C   UNL     1       0.949  -4.299   0.252  0.00  0.00    +0.112 A 
ATOM      2  C   UNL     1       0.546  -4.937  -0.907  0.00  0.00    +0.029 A 
ATOM      3  C   UNL     1       0.365  -6.308  -0.918  0.00  0.00    +0.004 A 
ATOM      4  C   UNL     1       0.585  -7.044   0.230  0.00  0.00    +0.023 A 
ATOM      5  C   UNL     1       0.989  -6.406   1.395  0.00  0.00    +0.035 A 
ATOM      6  C   UNL     1       1.176  -5.030   1.401  0.00  0.00    +0.052 A 
ENDROOT
BRANCH   5   7
ATOM      7  N   UNL     1       1.213  -7.149   2.560  0.00  0.00    -0.285 N 
ATOM      8  C   UNL     1       1.648  -8.422   2.474  0.00  0.00    +0.221 C 
ATOM      9  O   UNL     1       1.937  -8.893   1.394  0.00  0.00    -0.275 OA
ATOM     10  H   UNL     1       1.054  -6.749   3.429  0.00  0.00    +0.155 HD
BRANCH   8  11
ATOM     11  C   UNL     1       1.776  -9.260   3.720  0.00  0.00    +0.093 C 
ATOM     12  C   UNL     1       0.785 -10.425   3.661  0.00  0.00    +0.040 C 
ATOM     13  C   UNL     1       1.078 -11.409   4.754  0.00  0.00    -0.030 C 
ATOM     14  C   UNL     1       2.196 -11.458   5.406  0.00  0.00    -0.030 C 
ATOM     15  C   UNL     1       3.350 -10.530   5.165  0.00  0.00    +0.042 C 
ATOM     16  C   UNL     1       3.197  -9.831   3.814  0.00  0.00    +0.118 C 
BRANCH  16  17
ATOM     17  C   UNL     1       4.201  -8.713   3.700  0.00  0.00    +0.360 C 
ATOM     18  O   UNL     1       5.223  -8.742   4.364  0.00  0.00    -0.246 OA
ATOM     19  O   UNL     1       3.990  -7.779   2.945  0.00  0.00    -0.246 OA
ENDBRANCH  16  17
ENDBRANCH   8  11
ENDBRANCH   5   7
BRANCH   1  20
ATOM     20  S   UNL     1       1.180  -2.552   0.260  0.00  0.00    +0.092 S 
ATOM     21  O   UNL     1       1.037  -2.130   1.610  0.00  0.00    -0.148 OA
ATOM     22  O   UNL     1       0.377  -2.032  -0.790  0.00  0.00    -0.148 OA
BRANCH  20  23
ATOM     23  N   UNL     1       2.755  -2.264  -0.161  0.00  0.00    -0.095 NA
BRANCH  23  28
ATOM     24  C   UNL     1       2.853   1.409  -0.038  0.00  0.00    +0.002 A 
ATOM     25  C   UNL     1       4.168   1.649  -0.391  0.00  0.00    +0.003 A 
ATOM     26  C   UNL     1       5.017   0.593  -0.667  0.00  0.00    +0.040 A 
ATOM     27  C   UNL     1       4.552  -0.708  -0.592  0.00  0.00    +0.148 A 
ATOM     28  C   UNL     1       3.230  -0.951  -0.238  0.00  0.00    +0.109 A 
ATOM     29  C   UNL     1       2.381   0.113   0.039  0.00  0.00    +0.029 A 
ATOM     30  F   UNL     1       5.381  -1.739  -0.863  0.00  0.00    -0.203 F 
ENDBRANCH  23  28
ENDBRANCH  20  23
ENDBRANCH   1  20
TORSDOF 6
