REMARK  Name = ZINC63040666
REMARK  7 active torsions:
REMARK  status: ('A' for Active; 'I' for Inactive)
REMARK    1  A    between atoms: C_1  and  C_2
REMARK    2  A    between atoms: C_4  and  C_11
REMARK    3  A    between atoms: C_11  and  C_13
REMARK    4  A    between atoms: C_11  and  C_17
REMARK    5  A    between atoms: C_13  and  C_15
REMARK    6  A    between atoms: C_17  and  C_18
REMARK    7  A    between atoms: C_17  and  C_19
REMARK                            x       y       z     vdW  Elec       q    Type
REMARK                         _______ _______ _______ _____ _____    ______ ____
ROOT
ATOM      1  C   UNL     1      -0.938   2.128  -0.668  0.00  0.00    +0.066 C 
ATOM      2  C   UNL     1      -0.741   0.673  -0.331  0.00  0.00    +0.044 A 
ATOM      3  C   UNL     1      -1.792  -0.234  -0.513  0.00  0.00    +0.047 A 
ATOM      4  C   UNL     1      -1.601  -1.542  -0.206  0.00  0.00    +0.053 A 
ATOM      5  N   UNL     1      -0.390  -1.937   0.272  0.00  0.00    -0.201 N 
ATOM      6  C   UNL     1       0.615  -1.027   0.439  0.00  0.00    +0.253 A 
ATOM      7  N   UNL     1       0.419   0.260   0.128  0.00  0.00    -0.216 NA
ATOM      8  N   UNL     1       1.667  -1.685   0.912  0.00  0.00    -0.197 NA
ATOM      9  C   UNL     1       1.367  -2.969   1.051  0.00  0.00    +0.247 A 
ATOM     10  N   UNL     1       0.127  -3.175   0.675  0.00  0.00    -0.152 NA
ENDROOT
BRANCH   4  11
ATOM     11  C   UNL     1      -2.713  -2.542  -0.391  0.00  0.00    +0.058 C 
BRANCH  11  12
ATOM     12  C   UNL     1      -3.083  -3.150   0.963  0.00  0.00    +0.087 C 
ATOM     13  C   UNL     1      -3.353  -2.029   1.969  0.00  0.00    +0.025 C 
ATOM     14 CL   UNL     1      -4.562  -4.165   0.783  0.00  0.00    -0.121 Cl
ENDBRANCH  11  12
BRANCH  11  15
ATOM     15  C   UNL     1      -2.249  -3.651  -1.338  0.00  0.00    -0.007 C 
ATOM     16  C   UNL     1      -3.417  -4.597  -1.626  0.00  0.00    +0.008 C 
ATOM     17  C   UNL     1      -1.761  -3.031  -2.649  0.00  0.00    +0.008 C 
ENDBRANCH  11  15
ENDBRANCH   4  11
TORSDOF 3
