REMARK  Name = ZINC08938018
REMARK  6 active torsions:
REMARK  status: ('A' for Active; 'I' for Inactive)
REMARK    1  A    between atoms: C_6  and  S_7
REMARK    2  A    between atoms: S_7  and  C_8
REMARK    3  A    between atoms: C_8  and  C_9
REMARK    4  A    between atoms: N_21  and  C_22
REMARK    5  A    between atoms: C_27  and  C_28
REMARK    6  A    between atoms: C_27  and  N_58
REMARK                            x       y       z     vdW  Elec       q    Type
REMARK                         _______ _______ _______ _____ _____    ______ ____
ROOT
ATOM      1  C   UNL     1       3.918  -4.211  -0.109  0.00  0.00    +0.142 A 
ATOM      2  N   UNL     1       3.796  -4.854   1.039  0.00  0.00    -0.216 NA
ATOM      3  C   UNL     1       3.678  -6.171   1.100  0.00  0.00    +0.131 A 
ATOM      4  C   UNL     1       3.694  -6.921  -0.109  0.00  0.00    +0.051 A 
ATOM      5  C   UNL     1       3.584  -8.378  -0.283  0.00  0.00    -0.025 A 
ATOM      6  C   UNL     1       3.624  -8.844  -1.542  0.00  0.00    -0.004 A 
ATOM      7  S   UNL     1       3.812  -7.400  -2.563  0.00  0.00    -0.073 S 
ATOM      8  C   UNL     1       3.832  -6.169  -1.289  0.00  0.00    +0.114 A 
ATOM      9  N   UNL     1       3.939  -4.854  -1.260  0.00  0.00    -0.224 NA
ATOM     10  C   UNL     1       3.499 -10.343  -1.598  0.00  0.00    +0.043 C 
ATOM     11  C   UNL     1       2.940 -10.737  -0.213  0.00  0.00    +0.010 C 
ATOM     12  C   UNL     1       3.430  -9.570   0.666  0.00  0.00    +0.037 C 
ATOM     13  N   UNL     1       3.546  -6.809   2.320  0.00  0.00    -0.326 N 
ATOM     14  H   UNL     1       3.464  -7.775   2.356  0.00  0.00    +0.148 HD
ENDROOT
BRANCH  13  15
ATOM     15  C   UNL     1       3.531  -6.026   3.558  0.00  0.00    +0.068 C 
ATOM     16  C   UNL     1       4.968  -5.768   4.018  0.00  0.00    +0.003 C 
ATOM     17  C   UNL     1       4.945  -5.004   5.343  0.00  0.00    -0.076 C 
ATOM     18  C   UNL     1       2.826  -6.009   5.953  0.00  0.00    -0.076 C 
ATOM     19  C   UNL     1       2.786  -6.804   4.646  0.00  0.00    +0.003 C 
ATOM     20  N   UNL     1       4.236  -5.816   6.354  0.00  0.00    +0.385 N 
ATOM     21  H   UNL     1       4.691  -6.734   6.423  0.00  0.00    -0.081 HD
BRANCH  20  22
ATOM     22  C   UNL     1       4.299  -5.150   7.672  0.00  0.00    +0.018 C 
BRANCH  22  23
ATOM     23  C   UNL     1       3.779  -6.099   8.721  0.00  0.00    +0.194 C 
ATOM     24  O   UNL     1       3.490  -7.238   8.419  0.00  0.00    -0.278 OA
ATOM     25  N   UNL     1       3.634  -5.682   9.994  0.00  0.00    -0.331 N 
ATOM     26  H   UNL     1       3.865  -4.772  10.236  0.00  0.00    +0.145 HD
ATOM     27  H   UNL     1       3.300  -6.293  10.669  0.00  0.00    +0.145 HD
ENDBRANCH  22  23
ENDBRANCH  20  22
ENDBRANCH  13  15
BRANCH   1  28
ATOM     28  C   UNL     1       4.041  -2.709  -0.101  0.00  0.00    +0.150 C 
BRANCH  28  29
ATOM     29  S   UNL     1       2.390  -1.966  -0.209  0.00  0.00    -0.117 S 
BRANCH  29  35
ATOM     30  C   UNL     1       1.642   0.666  -0.258  0.00  0.00    +0.016 A 
ATOM     31  C   UNL     1       1.889   2.024  -0.243  0.00  0.00    +0.021 A 
ATOM     32  C   UNL     1       3.189   2.492  -0.160  0.00  0.00    +0.041 A 
ATOM     33  C   UNL     1       4.245   1.600  -0.091  0.00  0.00    +0.021 A 
ATOM     34  C   UNL     1       4.005   0.241  -0.106  0.00  0.00    +0.016 A 
ATOM     35  C   UNL     1       2.701  -0.232  -0.189  0.00  0.00    +0.008 A 
ATOM     36 CL   UNL     1       3.495   4.201  -0.141  0.00  0.00    -0.084 Cl
ENDBRANCH  29  35
ENDBRANCH  28  29
ENDBRANCH   1  28
TORSDOF 6
