REMARK  Name = ZINC13231924
REMARK  9 active torsions:
REMARK  status: ('A' for Active; 'I' for Inactive)
REMARK    1  A    between atoms: C_1  and  C_2
REMARK    2  A    between atoms: C_5  and  C_32
REMARK    3  A    between atoms: C_7  and  N_8
REMARK    4  A    between atoms: C_9  and  C_11
REMARK    5  A    between atoms: C_11  and  S_12
REMARK    6  A    between atoms: S_12  and  C_13
REMARK    7  A    between atoms: C_17  and  C_30
REMARK    8  A    between atoms: N_23  and  C_24
REMARK    9  A    between atoms: C_24  and  C_25
REMARK                            x       y       z     vdW  Elec       q    Type
REMARK                         _______ _______ _______ _____ _____    ______ ____
ROOT
ATOM      1  C   UNL     1       4.965   8.374  -0.457  0.00  0.00    +0.173 A 
ATOM      2  N   UNL     1       5.958   7.520  -0.444  0.00  0.00    -0.223 NA
ATOM      3  C   UNL     1       7.245   7.928  -0.545  0.00  0.00    +0.080 A 
ATOM      4  C   UNL     1       8.303   7.014  -0.536  0.00  0.00    +0.043 A 
ATOM      5  C   UNL     1       9.608   7.480  -0.637  0.00  0.00    +0.065 A 
ATOM      6  C   UNL     1       9.866   8.852  -0.748  0.00  0.00    +0.016 A 
ATOM      7  C   UNL     1       8.841   9.754  -0.758  0.00  0.00    +0.016 A 
ATOM      8  C   UNL     1       7.523   9.308  -0.657  0.00  0.00    +0.065 A 
ATOM      9  C   UNL     1       6.388  10.245  -0.664  0.00  0.00    +0.263 A 
ATOM     10  O   UNL     1       6.562  11.446  -0.758  0.00  0.00    -0.267 OA
ATOM     11  N   UNL     1       5.144   9.724  -0.562  0.00  0.00    -0.280 N 
ENDROOT
BRANCH   5  12
ATOM     12  C   UNL     1      10.733   6.519  -0.629  0.00  0.00    +0.387 C 
ATOM     13  O   UNL     1      10.514   5.328  -0.533  0.00  0.00    -0.241 OA
ATOM     14  O   UNL     1      12.000   6.965  -0.727  0.00  0.00    -0.241 OA
ENDBRANCH   5  12
BRANCH   1  15
ATOM     15  S   UNL     1       3.321   7.753  -0.326  0.00  0.00    -0.078 S 
BRANCH  15  16
ATOM     16  C   UNL     1       3.663   5.979  -0.218  0.00  0.00    +0.173 C 
BRANCH  16  18
ATOM     17  N   UNL     1       2.373   3.879  -0.001  0.00  0.00    -0.285 N 
ATOM     18  C   UNL     1       2.364   5.224  -0.096  0.00  0.00    +0.227 C 
ATOM     19  O   UNL     1       1.311   5.826  -0.083  0.00  0.00    -0.275 OA
ATOM     20  H   UNL     1       3.215   3.404   0.070  0.00  0.00    +0.155 HD
BRANCH  17  27
ATOM     21  C   UNL     1       2.323   1.320   1.234  0.00  0.00    +0.045 C 
ATOM     22  C   UNL     1       1.098   1.915   0.589  0.00  0.00    -0.029 A 
ATOM     23  C   UNL     1      -0.091   1.209   0.589  0.00  0.00    +0.006 A 
ATOM     24  C   UNL     1      -1.216   1.744  -0.004  0.00  0.00    +0.015 A 
ATOM     25  C   UNL     1      -1.159   3.007  -0.598  0.00  0.00    +0.065 A 
ATOM     26  C   UNL     1       0.041   3.719  -0.598  0.00  0.00    +0.038 A 
ATOM     27  C   UNL     1       1.167   3.170  -0.004  0.00  0.00    +0.037 A 
BRANCH  25  28
ATOM     28  C   UNL     1      -2.363   3.585  -1.229  0.00  0.00    +0.387 C 
ATOM     29  O   UNL     1      -2.310   4.682  -1.748  0.00  0.00    -0.241 OA
ATOM     30  O   UNL     1      -3.521   2.896  -1.228  0.00  0.00    -0.241 OA
ENDBRANCH  25  28
ENDBRANCH  17  27
ENDBRANCH  16  18
ENDBRANCH  15  16
ENDBRANCH   1  15
BRANCH  11  31
ATOM     31  C   UNL     1       3.980  10.614  -0.564  0.00  0.00    +0.201 C 
BRANCH  31  32
ATOM     32  C   UNL     1       3.656  11.019   0.851  0.00  0.00    +0.125 A 
ATOM     33  C   UNL     1       4.151  12.091   1.495  0.00  0.00    +0.046 A 
ATOM     34  C   UNL     1       3.581  12.091   2.789  0.00  0.00    +0.041 A 
ATOM     35  C   UNL     1       2.779  11.013   2.861  0.00  0.00    +0.195 A 
ATOM     36  O   UNL     1       2.828  10.368   1.684  0.00  0.00    -0.466 OA
ENDBRANCH  31  32
ENDBRANCH  11  31
TORSDOF 8
