REMARK  Name = ZINC64622833
REMARK  7 active torsions:
REMARK  status: ('A' for Active; 'I' for Inactive)
REMARK    1  A    between atoms: C_1  and  C_2
REMARK    2  A    between atoms: C_2  and  O_3
REMARK    3  A    between atoms: O_3  and  C_4
REMARK    4  A    between atoms: C_4  and  C_6
REMARK    5  A    between atoms: C_6  and  C_7
REMARK    6  A    between atoms: C_10  and  N_13
REMARK    7  A    between atoms: C_29  and  C_31
REMARK                            x       y       z     vdW  Elec       q    Type
REMARK                         _______ _______ _______ _____ _____    ______ ____
ROOT
ATOM      1  N   UNL     1      -3.649  -8.435   0.071  0.00  0.00    -0.269 N 
ATOM      2  C   UNL     1      -3.096  -8.965   1.180  0.00  0.00    +0.307 C 
ATOM      3  O   UNL     1      -3.052  -8.316   2.207  0.00  0.00    -0.252 OA
ATOM      4  N   UNL     1      -2.591 -10.215   1.150  0.00  0.00    -0.276 N 
ATOM      5  C   UNL     1      -2.519 -10.938  -0.124  0.00  0.00    +0.114 C 
ATOM      6  C   UNL     1      -3.301 -12.259  -0.008  0.00  0.00    +0.052 C 
ATOM      7  C   UNL     1      -2.899 -12.886   1.304  0.00  0.00    -0.035 C 
ATOM      8  C   UNL     1      -2.455 -14.102   1.596  0.00  0.00    -0.001 A 
ATOM      9  C   UNL     1      -2.296 -15.311   0.772  0.00  0.00    +0.010 A 
ATOM     10  C   UNL     1      -1.782 -16.402   1.400  0.00  0.00    +0.001 A 
ATOM     11  C   UNL     1      -1.415 -16.410   2.750  0.00  0.00    +0.002 A 
ATOM     12  C   UNL     1      -1.534 -15.347   3.584  0.00  0.00    +0.026 A 
ATOM     13  C   UNL     1      -2.071 -14.143   3.040  0.00  0.00    +0.043 A 
ATOM     14  N   UNL     1      -2.313 -12.999   3.608  0.00  0.00    -0.375 N 
ATOM     15  C   UNL     1      -2.933 -12.116   2.619  0.00  0.00    +0.131 C 
ATOM     16  C   UNL     1      -2.113 -10.836   2.395  0.00  0.00    +0.137 C 
ATOM     17  H   UNL     1      -3.782  -8.987  -0.716  0.00  0.00    +0.156 HD
ATOM     18  H   UNL     1      -2.116 -12.769   4.529  0.00  0.00    +0.160 HD
ENDROOT
BRANCH  16  19
ATOM     19  C   UNL     1      -2.315  -9.888   3.549  0.00  0.00    +0.010 A 
ATOM     20  C   UNL     1      -3.554  -9.793   4.156  0.00  0.00    +0.008 A 
ATOM     21  C   UNL     1      -3.740  -8.924   5.215  0.00  0.00    +0.000 A 
ATOM     22  C   UNL     1      -2.688  -8.149   5.668  0.00  0.00    +0.003 A 
ATOM     23  C   UNL     1      -1.449  -8.243   5.063  0.00  0.00    +0.039 A 
ATOM     24  C   UNL     1      -1.260  -9.118   4.006  0.00  0.00    +0.128 A 
ATOM     25  F   UNL     1      -0.048  -9.214   3.417  0.00  0.00    -0.205 F 
ENDBRANCH  16  19
BRANCH   1  29
ATOM     26  C   UNL     1      -4.787  -4.428   0.021  0.00  0.00    -0.037 A 
ATOM     27  C   UNL     1      -4.391  -5.047  -1.150  0.00  0.00    +0.006 A 
ATOM     28  C   UNL     1      -4.013  -6.375  -1.137  0.00  0.00    +0.023 A 
ATOM     29  C   UNL     1      -4.031  -7.089   0.054  0.00  0.00    +0.035 A 
ATOM     30  C   UNL     1      -4.430  -6.465   1.228  0.00  0.00    +0.023 A 
ATOM     31  C   UNL     1      -4.801  -5.135   1.209  0.00  0.00    +0.006 A 
BRANCH  26  32
ATOM     32  C   UNL     1      -5.199  -2.978   0.003  0.00  0.00    +0.155 C 
BRANCH  32  33
ATOM     33  C   UNL     1      -3.991  -2.110   0.242  0.00  0.00    +0.311 C 
ATOM     34  O   UNL     1      -2.907  -2.616   0.410  0.00  0.00    -0.250 OA
BRANCH  33  35
ATOM     35  O   UNL     1      -4.119  -0.774   0.268  0.00  0.00    -0.465 OA
BRANCH  35  37
ATOM     36  C   UNL     1      -3.274   1.479   0.495  0.00  0.00    +0.048 C 
ATOM     37  C   UNL     1      -2.933  -0.013   0.500  0.00  0.00    +0.229 C 
ENDBRANCH  35  37
ENDBRANCH  33  35
ENDBRANCH  32  33
ENDBRANCH  26  32
ENDBRANCH   1  29
TORSDOF 6
