REMARK  Name = ZINC56615043
REMARK  5 active torsions:
REMARK  status: ('A' for Active; 'I' for Inactive)
REMARK    1  A    between atoms: C_1  and  C_2
REMARK    2  A    between atoms: C_5  and  N_12
REMARK    3  A    between atoms: N_9  and  C_11
REMARK    4  A    between atoms: N_15  and  C_16
REMARK    5  A    between atoms: C_16  and  C_17
REMARK                            x       y       z     vdW  Elec       q    Type
REMARK                         _______ _______ _______ _____ _____    ______ ____
ROOT
ATOM      1  N   UNL     1      -0.001  -1.520  -4.802  0.00  0.00    -0.268 N 
ATOM      2  C   UNL     1       0.111  -2.581  -5.625  0.00  0.00    +0.304 C 
ATOM      3  O   UNL     1       0.129  -3.707  -5.167  0.00  0.00    -0.252 OA
ATOM      4  N   UNL     1       0.204  -2.393  -6.957  0.00  0.00    -0.295 N 
ATOM      5  H   UNL     1      -0.092  -0.627  -5.170  0.00  0.00    +0.156 HD
ATOM      6  H   UNL     1       0.189  -1.495  -7.322  0.00  0.00    +0.151 HD
ENDROOT
BRANCH   1  11
ATOM      7  C   UNL     1       2.323  -4.913  -0.880  0.00  0.00    +0.068 C 
ATOM      8  C   UNL     1       1.392  -3.783  -0.522  0.00  0.00    +0.069 A 
ATOM      9  C   UNL     1       0.752  -2.866  -1.459  0.00  0.00    +0.043 A 
ATOM     10  C   UNL     1       0.770  -2.724  -2.852  0.00  0.00    +0.038 A 
ATOM     11  C   UNL     1       0.015  -1.706  -3.412  0.00  0.00    +0.054 A 
ATOM     12  C   UNL     1      -0.728  -0.870  -2.581  0.00  0.00    +0.136 A 
ATOM     13  N   UNL     1      -0.729  -1.024  -1.276  0.00  0.00    -0.234 NA
ATOM     14  C   UNL     1      -0.024  -1.981  -0.685  0.00  0.00    +0.158 A 
ATOM     15  N   UNL     1       0.148  -2.353   0.622  0.00  0.00    -0.249 N 
ATOM     16  N   UNL     1       1.009  -3.453   0.678  0.00  0.00    -0.174 NA
ATOM     17  C   UNL     1      -0.476  -1.704   1.778  0.00  0.00    +0.174 C 
ENDBRANCH   1  11
BRANCH   4  18
ATOM     18  C   UNL     1       0.325  -3.546  -7.852  0.00  0.00    +0.141 C 
BRANCH  18  19
ATOM     19  C   UNL     1       0.411  -3.068  -9.279  0.00  0.00    -0.027 A 
ATOM     20  C   UNL     1      -0.743  -2.899 -10.021  0.00  0.00    +0.043 A 
ATOM     21  C   UNL     1      -0.664  -2.460 -11.332  0.00  0.00    +0.125 A 
ATOM     22  C   UNL     1       0.570  -2.190 -11.898  0.00  0.00    +0.053 A 
ATOM     23  C   UNL     1       1.723  -2.359 -11.153  0.00  0.00    +0.021 A 
ATOM     24  C   UNL     1       1.643  -2.793  -9.842  0.00  0.00    +0.020 A 
ATOM     25 BR   UNL     1       3.410  -1.991 -11.925  0.00  0.00    -0.050 Br
ATOM     26  F   UNL     1      -1.791  -2.295 -12.058  0.00  0.00    -0.205 F 
ENDBRANCH  18  19
ENDBRANCH   4  18
TORSDOF 3
