REMARK  Name = ZINC35991218
REMARK  12 active torsions:
REMARK  status: ('A' for Active; 'I' for Inactive)
REMARK    1  A    between atoms: C_1  and  C_2
REMARK    2  A    between atoms: C_2  and  N_3
REMARK    3  A    between atoms: C_4  and  C_24
REMARK    4  A    between atoms: C_5  and  C_19
REMARK    5  A    between atoms: C_6  and  C_11
REMARK    6  A    between atoms: C_19  and  O_21
REMARK    7  A    between atoms: O_21  and  C_22
REMARK    8  A    between atoms: C_22  and  C_23
REMARK    9  A    between atoms: C_24  and  N_25
REMARK   10  A    between atoms: N_25  and  C_26
REMARK   11  A    between atoms: N_25  and  C_27
REMARK   12  A    between atoms: N_30  and  C_33
REMARK                            x       y       z     vdW  Elec       q    Type
REMARK                         _______ _______ _______ _____ _____    ______ ____
ROOT
ATOM      1  N   UNL     1      -1.452  -0.330   0.169  0.00  0.00    -0.258 N 
ATOM      2  C   UNL     1      -2.134  -0.594   1.322  0.00  0.00    +0.041 C 
ATOM      3  C   UNL     1      -3.363  -1.154   1.293  0.00  0.00    +0.080 C 
ATOM      4  C   UNL     1      -3.958  -1.477  -0.063  0.00  0.00    +0.145 C 
ATOM      5  N   UNL     1      -3.142  -1.152  -1.245  0.00  0.00    -0.288 N 
ATOM      6  C   UNL     1      -1.932  -0.590  -1.054  0.00  0.00    +0.307 C 
ATOM      7  O   UNL     1      -1.252  -0.314  -2.023  0.00  0.00    -0.252 OA
ATOM      8  H   UNL     1      -3.468  -1.335  -2.139  0.00  0.00    +0.151 HD
ENDROOT
BRANCH   4   9
ATOM      9  C   UNL     1      -4.258  -2.953  -0.098  0.00  0.00    -0.004 A 
ATOM     10  C   UNL     1      -3.319  -3.838  -0.595  0.00  0.00    +0.008 A 
ATOM     11  C   UNL     1      -3.594  -5.192  -0.628  0.00  0.00    +0.020 A 
ATOM     12  C   UNL     1      -4.809  -5.663  -0.163  0.00  0.00    +0.042 A 
ATOM     13  C   UNL     1      -5.749  -4.778   0.334  0.00  0.00    +0.040 A 
ATOM     14  C   UNL     1      -5.472  -3.423   0.371  0.00  0.00    +0.048 A 
ATOM     15 CL   UNL     1      -6.648  -2.313   1.000  0.00  0.00    -0.083 Cl
ATOM     16 CL   UNL     1      -5.155  -7.364  -0.205  0.00  0.00    -0.083 Cl
ENDBRANCH   4   9
BRANCH   1  18
ATOM     17  C   UNL     1      -0.257   1.802   0.268  0.00  0.00    +0.025 C 
ATOM     18  C   UNL     1      -0.123   0.278   0.276  0.00  0.00    +0.111 C 
ENDBRANCH   1  18
BRANCH   3  19
ATOM     19  C   UNL     1      -4.070  -1.429   2.486  0.00  0.00    +0.339 C 
ATOM     20  O   UNL     1      -4.052  -2.550   2.959  0.00  0.00    -0.245 OA
BRANCH  19  21
ATOM     21  O   UNL     1      -4.764  -0.449   3.101  0.00  0.00    -0.462 OA
BRANCH  21  22
ATOM     22  C   UNL     1      -5.454  -0.798   4.303  0.00  0.00    +0.229 C 
ATOM     23  C   UNL     1      -6.178   0.434   4.851  0.00  0.00    +0.048 C 
ENDBRANCH  21  22
ENDBRANCH  19  21
ENDBRANCH   3  19
BRANCH   2  24
ATOM     24  C   UNL     1      -1.505  -0.257   2.650  0.00  0.00    +0.136 C 
BRANCH  24  25
ATOM     25  N   UNL     1      -0.332  -1.115   2.868  0.00  0.00    -0.297 NA
ATOM     26  C   UNL     1      -0.729  -2.521   3.017  0.00  0.00    +0.105 C 
BRANCH  25  27
ATOM     27  C   UNL     1       0.443  -0.661   4.030  0.00  0.00    +0.053 C 
ATOM     28  C   UNL     1       0.931   0.771   3.792  0.00  0.00    +0.000 C 
ATOM     29  C   UNL     1       1.804   1.209   4.971  0.00  0.00    -0.078 C 
ATOM     30  N   UNL     1       2.958   0.310   5.090  0.00  0.00    +0.378 N 
ATOM     31  C   UNL     1       2.501  -1.052   5.389  0.00  0.00    -0.078 C 
ATOM     32  C   UNL     1       1.655  -1.577   4.226  0.00  0.00    +0.000 C 
ATOM     33  C   UNL     1       3.833   0.780   6.172  0.00  0.00    -0.096 C 
ATOM     34  H   UNL     1       3.472   0.308   4.221  0.00  0.00    -0.082 HD
ENDBRANCH  25  27
ENDBRANCH  24  25
ENDBRANCH   2  24
TORSDOF 8
