REMARK  Name = ZINC03279282
REMARK  3 active torsions:
REMARK  status: ('A' for Active; 'I' for Inactive)
REMARK    1  A    between atoms: C_1  and  C_2
REMARK    2  A    between atoms: C_17  and  C_19
REMARK    3  A    between atoms: C_19  and  N_60
REMARK                            x       y       z     vdW  Elec       q    Type
REMARK                         _______ _______ _______ _____ _____    ______ ____
ROOT
ATOM      1  C   UNL     1       5.507   7.102   4.331  0.00  0.00    +0.109 C 
ATOM      2  C   UNL     1       6.153   5.932   5.028  0.00  0.00    +0.213 C 
ATOM      3  O   UNL     1       6.243   5.921   6.237  0.00  0.00    -0.276 OA
ATOM      4  N   UNL     1       6.632   4.899   4.307  0.00  0.00    -0.299 N 
ATOM      5  C   UNL     1       6.641   4.944   2.837  0.00  0.00    +0.126 C 
ATOM      6  C   UNL     1       5.984   3.665   2.307  0.00  0.00    +0.125 C 
ATOM      7  N   UNL     1       6.649   2.495   2.897  0.00  0.00    -0.312 N 
ATOM      8  C   UNL     1       6.480   2.466   4.356  0.00  0.00    +0.125 C 
ATOM      9  C   UNL     1       7.157   3.696   4.970  0.00  0.00    +0.126 C 
ATOM     10  C   UNL     1       6.194   1.323   2.322  0.00  0.00    +0.133 A 
ATOM     11  C   UNL     1       7.073   0.505   1.559  0.00  0.00    +0.051 A 
ATOM     12  C   UNL     1       8.490   0.715   1.258  0.00  0.00    -0.025 A 
ATOM     13  C   UNL     1       9.101  -0.222   0.504  0.00  0.00    -0.004 A 
ATOM     14  S   UNL     1       7.846  -1.424   0.154  0.00  0.00    -0.073 S 
ATOM     15  C   UNL     1       6.498  -0.664   1.022  0.00  0.00    +0.114 A 
ATOM     16  N   UNL     1       5.231  -0.967   1.227  0.00  0.00    -0.227 NA
ATOM     17  C   UNL     1       4.463  -0.166   1.939  0.00  0.00    +0.116 A 
ATOM     18  N   UNL     1       4.934   0.947   2.473  0.00  0.00    -0.219 NA
ATOM     19  C   UNL     1      10.532  -0.239   0.060  0.00  0.00    +0.043 C 
ATOM     20  C   UNL     1      11.123   1.161   0.276  0.00  0.00    +0.005 C 
ATOM     21  C   UNL     1      10.759   1.635   1.686  0.00  0.00    +0.005 C 
ATOM     22  C   UNL     1       9.261   1.932   1.763  0.00  0.00    +0.037 C 
ENDROOT
BRANCH  17  23
ATOM     23  C   UNL     1       3.016  -0.530   2.154  0.00  0.00    -0.001 C 
BRANCH  23  29
ATOM     24  C   UNL     1       0.830  -0.478   1.116  0.00  0.00    -0.078 C 
ATOM     25  C   UNL     1       0.053   0.031  -0.101  0.00  0.00    -0.019 C 
ATOM     26  C   UNL     1       0.034   1.562  -0.084  0.00  0.00    -0.004 C 
ATOM     27  C   UNL     1       1.474   2.083  -0.076  0.00  0.00    -0.019 C 
ATOM     28  C   UNL     1       2.209   1.514   1.140  0.00  0.00    -0.078 C 
ATOM     29  N   UNL     1       2.214   0.039   1.052  0.00  0.00    +0.384 N 
ATOM     30  H   UNL     1       2.632  -0.240   0.156  0.00  0.00    -0.081 HD
ENDBRANCH  23  29
ENDBRANCH  17  23
TORSDOF 2
