REMARK  Name = ZINC46738851
REMARK  12 active torsions:
REMARK  status: ('A' for Active; 'I' for Inactive)
REMARK    1  A    between atoms: C_1  and  C_2
REMARK    2  A    between atoms: C_2  and  C_4
REMARK    3  A    between atoms: C_2  and  N_13
REMARK    4  A    between atoms: C_7  and  O_11
REMARK    5  A    between atoms: O_11  and  C_12
REMARK    6  A    between atoms: C_14  and  C_16
REMARK    7  A    between atoms: C_16  and  C_17
REMARK    8  A    between atoms: C_17  and  C_18
REMARK    9  A    between atoms: C_18  and  N_19
REMARK   10  A    between atoms: N_19  and  C_20
REMARK   11  A    between atoms: N_19  and  S_21
REMARK   12  A    between atoms: S_21  and  C_24
REMARK                            x       y       z     vdW  Elec       q    Type
REMARK                         _______ _______ _______ _____ _____    ______ ____
ROOT
ATOM      1  N   UNL     1       0.688  -0.476  -1.203  0.00  0.00    -0.309 N 
ATOM      2  C   UNL     1       0.006  -0.608  -2.358  0.00  0.00    +0.214 C 
ATOM      3  O   UNL     1      -1.175  -0.336  -2.400  0.00  0.00    -0.276 OA
ATOM      4  H   UNL     1       1.632  -0.695  -1.170  0.00  0.00    +0.149 HD
ENDROOT
BRANCH   1   6
ATOM      5  C   UNL     1      -0.019   1.526   0.010  0.00  0.00    +0.033 C 
ATOM      6  C   UNL     1       0.002  -0.004   0.002  0.00  0.00    +0.100 C 
BRANCH   6   7
ATOM      7  C   UNL     1       0.731  -0.503   1.223  0.00  0.00    -0.026 A 
ATOM      8  C   UNL     1       2.114  -0.513   1.245  0.00  0.00    +0.009 A 
ATOM      9  C   UNL     1       2.784  -0.971   2.363  0.00  0.00    +0.047 A 
ATOM     10  C   UNL     1       2.070  -1.420   3.464  0.00  0.00    +0.134 A 
ATOM     11  C   UNL     1       0.682  -1.409   3.439  0.00  0.00    +0.060 A 
ATOM     12  C   UNL     1       0.016  -0.945   2.321  0.00  0.00    +0.024 A 
ATOM     13 BR   UNL     1      -0.295  -2.021   4.938  0.00  0.00    -0.047 Br
BRANCH  10  14
ATOM     14  O   UNL     1       2.728  -1.871   4.564  0.00  0.00    -0.494 OA
ATOM     15  C   UNL     1       4.156  -1.854   4.519  0.00  0.00    +0.277 C 
ENDBRANCH  10  14
ENDBRANCH   6   7
ENDBRANCH   1   6
BRANCH   2  16
ATOM     16  C   UNL     1       0.712  -1.094  -3.598  0.00  0.00    +0.097 C 
BRANCH  16  17
ATOM     17  C   UNL     1      -0.282  -1.153  -4.761  0.00  0.00    +0.026 C 
BRANCH  17  18
ATOM     18  C   UNL     1       0.434  -1.646  -6.019  0.00  0.00    +0.109 C 
BRANCH  18  19
ATOM     19  N   UNL     1      -0.517  -1.702  -7.132  0.00  0.00    -0.179 NA
ATOM     20  C   UNL     1      -0.787  -0.501  -7.926  0.00  0.00    +0.131 C 
BRANCH  19  21
ATOM     21  S   UNL     1      -1.287  -3.123  -7.492  0.00  0.00    +0.067 S 
ATOM     22  O   UNL     1      -1.666  -3.045  -8.859  0.00  0.00    -0.152 OA
ATOM     23  O   UNL     1      -0.468  -4.169  -6.987  0.00  0.00    -0.152 OA
BRANCH  21  24
ATOM     24  C   UNL     1      -2.780  -3.158  -6.557  0.00  0.00    +0.143 A 
ATOM     25  C   UNL     1      -4.011  -2.704  -6.897  0.00  0.00    +0.036 A 
ATOM     26  C   UNL     1      -5.049  -2.839  -5.994  0.00  0.00    +0.010 A 
ATOM     27  C   UNL     1      -4.805  -3.421  -4.794  0.00  0.00    +0.047 A 
ATOM     28  S   UNL     1      -3.066  -3.806  -4.918  0.00  0.00    -0.077 S 
ENDBRANCH  21  24
ENDBRANCH  19  21
ENDBRANCH  18  19
ENDBRANCH  17  18
ENDBRANCH  16  17
ENDBRANCH   2  16
TORSDOF 9
