REMARK  Name = ZINC25404357
REMARK  11 active torsions:
REMARK  status: ('A' for Active; 'I' for Inactive)
REMARK    1  A    between atoms: C_1  and  C_2
REMARK    2  A    between atoms: C_2  and  C_3
REMARK    3  A    between atoms: C_3  and  C_5
REMARK    4  A    between atoms: C_3  and  C_6
REMARK    5  A    between atoms: C_6  and  C_8
REMARK    6  A    between atoms: C_6  and  N_29
REMARK    7  A    between atoms: N_10  and  C_11
REMARK    8  A    between atoms: C_14  and  C_28
REMARK    9  A    between atoms: C_15  and  S_17
REMARK   10  A    between atoms: S_17  and  N_20
REMARK   11  A    between atoms: N_20  and  C_21
REMARK                            x       y       z     vdW  Elec       q    Type
REMARK                         _______ _______ _______ _____ _____    ______ ____
ROOT
ATOM      1  C   UNL     1      -0.418   3.447  -3.548  0.00  0.00    +0.035 A 
ATOM      2  C   UNL     1      -1.543   2.933  -4.180  0.00  0.00    +0.024 A 
ATOM      3  C   UNL     1      -2.241   1.891  -3.604  0.00  0.00    +0.007 A 
ATOM      4  C   UNL     1      -1.821   1.358  -2.399  0.00  0.00    -0.024 A 
ATOM      5  C   UNL     1      -0.702   1.867  -1.767  0.00  0.00    +0.113 A 
ATOM      6  C   UNL     1      -0.002   2.913  -2.335  0.00  0.00    +0.052 A 
ATOM      7  C   UNL     1      -2.586   0.220  -1.773  0.00  0.00    +0.046 C 
ENDROOT
BRANCH   1  10
ATOM      8  C   UNL     1       0.410   4.580  -5.469  0.00  0.00    +0.238 C 
ATOM      9  O   UNL     1      -0.167   3.781  -6.175  0.00  0.00    -0.273 OA
ATOM     10  N   UNL     1       0.292   4.504  -4.129  0.00  0.00    -0.284 N 
ATOM     11  H   UNL     1       0.752   5.273  -3.491  0.00  0.00    +0.155 HD
BRANCH   8  12
ATOM     12  C   UNL     1       1.260   5.659  -6.090  0.00  0.00    +0.163 C 
BRANCH  12  13
ATOM     13  N   UNL     1       1.226   5.528  -7.549  0.00  0.00    -0.288 N 
ATOM     14  C   UNL     1       1.459   6.602  -8.328  0.00  0.00    +0.298 C 
ATOM     15  O   UNL     1       1.698   7.681  -7.820  0.00  0.00    -0.253 OA
ATOM     16  N   UNL     1       1.428   6.482  -9.670  0.00  0.00    -0.313 N 
ATOM     17  H   UNL     1       1.010   4.552  -8.008  0.00  0.00    +0.151 HD
ATOM     18  H   UNL     1       1.618   7.359 -10.306  0.00  0.00    +0.146 HD
ATOM     19  H   UNL     1       1.212   5.506 -10.130  0.00  0.00    +0.146 HD
ENDBRANCH  12  13
BRANCH  12  20
ATOM     20  C   UNL     1       2.702   5.519  -5.599  0.00  0.00    +0.015 C 
ATOM     21  C   UNL     1       3.537   6.685  -6.130  0.00  0.00    +0.010 C 
BRANCH  20  23
ATOM     22  C   UNL     1       4.684   4.000  -5.514  0.00  0.00    +0.004 C 
ATOM     23  C   UNL     1       3.288   4.199  -6.107  0.00  0.00    +0.002 C 
ENDBRANCH  20  23
ENDBRANCH  12  20
ENDBRANCH   8  12
ENDBRANCH   1  10
BRANCH   5  24
ATOM     24  S   UNL     1      -0.172   1.185  -0.231  0.00  0.00    +0.073 S 
ATOM     25  O   UNL     1       0.990   1.907   0.154  0.00  0.00    -0.150 OA
ATOM     26  O   UNL     1      -1.325   1.101   0.595  0.00  0.00    -0.150 OA
BRANCH  24  27
ATOM     27  N   UNL     1       0.313  -0.370  -0.527  0.00  0.00    -0.215 N 
ATOM     28  H   UNL     1      -0.185  -1.208  -0.018  0.00  0.00    +0.174 HD
BRANCH  27  29
ATOM     29  C   UNL     1       1.356  -0.618  -1.424  0.00  0.00    +0.066 A 
ATOM     30  C   UNL     1       2.426   0.264  -1.508  0.00  0.00    +0.026 A 
ATOM     31  C   UNL     1       3.458   0.014  -2.392  0.00  0.00    +0.002 A 
ATOM     32  C   UNL     1       3.422  -1.108  -3.199  0.00  0.00    +0.002 A 
ATOM     33  C   UNL     1       2.357  -1.987  -3.122  0.00  0.00    +0.022 A 
ATOM     34  C   UNL     1       1.323  -1.745  -2.237  0.00  0.00    +0.063 A 
ATOM     35 CL   UNL     1      -0.015  -2.847  -2.141  0.00  0.00    -0.082 Cl
ENDBRANCH  27  29
ENDBRANCH  24  27
ENDBRANCH   5  24
TORSDOF 8
