REMARK  Name = ZINC21775557
REMARK  12 active torsions:
REMARK  status: ('A' for Active; 'I' for Inactive)
REMARK    1  A    between atoms: C_1  and  C_2
REMARK    2  A    between atoms: C_4  and  S_11
REMARK    3  A    between atoms: C_6  and  C_10
REMARK    4  A    between atoms: C_7  and  O_8
REMARK    5  A    between atoms: O_8  and  C_9
REMARK    6  A    between atoms: S_11  and  N_14
REMARK    7  A    between atoms: N_14  and  C_15
REMARK    8  A    between atoms: C_15  and  C_16
REMARK    9  A    between atoms: C_16  and  C_18
REMARK   10  A    between atoms: C_16  and  N_29
REMARK   11  A    between atoms: N_27  and  C_28
REMARK   12  A    between atoms: N_32  and  C_35
REMARK                            x       y       z     vdW  Elec       q    Type
REMARK                         _______ _______ _______ _____ _____    ______ ____
ROOT
ATOM      1  C   UNL     1      -0.692   0.186  -1.195  0.00  0.00    +0.102 C 
ENDROOT
BRANCH   1   2
ATOM      2  C   UNL     1       0.314   0.293  -2.312  0.00  0.00    -0.029 A 
ATOM      3  C   UNL     1       1.296   1.266  -2.270  0.00  0.00    +0.007 A 
ATOM      4  C   UNL     1       2.217   1.360  -3.291  0.00  0.00    +0.024 A 
ATOM      5  C   UNL     1       2.159   0.485  -4.378  0.00  0.00    +0.033 A 
ATOM      6  C   UNL     1       1.173  -0.486  -4.416  0.00  0.00    -0.026 A 
ATOM      7  C   UNL     1       0.254  -0.577  -3.382  0.00  0.00    +0.010 A 
ATOM      8  C   UNL     1       1.063  -1.468  -5.555  0.00  0.00    +0.038 C 
ATOM      9  C   UNL     1       1.892  -0.974  -6.742  0.00  0.00    +0.024 C 
ATOM     10  C   UNL     1       3.270  -0.555  -6.215  0.00  0.00    +0.105 C 
ATOM     11  N   UNL     1       3.109   0.641  -5.385  0.00  0.00    -0.333 N 
ATOM     12  C   UNL     1       4.399   1.074  -4.830  0.00  0.00    +0.129 C 
ENDBRANCH   1   2
BRANCH   1  13
ATOM     13  N   UNL     1      -1.490   1.418  -1.136  0.00  0.00    -0.298 NA
ATOM     14  C   UNL     1      -1.731   1.954  -2.483  0.00  0.00    +0.066 C 
ATOM     15  C   UNL     1      -2.630   3.189  -2.384  0.00  0.00    -0.064 C 
ATOM     16  N   UNL     1      -1.986   4.194  -1.527  0.00  0.00    +0.379 N 
ATOM     17  C   UNL     1      -1.745   3.657  -0.180  0.00  0.00    -0.064 C 
ATOM     18  C   UNL     1      -0.846   2.423  -0.279  0.00  0.00    +0.066 C 
ATOM     19  C   UNL     1      -2.785   5.425  -1.468  0.00  0.00    -0.096 C 
ATOM     20  H   UNL     1      -1.012   4.445  -1.971  0.00  0.00    -0.082 HD
ENDBRANCH   1  13
BRANCH   1  21
ATOM     21  C   UNL     1       0.041  -0.011   0.134  0.00  0.00    +0.129 C 
BRANCH  21  22
ATOM     22  N   UNL     1      -0.924   0.037   1.235  0.00  0.00    -0.188 NA
ATOM     23  H   UNL     1      -1.873   0.578   1.111  0.00  0.00    +0.148 HD
BRANCH  22  24
ATOM     24  S   UNL     1      -0.491  -0.504   2.739  0.00  0.00    +0.058 S 
ATOM     25  O   UNL     1      -1.617  -0.304   3.582  0.00  0.00    -0.153 OA
ATOM     26  O   UNL     1       0.106  -1.780   2.555  0.00  0.00    -0.153 OA
BRANCH  24  30
ATOM     27  C   UNL     1       1.077   3.764   5.315  0.00  0.00    +0.047 C 
ATOM     28  C   UNL     1       1.439   2.534   4.524  0.00  0.00    -0.007 A 
ATOM     29  C   UNL     1       0.446   1.694   4.058  0.00  0.00    +0.035 A 
ATOM     30  C   UNL     1       0.778   0.565   3.332  0.00  0.00    +0.106 A 
ATOM     31  C   UNL     1       2.104   0.271   3.075  0.00  0.00    +0.035 A 
ATOM     32  C   UNL     1       3.101   1.111   3.533  0.00  0.00    -0.007 A 
ATOM     33  C   UNL     1       2.770   2.244   4.262  0.00  0.00    +0.126 A 
ATOM     34  C   UNL     1       4.546   0.792   3.248  0.00  0.00    +0.047 C 
BRANCH  33  35
ATOM     35  O   UNL     1       3.749   3.069   4.719  0.00  0.00    -0.495 OA
ATOM     36  C   UNL     1       4.281   2.788   6.015  0.00  0.00    +0.277 C 
ENDBRANCH  33  35
ENDBRANCH  24  30
ENDBRANCH  22  24
ENDBRANCH  21  22
ENDBRANCH   1  21
TORSDOF 7
