REMARK  Name = ZINC13072238
REMARK  10 active torsions:
REMARK  status: ('A' for Active; 'I' for Inactive)
REMARK    1  A    between atoms: C_1  and  C_2
REMARK    2  A    between atoms: C_2  and  C_4
REMARK    3  A    between atoms: C_2  and  N_50
REMARK    4  A    between atoms: N_6  and  C_7
REMARK    5  A    between atoms: C_10  and  C_13
REMARK    6  A    between atoms: C_17  and  N_50
REMARK    7  A    between atoms: C_18  and  C_19
REMARK    8  A    between atoms: C_18  and  N_50
REMARK    9  A    between atoms: N_21  and  C_22
REMARK   10  A    between atoms: C_26  and  C_28
REMARK                            x       y       z     vdW  Elec       q    Type
REMARK                         _______ _______ _______ _____ _____    ______ ____
ROOT
ATOM      1  C   UNL     1       0.087   1.174  -0.070  0.00  0.00    -0.094 C 
ATOM      2  N   UNL     1      -0.166   1.528   1.342  0.00  0.00    +0.391 N 
ATOM      3  H   UNL     1      -1.011   1.038   1.662  0.00  0.00    -0.080 HD
ENDROOT
BRANCH   2   5
ATOM      4  C   UNL     1       0.938   3.738   1.269  0.00  0.00    -0.004 C 
ATOM      5  C   UNL     1      -0.379   2.985   1.468  0.00  0.00    +0.017 C 
BRANCH   5   6
ATOM      6  C   UNL     1      -0.923   3.279   2.842  0.00  0.00    +0.203 C 
ATOM      7  O   UNL     1      -1.021   2.388   3.659  0.00  0.00    -0.277 OA
ATOM      8  N   UNL     1      -1.302   4.532   3.163  0.00  0.00    -0.287 N 
ATOM      9  H   UNL     1      -1.288   5.230   2.490  0.00  0.00    +0.155 HD
BRANCH   8  10
ATOM     10  C   UNL     1      -1.714   4.825   4.467  0.00  0.00    +0.033 A 
ATOM     11  C   UNL     1      -2.442   3.892   5.194  0.00  0.00    +0.024 A 
ATOM     12  C   UNL     1      -2.843   4.183   6.483  0.00  0.00    +0.014 A 
ATOM     13  C   UNL     1      -2.530   5.406   7.046  0.00  0.00    +0.055 A 
ATOM     14  C   UNL     1      -1.811   6.340   6.324  0.00  0.00    +0.014 A 
ATOM     15  C   UNL     1      -1.402   6.053   5.036  0.00  0.00    +0.024 A 
BRANCH  13  16
ATOM     16  C   UNL     1      -2.975   5.723   8.451  0.00  0.00    +0.417 C 
ATOM     17  F   UNL     1      -4.238   6.324   8.416  0.00  0.00    -0.166 F 
ATOM     18  F   UNL     1      -3.042   4.541   9.197  0.00  0.00    -0.166 F 
ATOM     19  F   UNL     1      -2.058   6.597   9.045  0.00  0.00    -0.166 F 
ENDBRANCH  13  16
ENDBRANCH   8  10
ENDBRANCH   5   6
ENDBRANCH   2   5
BRANCH   2  20
ATOM     20  C   UNL     1       0.977   1.110   2.181  0.00  0.00    +0.020 C 
BRANCH  20  21
ATOM     21  C   UNL     1       1.035  -0.396   2.209  0.00  0.00    +0.201 C 
ATOM     22  O   UNL     1       0.223  -1.046   1.584  0.00  0.00    -0.278 OA
ATOM     23  N   UNL     1       1.989  -1.020   2.928  0.00  0.00    -0.287 N 
ATOM     24  H   UNL     1       2.598  -0.503   3.477  0.00  0.00    +0.155 HD
BRANCH  23  25
ATOM     25  C   UNL     1       2.099  -2.415   2.882  0.00  0.00    +0.034 A 
ATOM     26  C   UNL     1       0.958  -3.200   2.779  0.00  0.00    +0.025 A 
ATOM     27  C   UNL     1       1.071  -4.576   2.729  0.00  0.00    +0.022 A 
ATOM     28  C   UNL     1       2.318  -5.172   2.791  0.00  0.00    +0.053 A 
ATOM     29  C   UNL     1       3.456  -4.392   2.899  0.00  0.00    +0.075 A 
ATOM     30  C   UNL     1       3.349  -3.016   2.944  0.00  0.00    +0.037 A 
ATOM     31 CL   UNL     1       2.455  -6.902   2.734  0.00  0.00    -0.083 Cl
BRANCH  29  32
ATOM     32  C   UNL     1       4.812  -5.045   2.967  0.00  0.00    +0.419 C 
ATOM     33  F   UNL     1       5.800  -4.059   3.071  0.00  0.00    -0.166 F 
ATOM     34  F   UNL     1       4.871  -5.884   4.084  0.00  0.00    -0.166 F 
ATOM     35  F   UNL     1       5.026  -5.798   1.807  0.00  0.00    -0.166 F 
ENDBRANCH  29  32
ENDBRANCH  23  25
ENDBRANCH  20  21
ENDBRANCH   2  20
TORSDOF 8
