REMARK  Name = ZINC20503570
REMARK  7 active torsions:
REMARK  status: ('A' for Active; 'I' for Inactive)
REMARK    1  A    between atoms: C_1  and  O_2
REMARK    2  A    between atoms: O_2  and  C_3
REMARK    3  A    between atoms: C_8  and  N_9
REMARK    4  A    between atoms: N_12  and  C_13
REMARK    5  A    between atoms: C_18  and  C_20
REMARK    6  A    between atoms: C_20  and  S_21
REMARK    7  A    between atoms: S_21  and  C_22
REMARK                            x       y       z     vdW  Elec       q    Type
REMARK                         _______ _______ _______ _____ _____    ______ ____
ROOT
ATOM      1  C   UNL     1       0.997  -6.146   0.495  0.00  0.00    +0.257 A 
ATOM      2  N   UNL     1      -0.150  -6.816   0.417  0.00  0.00    -0.172 NA
ATOM      3  C   UNL     1      -0.199  -8.108   0.712  0.00  0.00    +0.275 A 
ATOM      4  O   UNL     1      -1.369  -8.787   0.631  0.00  0.00    -0.266 OA
ATOM      5  C   UNL     1       0.971  -8.759   1.107  0.00  0.00    +0.096 A 
ATOM      6  C   UNL     1       2.143  -8.030   1.176  0.00  0.00    +0.060 A 
ATOM      7  N   UNL     1       2.127  -6.744   0.863  0.00  0.00    -0.215 NA
ENDROOT
BRANCH   1  11
ATOM      8  N   UNL     1      -0.087  -2.889  -0.499  0.00  0.00    -0.323 N 
ATOM      9  C   UNL     1      -0.059  -4.247  -0.313  0.00  0.00    +0.203 C 
ATOM     10  N   UNL     1      -1.150  -5.005  -0.646  0.00  0.00    -0.369 N 
ATOM     11  N   UNL     1       1.016  -4.822   0.185  0.00  0.00    -0.177 NA
ATOM     12  H   UNL     1      -0.875  -2.467  -0.873  0.00  0.00    +0.169 HD
ATOM     13  H   UNL     1      -1.028  -5.880  -1.046  0.00  0.00    +0.159 HD
ATOM     14  H   UNL     1      -2.044  -4.667  -0.480  0.00  0.00    +0.159 HD
BRANCH   8  20
ATOM     15  C   UNL     1       1.331  -0.963  -0.874  0.00  0.00    +0.143 A 
ATOM     16  C   UNL     1       2.428  -0.195  -0.518  0.00  0.00    +0.048 A 
ATOM     17  C   UNL     1       3.219  -0.572   0.551  0.00  0.00    +0.004 A 
ATOM     18  C   UNL     1       2.919  -1.716   1.268  0.00  0.00    +0.002 A 
ATOM     19  C   UNL     1       1.826  -2.487   0.921  0.00  0.00    +0.029 A 
ATOM     20  C   UNL     1       1.025  -2.112  -0.148  0.00  0.00    +0.084 A 
BRANCH  15  22
ATOM     21  C   UNL     1       0.926   0.596  -2.623  0.00  0.00    +0.277 C 
ATOM     22  O   UNL     1       0.552  -0.594  -1.925  0.00  0.00    -0.493 OA
ENDBRANCH  15  22
ENDBRANCH   8  20
ENDBRANCH   1  11
BRANCH   6  23
ATOM     23  C   UNL     1       3.429  -8.694   1.597  0.00  0.00    +0.130 C 
BRANCH  23  24
ATOM     24  S   UNL     1       4.280  -9.346   0.135  0.00  0.00    -0.119 S 
BRANCH  24  25
ATOM     25  C   UNL     1       5.743 -10.081   0.786  0.00  0.00    +0.008 A 
ATOM     26  C   UNL     1       5.986 -10.056   2.154  0.00  0.00    +0.016 A 
ATOM     27  C   UNL     1       7.133 -10.633   2.661  0.00  0.00    +0.021 A 
ATOM     28  C   UNL     1       8.041 -11.236   1.808  0.00  0.00    +0.041 A 
ATOM     29  C   UNL     1       7.803 -11.263   0.445  0.00  0.00    +0.021 A 
ATOM     30  C   UNL     1       6.654 -10.692  -0.067  0.00  0.00    +0.016 A 
ATOM     31 CL   UNL     1       9.483 -11.960   2.450  0.00  0.00    -0.084 Cl
ENDBRANCH  24  25
ENDBRANCH  23  24
ENDBRANCH   6  23
TORSDOF 6
