REMARK  Name = ZINC09427073
REMARK  1 active torsions:
REMARK  status: ('A' for Active; 'I' for Inactive)
REMARK    1  A    between atoms: C_6  and  N_7
REMARK                            x       y       z     vdW  Elec       q    Type
REMARK                         _______ _______ _______ _____ _____    ______ ____
ROOT
ATOM      1  N   UNL     1       1.061   2.057   0.003  0.00  0.00    -0.210 N 
ATOM      2  C   UNL     1       0.738   3.319   0.440  0.00  0.00    +0.228 C 
ATOM      3  O   UNL     1       1.417   4.321   0.377  0.00  0.00    -0.275 OA
ATOM      4  C   UNL     1      -0.585   3.189   0.989  0.00  0.00    +0.074 C 
ATOM      5  C   UNL     1      -1.763   3.966   1.405  0.00  0.00    -0.054 C 
ATOM      6  C   UNL     1      -1.531   4.773   2.696  0.00  0.00    -0.016 C 
ATOM      7  C   UNL     1      -1.896   3.833   3.859  0.00  0.00    -0.020 C 
ATOM      8  C   UNL     1      -2.285   2.500   3.193  0.00  0.00    -0.076 C 
ATOM      9  C   UNL     1      -2.427   1.716   0.886  0.00  0.00    +0.053 C 
ATOM     10  C   UNL     1      -1.224   2.111   0.018  0.00  0.00    +0.089 C 
ATOM     11  C   UNL     1      -0.014   1.208   0.009  0.00  0.00    +0.229 C 
ATOM     12  O   UNL     1       0.002  -0.004   0.002  0.00  0.00    -0.275 OA
ATOM     13  C   UNL     1      -2.255   0.403   1.594  0.00  0.00    -0.026 A 
ATOM     14  C   UNL     1      -1.329  -0.093   2.487  0.00  0.00    +0.024 A 
ATOM     15  C   UNL     1      -1.443  -1.379   2.980  0.00  0.00    +0.041 A 
ATOM     16  C   UNL     1      -2.493  -2.183   2.570  0.00  0.00    +0.022 A 
ATOM     17  C   UNL     1      -3.415  -1.702   1.665  0.00  0.00    +0.025 A 
ATOM     18  C   UNL     1      -3.300  -0.409   1.161  0.00  0.00    +0.036 A 
ATOM     19  N   UNL     1      -4.094   0.276   0.238  0.00  0.00    -0.286 N 
ATOM     20  C   UNL     1      -3.642   1.519   0.005  0.00  0.00    +0.212 C 
ATOM     21  O   UNL     1      -4.116   2.329  -0.764  0.00  0.00    -0.277 OA
ATOM     22 CL   UNL     1      -0.273  -1.985   4.111  0.00  0.00    -0.084 Cl
ATOM     23  H   UNL     1      -4.881  -0.102  -0.185  0.00  0.00    +0.155 HD
ATOM     24  N   UNL     1      -2.644   2.870   1.817  0.00  0.00    +0.395 N 
ATOM     25  H   UNL     1      -3.627   3.167   1.780  0.00  0.00    -0.079 HD
ENDROOT
BRANCH   1  31
ATOM     26  C   UNL     1       2.591   0.380  -0.826  0.00  0.00    +0.028 A 
ATOM     27  C   UNL     1       3.859   0.008  -1.232  0.00  0.00    +0.051 A 
ATOM     28  C   UNL     1       4.895   0.928  -1.208  0.00  0.00    +0.166 A 
ATOM     29  C   UNL     1       4.656   2.232  -0.779  0.00  0.00    +0.168 A 
ATOM     30  C   UNL     1       3.385   2.605  -0.378  0.00  0.00    +0.073 A 
ATOM     31  C   UNL     1       2.350   1.680  -0.404  0.00  0.00    +0.048 A 
ATOM     32  O   UNL     1       5.825   2.934  -0.848  0.00  0.00    -0.453 OA
ATOM     33  C   UNL     1       6.865   1.942  -0.933  0.00  0.00    +0.466 C 
ATOM     34  O   UNL     1       6.213   0.814  -1.545  0.00  0.00    -0.453 OA
ENDBRANCH   1  31
TORSDOF 1
