REMARK  Name = ZINC33724217
REMARK  5 active torsions:
REMARK  status: ('A' for Active; 'I' for Inactive)
REMARK    1  A    between atoms: C_1  and  C_2
REMARK    2  A    between atoms: C_7  and  N_29
REMARK    3  A    between atoms: C_8  and  C_13
REMARK    4  A    between atoms: N_17  and  C_21
REMARK    5  A    between atoms: C_33  and  C_36
REMARK                            x       y       z     vdW  Elec       q    Type
REMARK                         _______ _______ _______ _____ _____    ______ ____
ROOT
ATOM      1  C   UNL     1      -0.391  -5.465   0.666  0.00  0.00    +0.045 C 
ATOM      2  C   UNL     1      -1.489  -4.437   0.573  0.00  0.00    -0.034 A 
ATOM      3  C   UNL     1      -2.825  -4.822   0.748  0.00  0.00    +0.008 A 
ATOM      4  C   UNL     1      -3.812  -3.885   0.662  0.00  0.00    +0.047 A 
ATOM      5  C   UNL     1      -3.475  -2.545   0.400  0.00  0.00    +0.142 A 
ATOM      6  N   UNL     1      -4.447  -1.636   0.318  0.00  0.00    -0.214 NA
ATOM      7  C   UNL     1      -4.186  -0.359   0.079  0.00  0.00    +0.136 A 
ATOM      8  C   UNL     1      -2.847   0.056  -0.107  0.00  0.00    +0.081 A 
ATOM      9  C   UNL     1      -1.823  -0.917  -0.019  0.00  0.00    +0.267 A 
ATOM     10  O   UNL     1      -0.655  -0.604  -0.169  0.00  0.00    -0.267 OA
ATOM     11  N   UNL     1      -2.163  -2.200   0.234  0.00  0.00    -0.267 N 
ATOM     12  C   UNL     1      -1.183  -3.144   0.320  0.00  0.00    +0.099 A 
ENDROOT
BRANCH   8  13
ATOM     13  C   UNL     1      -2.538   1.411  -0.370  0.00  0.00    +0.037 C 
ATOM     14  C   UNL     1      -3.091   2.041  -1.447  0.00  0.00    +0.077 C 
ATOM     15  C   UNL     1      -3.888   1.506  -2.499  0.00  0.00    +0.259 C 
ATOM     16  O   UNL     1      -4.172   0.321  -2.529  0.00  0.00    -0.269 OA
ATOM     17  N   UNL     1      -4.316   2.331  -3.438  0.00  0.00    -0.251 N 
ATOM     18  C   UNL     1      -4.002   3.645  -3.404  0.00  0.00    +0.121 C 
ATOM     19  S   UNL     1      -4.441   4.883  -4.502  0.00  0.00    -0.027 S 
ATOM     20  S   UNL     1      -3.011   3.763  -1.922  0.00  0.00    -0.061 S 
BRANCH  17  21
ATOM     21  C   UNL     1      -5.142   1.814  -4.532  0.00  0.00    +0.105 C 
ATOM     22  C   UNL     1      -6.506   2.525  -4.532  0.00  0.00    +0.047 C 
ATOM     23  C   UNL     1      -7.255   2.227  -5.854  0.00  0.00    +0.168 C 
ATOM     24  S   UNL     1      -5.881   1.942  -7.042  0.00  0.00    -0.029 S 
ATOM     25  O   UNL     1      -5.950   0.604  -7.516  0.00  0.00    -0.174 OA
ATOM     26  O   UNL     1      -5.846   3.014  -7.974  0.00  0.00    -0.174 OA
ATOM     27  C   UNL     1      -4.448   2.097  -5.894  0.00  0.00    +0.188 C 
ENDBRANCH  17  21
ENDBRANCH   8  13
BRANCH   7  28
ATOM     28  N   UNL     1      -5.213   0.557   0.007  0.00  0.00    -0.314 N 
ATOM     29  C   UNL     1      -5.117   1.541   1.093  0.00  0.00    +0.106 C 
ATOM     30  C   UNL     1      -6.183   2.622   0.898  0.00  0.00    +0.019 C 
ATOM     31  C   UNL     1      -7.569   1.972   0.894  0.00  0.00    +0.006 C 
ATOM     32  C   UNL     1      -7.625   0.917  -0.215  0.00  0.00    +0.003 C 
ATOM     33  C   UNL     1      -6.519  -0.115   0.012  0.00  0.00    +0.109 C 
ATOM     34  C   UNL     1      -8.987   0.221  -0.188  0.00  0.00    +0.009 C 
ENDBRANCH   7  28
TORSDOF 3
