REMARK  Name = ZINC35427370
REMARK  5 active torsions:
REMARK  status: ('A' for Active; 'I' for Inactive)
REMARK    1  A    between atoms: C_1  and  C_2
REMARK    2  A    between atoms: C_5  and  N_9
REMARK    3  A    between atoms: C_6  and  C_8
REMARK    4  A    between atoms: C_24  and  C_26
REMARK    5  A    between atoms: N_34  and  C_37
REMARK                            x       y       z     vdW  Elec       q    Type
REMARK                         _______ _______ _______ _____ _____    ______ ____
ROOT
ATOM      1  N   UNL     1       0.048  -3.702  -0.695  0.00  0.00    -0.269 N 
ATOM      2  C   UNL     1      -0.017  -4.615  -1.685  0.00  0.00    +0.308 C 
ATOM      3  O   UNL     1       0.050  -4.258  -2.845  0.00  0.00    -0.252 OA
ATOM      4  N   UNL     1      -0.158  -5.922  -1.388  0.00  0.00    -0.268 N 
ATOM      5  C   UNL     1      -0.250  -6.392   0.006  0.00  0.00    +0.148 C 
ATOM      6  C   UNL     1      -1.261  -7.502   0.184  0.00  0.00    +0.004 A 
ATOM      7  C   UNL     1      -2.473  -7.336   0.879  0.00  0.00    -0.034 A 
ATOM      8  C   UNL     1      -3.294  -8.416   0.993  0.00  0.00    -0.021 A 
ATOM      9  S   UNL     1      -2.425  -9.700   0.133  0.00  0.00    -0.077 S 
ATOM     10  C   UNL     1      -1.022  -8.735  -0.342  0.00  0.00    +0.090 A 
ATOM     11  N   UNL     1       0.101  -9.057  -1.094  0.00  0.00    -0.312 N 
ATOM     12  C   UNL     1       0.937 -10.120  -1.045  0.00  0.00    +0.092 A 
ATOM     13  C   UNL     1       1.921  -9.920  -1.952  0.00  0.00    +0.020 A 
ATOM     14  C   UNL     1       1.662  -8.690  -2.595  0.00  0.00    +0.025 A 
ATOM     15  C   UNL     1       0.532  -8.193  -2.072  0.00  0.00    +0.049 A 
ATOM     16  C   UNL     1      -0.234  -6.955  -2.449  0.00  0.00    +0.155 C 
ATOM     17  C   UNL     1      -4.613  -8.470   1.690  0.00  0.00    -0.036 C 
ATOM     18  N   UNL     1      -4.732  -7.277   2.550  0.00  0.00    +0.381 N 
ATOM     19  C   UNL     1      -4.407  -6.077   1.768  0.00  0.00    -0.074 C 
ATOM     20  C   UNL     1      -2.901  -6.008   1.501  0.00  0.00    +0.018 C 
ATOM     21  C   UNL     1      -6.107  -7.174   3.057  0.00  0.00    -0.096 C 
ATOM     22  H   UNL     1       0.062  -3.991   0.231  0.00  0.00    +0.156 HD
ATOM     23  H   UNL     1      -4.092  -7.356   3.326  0.00  0.00    -0.082 HD
ENDROOT
BRANCH   1  28
ATOM     24  C   UNL     1       0.241   1.829  -1.944  0.00  0.00    +0.044 C 
ATOM     25  C   UNL     1       0.190   0.359  -1.613  0.00  0.00    -0.050 A 
ATOM     26  C   UNL     1       0.700  -0.567  -2.503  0.00  0.00    +0.005 A 
ATOM     27  C   UNL     1       0.655  -1.914  -2.202  0.00  0.00    +0.024 A 
ATOM     28  C   UNL     1       0.096  -2.338  -1.003  0.00  0.00    +0.038 A 
ATOM     29  C   UNL     1      -0.415  -1.405  -0.111  0.00  0.00    -0.029 A 
ATOM     30  C   UNL     1      -0.362  -0.059  -0.416  0.00  0.00    +0.008 A 
ATOM     31  C   UNL     1      -1.023  -1.860   1.191  0.00  0.00    +0.045 C 
ENDBRANCH   1  28
BRANCH  16  32
ATOM     32  C   UNL     1      -1.679  -7.317  -2.679  0.00  0.00    -0.020 A 
ATOM     33  C   UNL     1      -2.674  -6.398  -2.404  0.00  0.00    +0.006 A 
ATOM     34  C   UNL     1      -3.999  -6.729  -2.614  0.00  0.00    +0.002 A 
ATOM     35  C   UNL     1      -4.330  -7.981  -3.100  0.00  0.00    +0.020 A 
ATOM     36  C   UNL     1      -3.335  -8.901  -3.375  0.00  0.00    +0.041 A 
ATOM     37  C   UNL     1      -2.008  -8.566  -3.169  0.00  0.00    +0.025 A 
ATOM     38 CL   UNL     1      -3.750 -10.473  -3.984  0.00  0.00    -0.084 Cl
ENDBRANCH  16  32
TORSDOF 2
