REMARK  Name = ZINC12467439
REMARK  15 active torsions:
REMARK  status: ('A' for Active; 'I' for Inactive)
REMARK    1  A    between atoms: C_1  and  C_2
REMARK    2  A    between atoms: C_5  and  C_7
REMARK    3  A    between atoms: C_7  and  C_9
REMARK    4  A    between atoms: C_7  and  N_16
REMARK    5  A    between atoms: N_11  and  C_12
REMARK    6  A    between atoms: C_12  and  C_13
REMARK    7  A    between atoms: C_13  and  O_14
REMARK    8  A    between atoms: O_14  and  C_15
REMARK    9  A    between atoms: N_16  and  C_17
REMARK   10  A    between atoms: C_20  and  C_23
REMARK   11  A    between atoms: C_23  and  C_24
REMARK   12  A    between atoms: C_23  and  C_25
REMARK   13  A    between atoms: C_26  and  C_28
REMARK   14  A    between atoms: C_29  and  N_36
REMARK   15  A    between atoms: C_30  and  C_33
REMARK                            x       y       z     vdW  Elec       q    Type
REMARK                         _______ _______ _______ _____ _____    ______ ____
ROOT
ATOM      1  N   UNL     1      -3.624   1.531  -0.013  0.00  0.00    -0.248 N 
ATOM      2  C   UNL     1      -3.933   2.218  -1.130  0.00  0.00    +0.262 C 
ATOM      3  O   UNL     1      -3.080   2.426  -1.972  0.00  0.00    -0.269 OA
ENDROOT
BRANCH   1   4
ATOM      4  C   UNL     1      -4.627   1.198   0.903  0.00  0.00    +0.038 A 
ATOM      5  C   UNL     1      -5.059   2.135   1.834  0.00  0.00    +0.024 A 
ATOM      6  C   UNL     1      -6.053   1.805   2.733  0.00  0.00    +0.006 A 
ATOM      7  C   UNL     1      -6.611   0.540   2.716  0.00  0.00    -0.045 A 
ATOM      8  C   UNL     1      -6.180  -0.397   1.795  0.00  0.00    +0.006 A 
ATOM      9  C   UNL     1      -5.190  -0.071   0.889  0.00  0.00    +0.024 A 
BRANCH   7  10
ATOM     10  C   UNL     1      -7.692   0.181   3.704  0.00  0.00    +0.013 C 
ATOM     11  C   UNL     1      -7.151   0.328   5.127  0.00  0.00    +0.012 C 
ATOM     12  C   UNL     1      -8.887   1.116   3.513  0.00  0.00    +0.012 C 
ENDBRANCH   7  10
ENDBRANCH   1   4
BRANCH   2  13
ATOM     13  C   UNL     1      -5.296   2.715  -1.331  0.00  0.00    +0.116 A 
ATOM     14  C   UNL     1      -5.860   3.323  -2.454  0.00  0.00    +0.076 A 
ATOM     15  C   UNL     1      -7.199   3.660  -2.262  0.00  0.00    +0.155 A 
ATOM     16  N   UNL     1      -7.773   3.390  -1.110  0.00  0.00    -0.203 NA
ATOM     17  S   UNL     1      -6.680   2.698  -0.210  0.00  0.00    +0.019 S 
BRANCH  15  18
ATOM     18  C   UNL     1      -7.965   4.314  -3.340  0.00  0.00    +0.262 C 
ATOM     19  O   UNL     1      -7.428   4.561  -4.403  0.00  0.00    -0.269 OA
ATOM     20  N   UNL     1      -9.259   4.636  -3.147  0.00  0.00    -0.324 N 
ATOM     21  H   UNL     1      -9.687   4.439  -2.300  0.00  0.00    +0.145 HD
ATOM     22  H   UNL     1      -9.762   5.066  -3.857  0.00  0.00    +0.145 HD
ENDBRANCH  15  18
BRANCH  14  23
ATOM     23  N   UNL     1      -5.164   3.565  -3.631  0.00  0.00    -0.355 N 
ATOM     24  H   UNL     1      -4.232   3.308  -3.705  0.00  0.00    +0.142 HD
ATOM     25  H   UNL     1      -5.610   3.992  -4.379  0.00  0.00    +0.142 HD
ENDBRANCH  14  23
ENDBRANCH   2  13
BRANCH   1  26
ATOM     26  C   UNL     1      -2.238   1.133   0.242  0.00  0.00    +0.233 C 
BRANCH  26  31
ATOM     27  C   UNL     1      -1.650  -1.169  -4.207  0.00  0.00    +0.086 C 
ATOM     28  C   UNL     1      -1.546  -0.866  -2.735  0.00  0.00    +0.102 A 
ATOM     29  C   UNL     1      -0.882  -1.601  -1.825  0.00  0.00    +0.045 A 
ATOM     30  C   UNL     1      -1.042  -0.953  -0.578  0.00  0.00    +0.047 A 
ATOM     31  C   UNL     1      -1.802   0.135  -0.800  0.00  0.00    +0.135 A 
ATOM     32  O   UNL     1      -2.102   0.184  -2.108  0.00  0.00    -0.462 OA
ENDBRANCH  26  31
BRANCH  26  33
ATOM     33  C   UNL     1      -1.347   2.346   0.179  0.00  0.00    +0.242 C 
ATOM     34  O   UNL     1      -1.823   3.437  -0.055  0.00  0.00    -0.273 OA
ATOM     35  N   UNL     1      -0.021   2.220   0.384  0.00  0.00    -0.311 N 
ATOM     36  H   UNL     1       0.360   1.348   0.572  0.00  0.00    +0.149 HD
BRANCH  35  37
ATOM     37  C   UNL     1       0.847   3.399   0.317  0.00  0.00    +0.132 C 
BRANCH  37  38
ATOM     38  C   UNL     1       2.295   2.982   0.578  0.00  0.00    +0.178 C 
BRANCH  38  39
ATOM     39  O   UNL     1       2.741   2.124  -0.475  0.00  0.00    -0.381 OA
ATOM     40  C   UNL     1       4.090   1.675  -0.327  0.00  0.00    +0.194 C 
ENDBRANCH  38  39
ENDBRANCH  37  38
ENDBRANCH  35  37
ENDBRANCH  26  33
ENDBRANCH   1  26
TORSDOF 11
