REMARK  Name = ZINC06821925
REMARK  10 active torsions:
REMARK  status: ('A' for Active; 'I' for Inactive)
REMARK    1  A    between atoms: C_1  and  C_2
REMARK    2  A    between atoms: C_2  and  C_3
REMARK    3  A    between atoms: C_6  and  N_9
REMARK    4  A    between atoms: N_9  and  C_10
REMARK    5  A    between atoms: C_10  and  C_11
REMARK    6  A    between atoms: N_13  and  C_14
REMARK    7  A    between atoms: C_14  and  C_15
REMARK    8  A    between atoms: C_22  and  C_24
REMARK    9  A    between atoms: C_25  and  N_32
REMARK   10  A    between atoms: C_26  and  C_29
REMARK                            x       y       z     vdW  Elec       q    Type
REMARK                         _______ _______ _______ _____ _____    ______ ____
ROOT
ATOM      1  N   UNL     1      -0.330   1.339  -4.910  0.00  0.00    -0.258 N 
ATOM      2  C   UNL     1       0.206   2.406  -5.535  0.00  0.00    +0.261 C 
ATOM      3  O   UNL     1       0.527   3.389  -4.893  0.00  0.00    -0.269 OA
ENDROOT
BRANCH   1   7
ATOM      4  C   UNL     1      -1.116  -2.148  -7.049  0.00  0.00    -0.048 A 
ATOM      5  C   UNL     1       0.155  -1.910  -6.560  0.00  0.00    +0.005 A 
ATOM      6  C   UNL     1       0.419  -0.755  -5.850  0.00  0.00    +0.024 A 
ATOM      7  C   UNL     1      -0.594   0.168  -5.628  0.00  0.00    +0.037 A 
ATOM      8  C   UNL     1      -1.871  -0.076  -6.117  0.00  0.00    +0.024 A 
ATOM      9  C   UNL     1      -2.127  -1.230  -6.830  0.00  0.00    +0.005 A 
BRANCH   4  11
ATOM     10  C   UNL     1      -1.843  -4.511  -6.859  0.00  0.00    +0.009 C 
ATOM     11  C   UNL     1      -1.400  -3.409  -7.824  0.00  0.00    +0.032 C 
ENDBRANCH   4  11
ENDBRANCH   1   7
BRANCH   2  12
ATOM     12  C   UNL     1       0.402   2.383  -6.985  0.00  0.00    +0.116 A 
ATOM     13  C   UNL     1       0.938   3.365  -7.822  0.00  0.00    +0.076 A 
ATOM     14  C   UNL     1       0.964   2.970  -9.159  0.00  0.00    +0.155 A 
ATOM     15  N   UNL     1       0.499   1.786  -9.490  0.00  0.00    -0.203 NA
ATOM     16  S   UNL     1       0.015   1.099  -8.157  0.00  0.00    +0.019 S 
BRANCH  14  17
ATOM     17  C   UNL     1       1.500   3.875 -10.192  0.00  0.00    +0.262 C 
ATOM     18  O   UNL     1       1.928   4.970  -9.880  0.00  0.00    -0.269 OA
ATOM     19  N   UNL     1       1.517   3.489 -11.484  0.00  0.00    -0.324 N 
ATOM     20  H   UNL     1       1.176   2.616 -11.733  0.00  0.00    +0.145 HD
ATOM     21  H   UNL     1       1.870   4.084 -12.163  0.00  0.00    +0.145 HD
ENDBRANCH  14  17
BRANCH  13  22
ATOM     22  N   UNL     1       1.398   4.595  -7.371  0.00  0.00    -0.355 N 
ATOM     23  H   UNL     1       1.357   4.812  -6.426  0.00  0.00    +0.142 HD
ATOM     24  H   UNL     1       1.760   5.237  -8.001  0.00  0.00    +0.142 HD
ENDBRANCH  13  22
ENDBRANCH   2  12
BRANCH   1  25
ATOM     25  C   UNL     1      -0.637   1.405  -3.479  0.00  0.00    +0.209 C 
BRANCH  25  26
ATOM     26  C   UNL     1       0.561   0.950  -2.687  0.00  0.00    +0.231 C 
ATOM     27  O   UNL     1       1.571   0.603  -3.261  0.00  0.00    -0.274 OA
ATOM     28  N   UNL     1       0.509   0.926  -1.341  0.00  0.00    -0.310 N 
ATOM     29  H   UNL     1      -0.299   1.204  -0.881  0.00  0.00    +0.149 HD
BRANCH  28  30
ATOM     30  C   UNL     1       1.674   0.483  -0.570  0.00  0.00    +0.139 C 
BRANCH  30  31
ATOM     31  C   UNL     1       1.358   0.552   0.902  0.00  0.00    -0.030 A 
ATOM     32  C   UNL     1       1.624   1.707   1.612  0.00  0.00    +0.008 A 
ATOM     33  C   UNL     1       1.331   1.773   2.961  0.00  0.00    +0.038 A 
ATOM     34  C   UNL     1       0.780   0.677   3.603  0.00  0.00    +0.123 A 
ATOM     35  C   UNL     1       0.518  -0.482   2.892  0.00  0.00    +0.038 A 
ATOM     36  C   UNL     1       0.808  -0.543   1.542  0.00  0.00    +0.008 A 
ATOM     37  F   UNL     1       0.497   0.738   4.923  0.00  0.00    -0.205 F 
ENDBRANCH  30  31
ENDBRANCH  28  30
ENDBRANCH  25  26
ENDBRANCH   1  25
TORSDOF 9
