REMARK  Name = ZINC39293332
REMARK  5 active torsions:
REMARK  status: ('A' for Active; 'I' for Inactive)
REMARK    1  A    between atoms: C_1  and  O_2
REMARK    2  A    between atoms: O_2  and  C_3
REMARK    3  A    between atoms: N_23  and  C_24
REMARK    4  A    between atoms: C_24  and  C_25
REMARK    5  A    between atoms: C_33  and  O_36
REMARK                            x       y       z     vdW  Elec       q    Type
REMARK                         _______ _______ _______ _____ _____    ______ ____
ROOT
ATOM      1  C   UNL     1      -0.699  -1.194  -0.485  0.00  0.00    +0.162 A 
ATOM      2  C   UNL     1      -1.757  -0.288  -0.468  0.00  0.00    +0.050 A 
ATOM      3  C   UNL     1      -3.079  -0.694  -0.355  0.00  0.00    +0.009 A 
ATOM      4  C   UNL     1      -3.381  -2.026  -0.229  0.00  0.00    -0.022 A 
ATOM      5  C   UNL     1      -2.337  -2.930  -0.172  0.00  0.00    +0.016 A 
ATOM      6  C   UNL     1      -1.002  -2.550  -0.360  0.00  0.00    +0.167 A 
ATOM      7  O   UNL     1      -0.202  -3.650  -0.453  0.00  0.00    -0.484 OA
ATOM      8  C   UNL     1      -0.865  -4.705   0.206  0.00  0.00    +0.191 C 
ATOM      9  C   UNL     1      -2.366  -4.408  -0.004  0.00  0.00    +0.056 C 
ATOM     10  C   UNL     1      -2.892  -5.020  -1.309  0.00  0.00    +0.038 C 
ATOM     11  C   UNL     1      -4.414  -4.883  -1.314  0.00  0.00    +0.108 C 
ATOM     12  N   UNL     1      -4.899  -3.515  -1.325  0.00  0.00    -0.311 N 
ATOM     13  C   UNL     1      -4.778  -2.615  -0.161  0.00  0.00    +0.142 C 
ATOM     14  C   UNL     1      -5.501  -3.034  -2.476  0.00  0.00    +0.126 A 
ATOM     15  C   UNL     1      -5.429  -3.758  -3.668  0.00  0.00    +0.061 A 
ATOM     16  C   UNL     1      -6.045  -3.240  -4.791  0.00  0.00    +0.089 A 
ATOM     17  N   UNL     1      -6.680  -2.080  -4.705  0.00  0.00    -0.334 N 
ATOM     18  C   UNL     1      -6.732  -1.415  -3.561  0.00  0.00    +0.195 A 
ATOM     19  N   UNL     1      -6.160  -1.880  -2.460  0.00  0.00    -0.201 NA
ATOM     20  N   UNL     1      -7.405  -0.207  -3.512  0.00  0.00    -0.311 N 
ATOM     21  C   UNL     1      -3.048  -5.012   1.180  0.00  0.00    -0.013 C 
ATOM     22  C   UNL     1      -2.655  -6.251   1.446  0.00  0.00    +0.001 C 
ATOM     23  C   UNL     1      -1.663  -7.007   0.622  0.00  0.00    +0.141 C 
ATOM     24  C   UNL     1      -0.630  -6.147  -0.125  0.00  0.00    +0.081 C 
ATOM     25  H   UNL     1      -7.450   0.290  -2.680  0.00  0.00    +0.149 HD
ATOM     26  H   UNL     1      -7.114  -1.713  -5.492  0.00  0.00    +0.168 HD
ENDROOT
BRANCH   1  28
ATOM     27  C   UNL     1       0.796   0.638  -0.745  0.00  0.00    +0.277 C 
ATOM     28  O   UNL     1       0.586  -0.771  -0.624  0.00  0.00    -0.491 OA
ENDBRANCH   1  28
BRANCH  23  29
ATOM     29  O   UNL     1      -0.979  -7.928   1.474  0.00  0.00    -0.388 OA
ATOM     30  H   UNL     1      -1.559  -8.572   1.903  0.00  0.00    +0.210 HD
ENDBRANCH  23  29
BRANCH  20  31
ATOM     31  C   UNL     1      -8.050   0.322  -4.717  0.00  0.00    +0.139 C 
BRANCH  31  32
ATOM     32  C   UNL     1      -8.708   1.639  -4.398  0.00  0.00    -0.030 A 
ATOM     33  C   UNL     1     -10.018   1.668  -3.958  0.00  0.00    +0.005 A 
ATOM     34  C   UNL     1     -10.622   2.877  -3.666  0.00  0.00    +0.000 A 
ATOM     35  C   UNL     1      -9.916   4.056  -3.813  0.00  0.00    +0.000 A 
ATOM     36  C   UNL     1      -8.605   4.027  -4.252  0.00  0.00    +0.000 A 
ATOM     37  C   UNL     1      -8.000   2.818  -4.540  0.00  0.00    +0.005 A 
ENDBRANCH  31  32
ENDBRANCH  20  31
TORSDOF 4
