REMARK  Name = ZINC63139548
REMARK  9 active torsions:
REMARK  status: ('A' for Active; 'I' for Inactive)
REMARK    1  A    between atoms: C_1  and  C_2
REMARK    2  A    between atoms: C_2  and  C_4
REMARK    3  A    between atoms: C_2  and  N_12
REMARK    4  A    between atoms: C_4  and  C_5
REMARK    5  A    between atoms: C_5  and  C_6
REMARK    6  A    between atoms: C_32  and  C_34
REMARK    7  A    between atoms: C_37  and  C_40
REMARK    8  A    between atoms: C_40  and  C_41
REMARK    9  A    between atoms: C_40  and  C_42
REMARK                            x       y       z     vdW  Elec       q    Type
REMARK                         _______ _______ _______ _____ _____    ______ ____
ROOT
ATOM      1  N   UNL     1      -1.400  -0.505  -0.403  0.00  0.00    -0.288 N 
ATOM      2  C   UNL     1      -2.138  -0.142   0.795  0.00  0.00    +0.204 C 
ATOM      3  C   UNL     1      -3.505  -0.743   0.819  0.00  0.00    +0.234 C 
ATOM      4  O   UNL     1      -4.207  -0.504   1.779  0.00  0.00    -0.274 OA
ATOM      5  N   UNL     1      -4.010  -1.524  -0.142  0.00  0.00    -0.279 N 
ATOM      6  C   UNL     1      -3.268  -1.866  -1.351  0.00  0.00    +0.167 C 
ATOM      7  C   UNL     1      -1.898  -1.271  -1.372  0.00  0.00    +0.237 C 
ATOM      8  O   UNL     1      -1.193  -1.503  -2.331  0.00  0.00    -0.274 OA
ATOM      9  C   UNL     1      -4.048  -1.402  -2.595  0.00  0.00    +0.065 C 
ATOM     10  C   UNL     1      -5.479  -1.835  -2.390  0.00  0.00    -0.034 C 
ATOM     11  C   UNL     1      -6.312  -2.515  -3.168  0.00  0.00    -0.001 A 
ATOM     12  C   UNL     1      -6.188  -2.998  -4.552  0.00  0.00    +0.010 A 
ATOM     13  C   UNL     1      -7.247  -3.695  -5.042  0.00  0.00    +0.001 A 
ATOM     14  C   UNL     1      -8.405  -3.956  -4.302  0.00  0.00    +0.002 A 
ATOM     15  C   UNL     1      -8.609  -3.541  -3.026  0.00  0.00    +0.026 A 
ATOM     16  C   UNL     1      -7.568  -2.792  -2.405  0.00  0.00    +0.043 A 
ATOM     17  N   UNL     1      -7.507  -2.260  -1.220  0.00  0.00    -0.375 N 
ATOM     18  C   UNL     1      -6.242  -1.533  -1.106  0.00  0.00    +0.131 C 
ATOM     19  C   UNL     1      -5.379  -2.055   0.047  0.00  0.00    +0.133 C 
ATOM     20  H   UNL     1      -8.184  -2.332  -0.530  0.00  0.00    +0.160 HD
ENDROOT
BRANCH  19  21
ATOM     21  C   UNL     1      -5.351  -3.561   0.023  0.00  0.00    -0.025 A 
ATOM     22  C   UNL     1      -4.870  -4.226  -1.089  0.00  0.00    +0.006 A 
ATOM     23  C   UNL     1      -4.844  -5.608  -1.110  0.00  0.00    +0.004 A 
ATOM     24  C   UNL     1      -5.299  -6.325  -0.019  0.00  0.00    -0.045 A 
ATOM     25  C   UNL     1      -5.780  -5.660   1.093  0.00  0.00    +0.004 A 
ATOM     26  C   UNL     1      -5.801  -4.278   1.116  0.00  0.00    +0.006 A 
BRANCH  24  27
ATOM     27  C   UNL     1      -5.272  -7.832  -0.043  0.00  0.00    +0.013 C 
ATOM     28  C   UNL     1      -4.395  -8.344   1.101  0.00  0.00    +0.012 C 
ATOM     29  C   UNL     1      -6.695  -8.370   0.124  0.00  0.00    +0.012 C 
ENDBRANCH  24  27
ENDBRANCH  19  21
BRANCH   1  31
ATOM     30  C   UNL     1      -0.057   1.534  -0.548  0.00  0.00    +0.028 C 
ATOM     31  C   UNL     1      -0.035   0.004  -0.556  0.00  0.00    +0.074 C 
BRANCH  31  32
ATOM     32  C   UNL     1       0.830  -0.499   0.602  0.00  0.00    +0.027 C 
BRANCH  32  33
ATOM     33  C   UNL     1       0.954  -2.022   0.521  0.00  0.00    +0.037 C 
BRANCH  33  34
ATOM     34  C   UNL     1       1.806  -2.518   1.661  0.00  0.00    -0.047 A 
ATOM     35  C   UNL     1       3.176  -2.624   1.505  0.00  0.00    +0.003 A 
ATOM     36  C   UNL     1       3.957  -3.078   2.551  0.00  0.00    +0.000 A 
ATOM     37  C   UNL     1       3.369  -3.427   3.753  0.00  0.00    +0.000 A 
ATOM     38  C   UNL     1       1.999  -3.320   3.909  0.00  0.00    +0.000 A 
ATOM     39  C   UNL     1       1.218  -2.861   2.864  0.00  0.00    +0.003 A 
ENDBRANCH  33  34
ENDBRANCH  32  33
ENDBRANCH  31  32
ENDBRANCH   1  31
TORSDOF 6
