REMARK  Name = ZINC36163951
REMARK  4 active torsions:
REMARK  status: ('A' for Active; 'I' for Inactive)
REMARK    1  A    between atoms: C_3  and  C_9
REMARK    2  A    between atoms: C_5  and  C_7
REMARK    3  A    between atoms: C_9  and  N_10
REMARK    4  A    between atoms: N_26  and  C_27
REMARK                            x       y       z     vdW  Elec       q    Type
REMARK                         _______ _______ _______ _____ _____    ______ ____
ROOT
ATOM      1  N   UNL     1       4.104   2.441   1.355  0.00  0.00    -0.264 N 
ATOM      2  C   UNL     1       3.726   3.565   2.094  0.00  0.00    +0.043 A 
ATOM      3  C   UNL     1       2.916   4.646   1.756  0.00  0.00    +0.027 A 
ATOM      4  C   UNL     1       2.684   5.654   2.668  0.00  0.00    +0.040 A 
ATOM      5  C   UNL     1       3.255   5.600   3.929  0.00  0.00    +0.124 A 
ATOM      6  C   UNL     1       4.062   4.528   4.273  0.00  0.00    +0.047 A 
ATOM      7  C   UNL     1       4.295   3.520   3.365  0.00  0.00    +0.019 A 
ATOM      8  C   UNL     1       5.091   2.250   3.406  0.00  0.00    +0.189 C 
ATOM      9  C   UNL     1       4.905   1.616   2.059  0.00  0.00    +0.259 C 
ATOM     10  O   UNL     1       5.383   0.568   1.678  0.00  0.00    -0.272 OA
ATOM     11  N   UNL     1       6.495   2.467   3.747  0.00  0.00    -0.258 N 
ATOM     12  C   UNL     1       6.934   1.900   5.023  0.00  0.00    +0.122 C 
ATOM     13  C   UNL     1       6.133   0.606   5.359  0.00  0.00    +0.091 C 
ATOM     14  S   UNL     1       4.476   1.140   4.730  0.00  0.00    -0.120 S 
ATOM     15  C   UNL     1       7.333   3.146   2.938  0.00  0.00    +0.308 C 
ATOM     16  O   UNL     1       6.926   3.601   1.886  0.00  0.00    -0.252 OA
ATOM     17  N   UNL     1       8.620   3.321   3.295  0.00  0.00    -0.269 N 
ATOM     18  F   UNL     1       3.027   6.590   4.819  0.00  0.00    -0.205 F 
ATOM     19  H   UNL     1       8.928   3.018   4.163  0.00  0.00    +0.156 HD
ENDROOT
BRANCH  17  20
ATOM     20  C   UNL     1       9.514   3.941   2.412  0.00  0.00    +0.035 A 
ATOM     21  C   UNL     1      10.838   3.525   2.358  0.00  0.00    +0.026 A 
ATOM     22  C   UNL     1      11.717   4.136   1.486  0.00  0.00    +0.040 A 
ATOM     23  C   UNL     1      11.280   5.164   0.667  0.00  0.00    +0.124 A 
ATOM     24  C   UNL     1       9.960   5.580   0.720  0.00  0.00    +0.040 A 
ATOM     25  C   UNL     1       9.076   4.967   1.586  0.00  0.00    +0.026 A 
ATOM     26  F   UNL     1      12.142   5.761  -0.185  0.00  0.00    -0.205 F 
ENDBRANCH  17  20
BRANCH   1  27
ATOM     27  C   UNL     1       3.675   2.185  -0.022  0.00  0.00    +0.149 C 
BRANCH  27  30
ATOM     28  C   UNL     1      -0.013   1.358   0.010  0.00  0.00    +0.002 A 
ATOM     29  C   UNL     1       1.174   2.069  -0.001  0.00  0.00    +0.005 A 
ATOM     30  C   UNL     1       2.387   1.403  -0.010  0.00  0.00    -0.028 A 
ATOM     31  C   UNL     1       2.419   0.023  -0.009  0.00  0.00    +0.024 A 
ATOM     32  C   UNL     1       1.225  -0.700   0.002  0.00  0.00    +0.052 A 
ATOM     33  C   UNL     1       0.005  -0.021   0.011  0.00  0.00    +0.019 A 
BRANCH  32  34
ATOM     34  C   UNL     1       1.251  -2.132   0.003  0.00  0.00    +0.099 C 
ATOM     35  N   UNL     1       1.272  -3.268   0.004  0.00  0.00    -0.191 NA
ENDBRANCH  32  34
ENDBRANCH  27  30
ENDBRANCH   1  27
TORSDOF 4
