REMARK  Name = ZINC36157222
REMARK  16 active torsions:
REMARK  status: ('A' for Active; 'I' for Inactive)
REMARK    1  A    between atoms: C_1  and  O_2
REMARK    2  A    between atoms: O_2  and  C_3
REMARK    3  A    between atoms: C_3  and  C_4
REMARK    4  A    between atoms: C_4  and  N_5
REMARK    5  A    between atoms: N_5  and  C_6
REMARK    6  A    between atoms: N_5  and  C_12
REMARK    7  A    between atoms: C_6  and  C_7
REMARK    8  A    between atoms: C_12  and  C_13
REMARK    9  A    between atoms: C_16  and  C_18
REMARK   10  A    between atoms: C_18  and  C_19
REMARK   11  A    between atoms: C_18  and  C_23
REMARK   12  A    between atoms: C_18  and  O_27
REMARK   13  A    between atoms: C_19  and  C_20
REMARK   14  A    between atoms: C_20  and  C_21
REMARK   15  A    between atoms: C_23  and  C_24
REMARK   16  A    between atoms: C_24  and  C_25
REMARK                            x       y       z     vdW  Elec       q    Type
REMARK                         _______ _______ _______ _____ _____    ______ ____
ROOT
ATOM      1  C   UNL     1      -0.227  -2.385   2.785  0.00  0.00    +0.089 A 
ATOM      2  C   UNL     1      -0.478  -2.827   4.030  0.00  0.00    +0.043 A 
ATOM      3  C   UNL     1       0.774  -2.999   4.664  0.00  0.00    +0.048 A 
ATOM      4  C   UNL     1       1.716  -2.652   3.768  0.00  0.00    +0.137 A 
ATOM      5  O   UNL     1       1.103  -2.286   2.630  0.00  0.00    -0.464 OA
ENDROOT
BRANCH   1   6
ATOM      6  C   UNL     1      -1.263  -2.061   1.739  0.00  0.00    -0.002 C 
BRANCH   6   7
ATOM      7  N   UNL     1      -1.753  -0.692   1.943  0.00  0.00    +0.391 N 
ATOM      8  H   UNL     1      -2.085  -0.591   2.890  0.00  0.00    -0.081 HD
BRANCH   7   9
ATOM      9  C   UNL     1      -0.660   0.260   1.703  0.00  0.00    -0.049 C 
BRANCH   9  10
ATOM     10  C   UNL     1      -1.135   1.676   2.035  0.00  0.00    +0.141 C 
BRANCH  10  12
ATOM     11  C   UNL     1      -1.870   3.058   3.851  0.00  0.00    +0.193 C 
ATOM     12  O   UNL     1      -1.416   1.768   3.433  0.00  0.00    -0.385 OA
ENDBRANCH  10  12
ENDBRANCH   9  10
ENDBRANCH   7   9
BRANCH   7  13
ATOM     13  C   UNL     1      -2.852  -0.420   1.007  0.00  0.00    -0.002 C 
BRANCH  13  14
ATOM     14  C   UNL     1      -4.017  -1.322   1.325  0.00  0.00    +0.089 A 
ATOM     15  C   UNL     1      -5.041  -1.025   2.145  0.00  0.00    +0.042 A 
ATOM     16  C   UNL     1      -5.899  -2.148   2.152  0.00  0.00    +0.041 A 
ATOM     17  C   UNL     1      -5.348  -3.065   1.336  0.00  0.00    +0.195 A 
ATOM     18  O   UNL     1      -4.211  -2.557   0.834  0.00  0.00    -0.470 OA
ENDBRANCH  13  14
ENDBRANCH   7  13
ENDBRANCH   6   7
ENDBRANCH   1   6
BRANCH   4  19
ATOM     19  C   UNL     1       3.204  -2.675   3.999  0.00  0.00    +0.124 C 
BRANCH  19  20
ATOM     20  O   UNL     1       3.524  -3.702   4.940  0.00  0.00    -0.381 OA
ATOM     21  H   UNL     1       3.266  -4.590   4.656  0.00  0.00    +0.211 HD
ENDBRANCH  19  20
BRANCH  19  22
ATOM     22  C   UNL     1       3.922  -2.952   2.677  0.00  0.00    +0.047 C 
BRANCH  22  23
ATOM     23  C   UNL     1       5.433  -2.992   2.916  0.00  0.00    +0.030 C 
BRANCH  23  24
ATOM     24  C   UNL     1       6.143  -3.212   1.605  0.00  0.00    -0.034 C 
ATOM     25  C   UNL     1       7.069  -2.372   1.213  0.00  0.00    +0.004 C 
ENDBRANCH  23  24
ENDBRANCH  22  23
ENDBRANCH  19  22
BRANCH  19  26
ATOM     26  C   UNL     1       3.655  -1.320   4.551  0.00  0.00    +0.047 C 
BRANCH  26  27
ATOM     27  C   UNL     1       2.913  -1.028   5.856  0.00  0.00    +0.030 C 
BRANCH  27  28
ATOM     28  C   UNL     1       3.315   0.331   6.369  0.00  0.00    -0.034 C 
ATOM     29  C   UNL     1       2.400   1.234   6.621  0.00  0.00    +0.004 C 
ENDBRANCH  27  28
ENDBRANCH  26  27
ENDBRANCH  19  26
ENDBRANCH   4  19
TORSDOF 15
