REMARK  Name = ZINC39352304
REMARK  4 active torsions:
REMARK  status: ('A' for Active; 'I' for Inactive)
REMARK    1  A    between atoms: C_1  and  C_2
REMARK    2  A    between atoms: C_8  and  C_18
REMARK    3  A    between atoms: C_10  and  C_16
REMARK    4  A    between atoms: C_11  and  N_15
REMARK                            x       y       z     vdW  Elec       q    Type
REMARK                         _______ _______ _______ _____ _____    ______ ____
ROOT
ATOM      1  C   UNL     1      -0.018   1.503   0.010  0.00  0.00    +0.063 C 
ATOM      2  C   UNL     1       0.002  -0.004   0.002  0.00  0.00    +0.034 C 
ATOM      3  N   UNL     1       0.005  -0.613  -1.159  0.00  0.00    -0.185 NA
ATOM      4  C   UNL     1       0.012  -1.942  -1.288  0.00  0.00    +0.248 C 
ATOM      5  O   UNL     1       0.033  -2.462  -2.386  0.00  0.00    -0.273 OA
ATOM      6  C   UNL     1      -0.006  -2.784  -0.028  0.00  0.00    +0.155 C 
ATOM      7  C   UNL     1       1.269  -3.632  -0.033  0.00  0.00    +0.084 C 
ATOM      8  C   UNL     1       1.459  -4.272   1.315  0.00  0.00    +0.095 C 
ATOM      9  C   UNL     1       0.886  -3.797   2.442  0.00  0.00    +0.198 C 
ATOM     10  O   UNL     1       0.078  -2.711   2.430  0.00  0.00    -0.445 OA
ATOM     11  C   UNL     1       0.000  -2.014   1.283  0.00  0.00    +0.122 C 
ATOM     12  C   UNL     1       0.023  -0.667   1.232  0.00  0.00    +0.063 C 
ENDROOT
BRANCH   7  13
ATOM     13  C   UNL     1       2.454  -2.754  -0.341  0.00  0.00    -0.037 A 
ATOM     14  C   UNL     1       2.765  -1.696   0.493  0.00  0.00    +0.006 A 
ATOM     15  C   UNL     1       3.851  -0.889   0.211  0.00  0.00    +0.022 A 
ATOM     16  C   UNL     1       4.629  -1.141  -0.905  0.00  0.00    +0.059 A 
ATOM     17  C   UNL     1       4.318  -2.201  -1.740  0.00  0.00    +0.060 A 
ATOM     18  C   UNL     1       3.233  -3.011  -1.453  0.00  0.00    +0.025 A 
ATOM     19 CL   UNL     1       5.292  -2.518  -3.141  0.00  0.00    -0.082 Cl
ATOM     20 CL   UNL     1       5.993  -0.128  -1.260  0.00  0.00    -0.082 Cl
ENDBRANCH   7  13
BRANCH   9  21
ATOM     21  N   UNL     1       1.129  -4.434   3.633  0.00  0.00    -0.328 N 
ATOM     22  H   UNL     1       1.705  -5.214   3.658  0.00  0.00    +0.145 HD
ATOM     23  H   UNL     1       0.724  -4.105   4.451  0.00  0.00    +0.145 HD
ENDBRANCH   9  21
BRANCH   8  24
ATOM     24  C   UNL     1       2.285  -5.439   1.407  0.00  0.00    +0.100 C 
ATOM     25  N   UNL     1       2.941  -6.364   1.480  0.00  0.00    -0.191 NA
ENDBRANCH   8  24
TORSDOF 3
