REMARK  Name = ZINC57493250
REMARK  4 active torsions:
REMARK  status: ('A' for Active; 'I' for Inactive)
REMARK    1  A    between atoms: C_1  and  C_2
REMARK    2  A    between atoms: C_7  and  N_8
REMARK    3  A    between atoms: N_16  and  C_19
REMARK    4  A    between atoms: C_19  and  C_20
REMARK                            x       y       z     vdW  Elec       q    Type
REMARK                         _______ _______ _______ _____ _____    ______ ____
ROOT
ATOM      1  N   UNL     1       0.023   0.028   2.418  0.00  0.00    -0.228 N 
ATOM      2  C   UNL     1      -1.149   0.317   3.026  0.00  0.00    +0.275 A 
ATOM      3  O   UNL     1      -2.207   0.002   2.511  0.00  0.00    -0.266 OA
ATOM      4  C   UNL     1      -1.129   0.983   4.256  0.00  0.00    +0.101 A 
ATOM      5  C   UNL     1       0.074   1.352   4.863  0.00  0.00    +0.066 A 
ATOM      6  C   UNL     1      -0.091   2.006   6.080  0.00  0.00    +0.034 A 
ATOM      7  C   UNL     1      -1.335   2.224   6.560  0.00  0.00    +0.048 A 
ATOM      8  S   UNL     1      -2.353   1.560   5.398  0.00  0.00    -0.090 S 
ATOM      9  N   UNL     1       1.247   1.017   4.171  0.00  0.00    -0.284 N 
ATOM     10  C   UNL     1       1.187   0.373   2.995  0.00  0.00    +0.337 A 
ATOM     11  O   UNL     1       2.226   0.095   2.427  0.00  0.00    -0.246 OA
ENDROOT
BRANCH   1  18
ATOM     12  C   UNL     1      -0.038   1.593   0.042  0.00  0.00    +0.046 C 
ATOM     13  C   UNL     1      -0.004   0.087   0.002  0.00  0.00    -0.024 A 
ATOM     14  C   UNL     1       0.005  -0.572  -1.212  0.00  0.00    +0.043 A 
ATOM     15  C   UNL     1       0.036  -1.956  -1.250  0.00  0.00    +0.124 A 
ATOM     16  C   UNL     1       0.059  -2.682  -0.071  0.00  0.00    +0.040 A 
ATOM     17  C   UNL     1       0.050  -2.027   1.145  0.00  0.00    +0.029 A 
ATOM     18  C   UNL     1       0.025  -0.639   1.185  0.00  0.00    +0.057 A 
ATOM     19  F   UNL     1       0.043  -2.598  -2.438  0.00  0.00    -0.205 F 
ENDBRANCH   1  18
BRANCH   9  20
ATOM     20  C   UNL     1       2.551   1.369   4.739  0.00  0.00    +0.223 C 
BRANCH  20  21
ATOM     21  C   UNL     1       3.040   0.241   5.610  0.00  0.00    +0.240 C 
ATOM     22  O   UNL     1       2.328  -0.719   5.815  0.00  0.00    -0.273 OA
ATOM     23  N   UNL     1       4.269   0.298   6.160  0.00  0.00    -0.270 N 
ATOM     24  C   UNL     1       5.108   1.492   5.991  0.00  0.00    +0.114 C 
ATOM     25  C   UNL     1       6.528   1.022   5.647  0.00  0.00    +0.024 C 
ATOM     26  C   UNL     1       7.083   0.224   6.826  0.00  0.00    +0.038 C 
ATOM     27  C   UNL     1       6.111  -0.850   7.239  0.00  0.00    -0.026 A 
ATOM     28  C   UNL     1       4.766  -0.777   6.909  0.00  0.00    +0.039 A 
ATOM     29  C   UNL     1       3.893  -1.780   7.315  0.00  0.00    +0.024 A 
ATOM     30  C   UNL     1       4.363  -2.849   8.051  0.00  0.00    +0.002 A 
ATOM     31  C   UNL     1       5.703  -2.922   8.383  0.00  0.00    +0.000 A 
ATOM     32  C   UNL     1       6.577  -1.929   7.971  0.00  0.00    +0.005 A 
ENDBRANCH  20  21
ENDBRANCH   9  20
TORSDOF 3
