REMARK  Name = ZINC13426325
REMARK  6 active torsions:
REMARK  status: ('A' for Active; 'I' for Inactive)
REMARK    1  A    between atoms: C_1  and  C_2
REMARK    2  A    between atoms: C_5  and  C_17
REMARK    3  A    between atoms: N_8  and  C_10
REMARK    4  A    between atoms: N_19  and  C_20
REMARK    5  A    between atoms: C_22  and  C_28
REMARK    6  A    between atoms: C_24  and  C_26
REMARK                            x       y       z     vdW  Elec       q    Type
REMARK                         _______ _______ _______ _____ _____    ______ ____
ROOT
ATOM      1  C   UNL     1       4.457  -2.000   0.400  0.00  0.00    +0.068 C 
ATOM      2  C   UNL     1       3.842  -0.662   0.076  0.00  0.00    +0.069 A 
ATOM      3  C   UNL     1       4.482   0.391  -0.656  0.00  0.00    +0.031 A 
ATOM      4  C   UNL     1       5.706   0.652  -1.290  0.00  0.00    +0.032 A 
ATOM      5  C   UNL     1       5.907   1.854  -1.901  0.00  0.00    +0.077 A 
ATOM      6  S   UNL     1       4.362   2.701  -1.615  0.00  0.00    -0.064 S 
ATOM      7  C   UNL     1       3.531   1.422  -0.709  0.00  0.00    +0.113 A 
ATOM      8  N   UNL     1       2.422   1.019  -0.056  0.00  0.00    -0.225 N 
ATOM      9  N   UNL     1       2.647  -0.280   0.416  0.00  0.00    -0.170 NA
ENDROOT
BRANCH   8  10
ATOM     10  C   UNL     1       1.248   1.766   0.114  0.00  0.00    +0.067 A 
ATOM     11  C   UNL     1       0.013   1.132   0.108  0.00  0.00    +0.030 A 
ATOM     12  C   UNL     1      -1.142   1.871   0.270  0.00  0.00    +0.040 A 
ATOM     13  C   UNL     1      -1.069   3.242   0.450  0.00  0.00    +0.124 A 
ATOM     14  C   UNL     1       0.162   3.877   0.456  0.00  0.00    +0.040 A 
ATOM     15  C   UNL     1       1.319   3.142   0.289  0.00  0.00    +0.030 A 
ATOM     16  F   UNL     1      -2.200   3.962   0.613  0.00  0.00    -0.205 F 
ENDBRANCH   8  10
BRANCH   5  17
ATOM     17  C   UNL     1       7.095   2.332  -2.613  0.00  0.00    +0.255 C 
ATOM     18  O   UNL     1       8.073   1.615  -2.715  0.00  0.00    -0.269 OA
ATOM     19  N   UNL     1       7.104   3.566  -3.157  0.00  0.00    -0.281 N 
ATOM     20  H   UNL     1       6.300   4.108  -3.143  0.00  0.00    +0.155 HD
BRANCH  19  21
ATOM     21  C   UNL     1       8.274   4.064  -3.740  0.00  0.00    +0.035 A 
ATOM     22  C   UNL     1       9.511   3.716  -3.217  0.00  0.00    +0.038 A 
ATOM     23  C   UNL     1      10.680   4.208  -3.801  0.00  0.00    +0.066 A 
ATOM     24  C   UNL     1      10.604   5.058  -4.903  0.00  0.00    +0.030 A 
ATOM     25  C   UNL     1       9.359   5.410  -5.422  0.00  0.00    +0.066 A 
ATOM     26  C   UNL     1       8.194   4.910  -4.837  0.00  0.00    +0.038 A 
BRANCH  25  27
ATOM     27  C   UNL     1       9.273   6.311  -6.590  0.00  0.00    +0.387 C 
ATOM     28  O   UNL     1       8.188   6.617  -7.042  0.00  0.00    -0.241 OA
ATOM     29  O   UNL     1      10.398   6.792  -7.154  0.00  0.00    -0.241 OA
ENDBRANCH  25  27
BRANCH  23  30
ATOM     30  C   UNL     1      11.998   3.832  -3.247  0.00  0.00    +0.387 C 
ATOM     31  O   UNL     1      12.064   3.091  -2.286  0.00  0.00    -0.241 OA
ATOM     32  O   UNL     1      13.125   4.311  -3.807  0.00  0.00    -0.241 OA
ENDBRANCH  23  30
ENDBRANCH  19  21
ENDBRANCH   5  17
TORSDOF 5
