REMARK  Name = ZINC39849763
REMARK  7 active torsions:
REMARK  status: ('A' for Active; 'I' for Inactive)
REMARK    1  A    between atoms: C_1  and  C_2
REMARK    2  A    between atoms: C_5  and  N_9
REMARK    3  A    between atoms: C_6  and  C_8
REMARK    4  A    between atoms: C_10  and  C_12
REMARK    5  A    between atoms: C_12  and  N_13
REMARK    6  A    between atoms: N_25  and  C_28
REMARK    7  A    between atoms: C_28  and  C_29
REMARK                            x       y       z     vdW  Elec       q    Type
REMARK                         _______ _______ _______ _____ _____    ______ ____
ROOT
ATOM      1  N   UNL     1      -0.232  -6.826  -2.567  0.00  0.00    -0.278 N 
ATOM      2  C   UNL     1      -1.465  -6.970  -3.150  0.00  0.00    +0.097 A 
ATOM      3  C   UNL     1      -1.592  -7.427  -4.460  0.00  0.00    +0.074 A 
ATOM      4  C   UNL     1      -2.962  -7.536  -4.960  0.00  0.00    -0.023 A 
ATOM      5  C   UNL     1      -3.916  -7.177  -4.079  0.00  0.00    -0.004 A 
ATOM      6  S   UNL     1      -3.029  -6.706  -2.623  0.00  0.00    -0.075 S 
ATOM      7  C   UNL     1      -5.397  -7.181  -4.303  0.00  0.00    +0.043 C 
ATOM      8  C   UNL     1      -5.655  -7.300  -5.812  0.00  0.00    +0.005 C 
ATOM      9  C   UNL     1      -4.790  -8.430  -6.377  0.00  0.00    +0.005 C 
ATOM     10  C   UNL     1      -3.317  -8.016  -6.360  0.00  0.00    +0.037 C 
ATOM     11  C   UNL     1      -0.327  -7.738  -5.161  0.00  0.00    +0.265 A 
ATOM     12  O   UNL     1      -0.343  -8.143  -6.309  0.00  0.00    -0.267 OA
ATOM     13  N   UNL     1       0.840  -7.569  -4.516  0.00  0.00    -0.253 N 
ATOM     14  C   UNL     1       0.890  -7.118  -3.252  0.00  0.00    +0.334 A 
ATOM     15  O   UNL     1       1.970  -6.976  -2.712  0.00  0.00    -0.246 OA
ENDROOT
BRANCH   1  16
ATOM     16  C   UNL     1      -0.134  -6.343  -1.187  0.00  0.00    +0.223 C 
BRANCH  16  18
ATOM     17  N   UNL     1       0.059  -4.170  -0.021  0.00  0.00    -0.284 N 
ATOM     18  C   UNL     1      -0.040  -4.839  -1.187  0.00  0.00    +0.237 C 
ATOM     19  O   UNL     1      -0.054  -4.230  -2.236  0.00  0.00    -0.274 OA
ATOM     20  H   UNL     1       0.135  -4.658   0.814  0.00  0.00    +0.155 HD
BRANCH  17  25
ATOM     21  C   UNL     1       0.025   1.503   0.005  0.00  0.00    +0.044 C 
ATOM     22  C   UNL     1       0.034  -0.004  -0.002  0.00  0.00    -0.050 A 
ATOM     23  C   UNL     1       0.632  -0.685  -1.046  0.00  0.00    +0.005 A 
ATOM     24  C   UNL     1       0.641  -2.066  -1.055  0.00  0.00    +0.024 A 
ATOM     25  C   UNL     1       0.051  -2.771  -0.014  0.00  0.00    +0.036 A 
ATOM     26  C   UNL     1      -0.548  -2.083   1.033  0.00  0.00    -0.029 A 
ATOM     27  C   UNL     1      -0.550  -0.702   1.039  0.00  0.00    +0.008 A 
ATOM     28  C   UNL     1      -1.190  -2.843   2.165  0.00  0.00    +0.045 C 
ENDBRANCH  17  25
ENDBRANCH  16  18
ENDBRANCH   1  16
BRANCH  13  29
ATOM     29  C   UNL     1       2.092  -7.878  -5.212  0.00  0.00    +0.204 C 
BRANCH  29  30
ATOM     30  C   UNL     1       2.588  -6.646  -5.924  0.00  0.00    +0.125 A 
ATOM     31  C   UNL     1       3.417  -5.720  -5.409  0.00  0.00    +0.046 A 
ATOM     32  C   UNL     1       3.618  -4.747  -6.414  0.00  0.00    +0.041 A 
ATOM     33  C   UNL     1       2.900  -5.136  -7.483  0.00  0.00    +0.195 A 
ATOM     34  O   UNL     1       2.283  -6.290  -7.183  0.00  0.00    -0.466 OA
ENDBRANCH  29  30
ENDBRANCH  13  29
TORSDOF 5
