REMARK  Name = ZINC35466121
REMARK  13 active torsions:
REMARK  status: ('A' for Active; 'I' for Inactive)
REMARK    1  A    between atoms: C_1  and  O_2
REMARK    2  A    between atoms: O_2  and  C_3
REMARK    3  A    between atoms: C_5  and  O_25
REMARK    4  A    between atoms: C_11  and  O_24
REMARK    5  A    between atoms: C_13  and  C_16
REMARK    6  A    between atoms: C_19  and  O_23
REMARK    7  A    between atoms: C_20  and  O_22
REMARK    8  A    between atoms: O_25  and  C_26
REMARK    9  A    between atoms: C_28  and  O_41
REMARK   10  A    between atoms: C_30  and  O_40
REMARK   11  A    between atoms: C_32  and  O_39
REMARK   12  A    between atoms: C_34  and  C_37
REMARK   13  A    between atoms: C_37  and  O_38
REMARK                            x       y       z     vdW  Elec       q    Type
REMARK                         _______ _______ _______ _____ _____    ______ ____
ROOT
ATOM      1  C   UNL     1      -1.198  -0.636   0.010  0.00  0.00    +0.138 A 
ATOM      2  C   UNL     1      -2.372   0.097   0.019  0.00  0.00    +0.092 A 
ATOM      3  C   UNL     1      -3.598  -0.555   0.026  0.00  0.00    +0.131 A 
ATOM      4  C   UNL     1      -3.664  -1.942   0.020  0.00  0.00    +0.092 A 
ATOM      5  C   UNL     1      -2.503  -2.695   0.009  0.00  0.00    +0.139 A 
ATOM      6  C   UNL     1      -1.258  -2.038   0.003  0.00  0.00    +0.104 A 
ATOM      7  C   UNL     1      -0.030  -2.841   0.001  0.00  0.00    +0.202 C 
ATOM      8  O   UNL     1       1.056  -2.345   0.220  0.00  0.00    -0.289 OA
ATOM      9  C   UNL     1      -0.187  -4.322  -0.290  0.00  0.00    +0.230 C 
ATOM     10  C   UNL     1      -1.450  -4.797   0.443  0.00  0.00    +0.240 C 
ATOM     11  O   UNL     1      -2.574  -4.046  -0.005  0.00  0.00    -0.480 OA
ENDROOT
BRANCH  10  12
ATOM     12  C   UNL     1      -1.674  -6.261   0.162  0.00  0.00    -0.001 A 
ATOM     13  C   UNL     1      -2.253  -6.654  -1.030  0.00  0.00    +0.011 A 
ATOM     14  C   UNL     1      -2.461  -7.995  -1.292  0.00  0.00    +0.049 A 
ATOM     15  C   UNL     1      -2.088  -8.949  -0.360  0.00  0.00    +0.158 A 
ATOM     16  C   UNL     1      -1.504  -8.554   0.840  0.00  0.00    +0.159 A 
ATOM     17  C   UNL     1      -1.295  -7.208   1.095  0.00  0.00    +0.056 A 
BRANCH  16  18
ATOM     18  O   UNL     1      -1.136  -9.487   1.759  0.00  0.00    -0.503 OA
ATOM     19  H   UNL     1      -0.230  -9.807   1.653  0.00  0.00    +0.292 HD
ENDBRANCH  16  18
BRANCH  15  20
ATOM     20  O   UNL     1      -2.292 -10.269  -0.616  0.00  0.00    -0.503 OA
ATOM     21  H   UNL     1      -1.551 -10.702  -1.062  0.00  0.00    +0.292 HD
ENDBRANCH  15  20
ENDBRANCH  10  12
BRANCH   1  23
ATOM     22  C   UNL     1      -0.017   1.425   0.010  0.00  0.00    +0.277 C 
ATOM     23  O   UNL     1       0.002  -0.004   0.002  0.00  0.00    -0.494 OA
ENDBRANCH   1  23
BRANCH   9  24
ATOM     24  O   UNL     1      -0.332  -4.529  -1.697  0.00  0.00    -0.380 OA
ATOM     25  H   UNL     1       0.420  -4.218  -2.219  0.00  0.00    +0.211 HD
ENDBRANCH   9  24
BRANCH   3  26
ATOM     26  O   UNL     1      -4.744   0.172   0.040  0.00  0.00    -0.461 OA
BRANCH  26  27
ATOM     27  C   UNL     1      -4.610   1.594   0.045  0.00  0.00    +0.339 C 
ATOM     28  C   UNL     1      -5.976   2.235   0.310  0.00  0.00    +0.214 C 
ATOM     29  C   UNL     1      -5.835   3.759   0.255  0.00  0.00    +0.180 C 
ATOM     30  C   UNL     1      -5.260   4.159  -1.107  0.00  0.00    +0.177 C 
ATOM     31  C   UNL     1      -3.922   3.445  -1.317  0.00  0.00    +0.179 C 
ATOM     32  O   UNL     1      -4.118   2.032  -1.222  0.00  0.00    -0.331 OA
BRANCH  30  33
ATOM     33  O   UNL     1      -6.171   3.781  -2.140  0.00  0.00    -0.386 OA
ATOM     34  H   UNL     1      -7.043   4.195  -2.066  0.00  0.00    +0.210 HD
ENDBRANCH  30  33
BRANCH  29  35
ATOM     35  O   UNL     1      -7.118   4.364   0.430  0.00  0.00    -0.386 OA
ATOM     36  H   UNL     1      -7.543   4.147   1.271  0.00  0.00    +0.210 HD
ENDBRANCH  29  35
BRANCH  28  37
ATOM     37  O   UNL     1      -6.906   1.804  -0.685  0.00  0.00    -0.383 OA
ATOM     38  H   UNL     1      -7.040   0.846  -0.710  0.00  0.00    +0.210 HD
ENDBRANCH  28  37
BRANCH  31  39
ATOM     39  C   UNL     1      -3.369   3.792  -2.700  0.00  0.00    +0.190 C 
BRANCH  39  40
ATOM     40  O   UNL     1      -2.068   3.220  -2.851  0.00  0.00    -0.392 OA
ATOM     41  H   UNL     1      -1.656   3.401  -3.707  0.00  0.00    +0.210 HD
ENDBRANCH  39  40
ENDBRANCH  31  39
ENDBRANCH  26  27
ENDBRANCH   3  26
TORSDOF 12
