REMARK  Name = ZINC01085009
REMARK  5 active torsions:
REMARK  status: ('A' for Active; 'I' for Inactive)
REMARK    1  A    between atoms: C_6  and  C_7
REMARK    2  A    between atoms: C_16  and  C_24
REMARK    3  A    between atoms: C_17  and  N_23
REMARK    4  A    between atoms: C_18  and  C_19
REMARK    5  A    between atoms: C_18  and  C_21
REMARK                            x       y       z     vdW  Elec       q    Type
REMARK                         _______ _______ _______ _____ _____    ______ ____
ROOT
ATOM      1  C   UNL     1      -0.082   6.158   0.036  0.00  0.00    +0.066 C 
ATOM      2  C   UNL     1      -0.710   6.669  -1.262  0.00  0.00    +0.030 C 
ATOM      3  C   UNL     1       0.189   6.435  -2.454  0.00  0.00    +0.009 C 
ATOM      4  C   UNL     1      -0.219   5.190  -3.239  0.00  0.00    +0.005 C 
ATOM      5  C   UNL     1      -1.668   5.371  -3.713  0.00  0.00    +0.027 C 
ATOM      6  C   UNL     1      -2.538   5.509  -2.490  0.00  0.00    -0.022 C 
ATOM      7  C   UNL     1      -2.080   6.074  -1.389  0.00  0.00    -0.029 C 
ATOM      8  C   UNL     1      -2.936   6.089  -0.173  0.00  0.00    +0.074 C 
ATOM      9  C   UNL     1      -2.372   6.350   1.033  0.00  0.00    +0.054 C 
ATOM     10  C   UNL     1      -0.915   6.652   1.218  0.00  0.00    +0.188 C 
ENDROOT
BRANCH   1  16
ATOM     11  C   UNL     1      -1.165   3.943   0.464  0.00  0.00    +0.005 A 
ATOM     12  C   UNL     1      -1.147   2.561   0.457  0.00  0.00    +0.015 A 
ATOM     13  C   UNL     1      -0.024   1.887   0.011  0.00  0.00    +0.018 A 
ATOM     14  C   UNL     1       1.082   2.596  -0.421  0.00  0.00    +0.015 A 
ATOM     15  C   UNL     1       1.061   3.978  -0.418  0.00  0.00    +0.005 A 
ATOM     16  C   UNL     1      -0.061   4.651   0.027  0.00  0.00    -0.041 A 
ATOM     17 BR   UNL     1       0.002  -0.004   0.001  0.00  0.00    -0.050 Br
ENDBRANCH   1  16
BRANCH   9  18
ATOM     18  N   UNL     1      -3.175   6.335   2.138  0.00  0.00    -0.358 N 
ATOM     19  H   UNL     1      -2.748   6.543   3.131  0.00  0.00    +0.142 HD
ATOM     20  H   UNL     1      -4.248   6.116   2.036  0.00  0.00    +0.142 HD
ENDBRANCH   9  18
BRANCH  10  21
ATOM     21  C   UNL     1      -0.441   5.997   2.448  0.00  0.00    +0.091 C 
ATOM     22  N   UNL     1      -0.075   5.490   3.397  0.00  0.00    -0.194 NA
ENDBRANCH  10  21
BRANCH  10  23
ATOM     23  C   UNL     1      -0.741   8.108   1.354  0.00  0.00    +0.091 C 
ATOM     24  N   UNL     1      -0.606   9.231   1.459  0.00  0.00    -0.194 NA
ENDBRANCH  10  23
BRANCH   8  25
ATOM     25  C   UNL     1      -4.341   5.832  -0.274  0.00  0.00    +0.101 C 
ATOM     26  N   UNL     1      -5.455   5.627  -0.354  0.00  0.00    -0.191 NA
ENDBRANCH   8  25
TORSDOF 5
