REMARK  Name = ZINC09461556
REMARK  6 active torsions:
REMARK  status: ('A' for Active; 'I' for Inactive)
REMARK    1  A    between atoms: C_1  and  C_2
REMARK    2  A    between atoms: C_2  and  C_3
REMARK    3  A    between atoms: C_2  and  N_64
REMARK    4  A    between atoms: C_13  and  C_15
REMARK    5  A    between atoms: C_29  and  O_32
REMARK    6  A    between atoms: O_32  and  C_33
REMARK                            x       y       z     vdW  Elec       q    Type
REMARK                         _______ _______ _______ _____ _____    ______ ____
ROOT
ATOM      1  C   UNL     1       2.801  -7.747   1.264  0.00  0.00    -0.073 C 
ATOM      2  C   UNL     1       1.843  -8.454   0.301  0.00  0.00    +0.052 C 
ATOM      3  C   UNL     1       1.464  -7.498  -0.828  0.00  0.00    +0.190 C 
ATOM      4  C   UNL     1       2.725  -7.009  -1.538  0.00  0.00    +0.052 C 
ATOM      5  C   UNL     1       3.656  -6.346  -0.520  0.00  0.00    -0.073 C 
ATOM      6  N   UNL     1       0.719  -6.356  -0.289  0.00  0.00    -0.207 N 
ATOM      7  C   UNL     1      -0.602  -6.548   0.352  0.00  0.00    +0.136 C 
ATOM      8  C   UNL     1      -1.183  -5.128   0.365  0.00  0.00    +0.086 C 
ATOM      9  C   UNL     1      -0.004  -4.255  -0.012  0.00  0.00    +0.069 C 
ATOM     10  N   UNL     1       0.997  -5.003  -0.345  0.00  0.00    -0.185 NA
ATOM     11  C   UNL     1      -1.383  -7.469  -0.549  0.00  0.00    +0.020 A 
ATOM     12  C   UNL     1      -2.755  -7.563  -0.391  0.00  0.00    +0.009 A 
ATOM     13  C   UNL     1      -3.495  -8.409  -1.193  0.00  0.00    +0.004 A 
ATOM     14  C   UNL     1      -2.861  -9.169  -2.158  0.00  0.00    +0.049 A 
ATOM     15  C   UNL     1      -1.492  -9.076  -2.324  0.00  0.00    +0.162 A 
ATOM     16  C   UNL     1      -0.737  -8.214  -1.521  0.00  0.00    +0.170 A 
ATOM     17  O   UNL     1       0.600  -8.153  -1.758  0.00  0.00    -0.463 OA
ATOM     18  N   UNL     1       4.010  -7.336   0.520  0.00  0.00    +0.381 N 
ATOM     19  H   UNL     1       4.420  -8.162   0.068  0.00  0.00    -0.081 HD
ENDROOT
BRANCH   9  20
ATOM     20  C   UNL     1      -0.000  -2.780  -0.007  0.00  0.00    +0.001 A 
ATOM     21  C   UNL     1      -1.149  -2.078   0.367  0.00  0.00    +0.013 A 
ATOM     22  C   UNL     1      -1.142  -0.700   0.370  0.00  0.00    +0.050 A 
ATOM     23  C   UNL     1       0.002  -0.004   0.002  0.00  0.00    +0.162 A 
ATOM     24  C   UNL     1       1.150  -0.697  -0.369  0.00  0.00    +0.163 A 
ATOM     25  C   UNL     1       1.151  -2.081  -0.376  0.00  0.00    +0.059 A 
ATOM     26  O   UNL     1       2.282  -0.030  -0.725  0.00  0.00    -0.485 OA
ATOM     27  C   UNL     1       2.134   1.353  -1.065  0.00  0.00    +0.270 C 
ATOM     28  C   UNL     1       1.253   2.018   0.001  0.00  0.00    +0.270 C 
ATOM     29  O   UNL     1      -0.016   1.357   0.009  0.00  0.00    -0.485 OA
ENDBRANCH   9  20
BRANCH  18  31
ATOM     30  C   UNL     1       6.231  -6.315   0.653  0.00  0.00    -0.014 C 
ATOM     31  C   UNL     1       5.002  -6.757   1.450  0.00  0.00    -0.075 C 
ATOM     32  C   UNL     1       4.411  -5.553   2.186  0.00  0.00    -0.014 C 
ENDBRANCH  18  31
BRANCH  15  33
ATOM     33  O   UNL     1      -0.875  -9.828  -3.274  0.00  0.00    -0.491 OA
ATOM     34  C   UNL     1      -1.702 -10.688  -4.060  0.00  0.00    +0.277 C 
ENDBRANCH  15  33
TORSDOF 3
