REMARK  Name = ZINC33078184
REMARK  8 active torsions:
REMARK  status: ('A' for Active; 'I' for Inactive)
REMARK    1  A    between atoms: C_1  and  C_2
REMARK    2  A    between atoms: C_2  and  C_3
REMARK    3  A    between atoms: C_6  and  S_9
REMARK    4  A    between atoms: S_9  and  N_12
REMARK    5  A    between atoms: N_12  and  C_13
REMARK    6  A    between atoms: C_16  and  N_19
REMARK    7  A    between atoms: C_22  and  C_32
REMARK    8  A    between atoms: C_24  and  N_26
REMARK                            x       y       z     vdW  Elec       q    Type
REMARK                         _______ _______ _______ _____ _____    ______ ____
ROOT
ATOM      1  C   UNL     1       2.593  -2.447  -1.991  0.00  0.00    +0.048 A 
ATOM      2  C   UNL     1       3.322  -1.266  -2.011  0.00  0.00    +0.026 A 
ATOM      3  C   UNL     1       4.164  -0.992  -3.070  0.00  0.00    +0.025 A 
ATOM      4  C   UNL     1       4.273  -1.892  -4.122  0.00  0.00    +0.034 A 
ATOM      5  C   UNL     1       3.540  -3.071  -4.105  0.00  0.00    +0.025 A 
ATOM      6  C   UNL     1       2.702  -3.348  -3.043  0.00  0.00    +0.026 A 
ENDROOT
BRANCH   4   7
ATOM      7  N   UNL     1       5.123  -1.611  -5.199  0.00  0.00    -0.285 N 
ATOM      8  C   UNL     1       5.272  -0.308  -5.642  0.00  0.00    +0.199 A 
ATOM      9  N   UNL     1       4.519   0.645  -5.111  0.00  0.00    -0.331 N 
ATOM     10  C   UNL     1       4.634   1.904  -5.508  0.00  0.00    +0.019 A 
ATOM     11  C   UNL     1       5.553   2.222  -6.489  0.00  0.00    +0.064 A 
ATOM     12  C   UNL     1       6.332   1.197  -7.030  0.00  0.00    +0.127 A 
ATOM     13  N   UNL     1       6.169  -0.043  -6.580  0.00  0.00    -0.201 NA
ATOM     14  C   UNL     1       3.770   2.977  -4.897  0.00  0.00    +0.063 C 
ATOM     15  H   UNL     1       5.671  -2.426  -5.694  0.00  0.00    +0.155 HD
ATOM     16  H   UNL     1       3.787   0.396  -4.330  0.00  0.00    +0.168 HD
BRANCH  12  17
ATOM     17  N   UNL     1       7.266   1.470  -8.016  0.00  0.00    -0.311 N 
ATOM     18  C   UNL     1       6.637   2.128  -9.170  0.00  0.00    +0.134 C 
ATOM     19  C   UNL     1       7.712   2.465 -10.207  0.00  0.00    +0.178 C 
ATOM     20  O   UNL     1       8.402   1.268 -10.576  0.00  0.00    -0.377 OA
ATOM     21  C   UNL     1       9.028   0.601  -9.476  0.00  0.00    +0.178 C 
ATOM     22  C   UNL     1       7.966   0.246  -8.432  0.00  0.00    +0.134 C 
ENDBRANCH  12  17
ENDBRANCH   4   7
BRANCH   1  23
ATOM     23  N   UNL     1       1.744  -2.728  -0.915  0.00  0.00    -0.216 N 
ATOM     24  H   UNL     1       0.789  -2.192  -0.813  0.00  0.00    +0.174 HD
BRANCH  23  25
ATOM     25  S   UNL     1       2.177  -3.868   0.206  0.00  0.00    +0.072 S 
ATOM     26  O   UNL     1       2.525  -5.039  -0.519  0.00  0.00    -0.150 OA
ATOM     27  O   UNL     1       1.165  -3.862   1.203  0.00  0.00    -0.150 OA
BRANCH  25  31
ATOM     28  C   UNL     1       5.969  -2.410   2.203  0.00  0.00    -0.048 A 
ATOM     29  C   UNL     1       4.737  -1.975   2.656  0.00  0.00    +0.005 A 
ATOM     30  C   UNL     1       3.579  -2.420   2.047  0.00  0.00    +0.029 A 
ATOM     31  C   UNL     1       3.653  -3.300   0.983  0.00  0.00    +0.109 A 
ATOM     32  C   UNL     1       4.884  -3.735   0.529  0.00  0.00    +0.029 A 
ATOM     33  C   UNL     1       6.042  -3.289   1.139  0.00  0.00    +0.005 A 
BRANCH  28  35
ATOM     34  C   UNL     1       7.603  -2.872   4.010  0.00  0.00    +0.009 C 
ATOM     35  C   UNL     1       7.231  -1.925   2.868  0.00  0.00    +0.032 C 
ENDBRANCH  28  35
ENDBRANCH  25  31
ENDBRANCH  23  25
ENDBRANCH   1  23
TORSDOF 6
