REMARK  Name = ZINC40376397
REMARK  7 active torsions:
REMARK  status: ('A' for Active; 'I' for Inactive)
REMARK    1  A    between atoms: C_1  and  C_2
REMARK    2  A    between atoms: C_7  and  N_8
REMARK    3  A    between atoms: C_14  and  C_19
REMARK    4  A    between atoms: C_19  and  C_20
REMARK    5  A    between atoms: N_22  and  C_23
REMARK    6  A    between atoms: C_27  and  O_29
REMARK    7  A    between atoms: O_29  and  C_30
REMARK                            x       y       z     vdW  Elec       q    Type
REMARK                         _______ _______ _______ _____ _____    ______ ____
ROOT
ATOM      1  N   UNL     1       0.270  -0.243   2.479  0.00  0.00    -0.215 NA
ATOM      2  C   UNL     1       0.148  -0.894   3.612  0.00  0.00    +0.202 C 
ATOM      3  N   UNL     1       0.048  -0.203   4.793  0.00  0.00    -0.369 N 
ATOM      4  N   UNL     1       0.122  -2.270   3.615  0.00  0.00    -0.295 N 
ATOM      5  C   UNL     1       0.102  -2.959   4.815  0.00  0.00    +0.230 C 
ATOM      6  N   UNL     1       0.186  -4.256   4.903  0.00  0.00    -0.236 NA
ATOM      7  C   UNL     1       0.128  -4.580   6.340  0.00  0.00    +0.208 C 
ATOM      8  C   UNL     1      -0.001  -3.220   6.998  0.00  0.00    +0.274 C 
ATOM      9  O   UNL     1      -0.092  -2.958   8.314  0.00  0.00    -0.268 OA
ATOM     10  N   UNL     1      -0.001  -2.358   6.019  0.00  0.00    -0.176 NA
ATOM     11  H   UNL     1      -0.021   0.764   4.785  0.00  0.00    +0.159 HD
ATOM     12  H   UNL     1       0.117  -2.757   2.776  0.00  0.00    +0.172 HD
ATOM     13  H   UNL     1       0.047  -0.682   5.637  0.00  0.00    +0.159 HD
ENDROOT
BRANCH   1  20
ATOM     14  C   UNL     1       2.382   0.197   0.630  0.00  0.00    +0.046 C 
ATOM     15  C   UNL     1       1.240  -0.744   0.345  0.00  0.00    -0.025 A 
ATOM     16  C   UNL     1       1.195  -1.436  -0.848  0.00  0.00    +0.005 A 
ATOM     17  C   UNL     1       0.147  -2.300  -1.111  0.00  0.00    +0.000 A 
ATOM     18  C   UNL     1      -0.862  -2.478  -0.180  0.00  0.00    +0.002 A 
ATOM     19  C   UNL     1      -0.829  -1.793   1.016  0.00  0.00    +0.028 A 
ATOM     20  C   UNL     1       0.228  -0.922   1.290  0.00  0.00    +0.070 A 
ENDBRANCH   1  20
BRANCH   7  21
ATOM     21  C   UNL     1       1.413  -5.280   6.787  0.00  0.00    +0.132 C 
BRANCH  21  22
ATOM     22  C   UNL     1       1.506  -6.630   6.124  0.00  0.00    +0.220 C 
ATOM     23  O   UNL     1       0.632  -6.996   5.368  0.00  0.00    -0.275 OA
ATOM     24  N   UNL     1       2.562  -7.430   6.371  0.00  0.00    -0.285 N 
ATOM     25  H   UNL     1       3.223  -7.172   7.033  0.00  0.00    +0.155 HD
BRANCH  24  26
ATOM     26  C   UNL     1       2.706  -8.634   5.673  0.00  0.00    +0.037 A 
ATOM     27  C   UNL     1       3.262  -9.741   6.302  0.00  0.00    +0.023 A 
ATOM     28  C   UNL     1       3.404 -10.930   5.613  0.00  0.00    +0.005 A 
ATOM     29  C   UNL     1       2.994 -11.021   4.296  0.00  0.00    +0.046 A 
ATOM     30  C   UNL     1       2.438  -9.919   3.662  0.00  0.00    +0.132 A 
ATOM     31  C   UNL     1       2.288  -8.726   4.353  0.00  0.00    +0.069 A 
BRANCH  30  32
ATOM     32  O   UNL     1       2.036 -10.010   2.368  0.00  0.00    -0.406 OA
BRANCH  32  33
ATOM     33  C   UNL     1       2.215 -11.271   1.720  0.00  0.00    +0.575 C 
ATOM     34  F   UNL     1       1.495 -12.255   2.407  0.00  0.00    -0.133 F 
ATOM     35  F   UNL     1       1.751 -11.189   0.403  0.00  0.00    -0.133 F 
ATOM     36  F   UNL     1       3.573 -11.605   1.716  0.00  0.00    -0.133 F 
ENDBRANCH  32  33
ENDBRANCH  30  32
ENDBRANCH  24  26
ENDBRANCH  21  22
ENDBRANCH   7  21
TORSDOF 6
