REMARK  Name = ZINC46585972
REMARK  14 active torsions:
REMARK  status: ('A' for Active; 'I' for Inactive)
REMARK    1  A    between atoms: C_1  and  C_2
REMARK    2  A    between atoms: C_4  and  C_30
REMARK    3  A    between atoms: C_8  and  N_29
REMARK    4  A    between atoms: C_9  and  C_11
REMARK    5  A    between atoms: C_11  and  O_13
REMARK    6  A    between atoms: O_13  and  C_14
REMARK    7  A    between atoms: C_14  and  C_15
REMARK    8  A    between atoms: C_16  and  C_25
REMARK    9  A    between atoms: C_17  and  N_24
REMARK   10  A    between atoms: C_19  and  C_20
REMARK   11  A    between atoms: C_20  and  O_22
REMARK   12  A    between atoms: O_22  and  C_23
REMARK   13  A    between atoms: C_25  and  O_27
REMARK   14  A    between atoms: O_27  and  C_28
REMARK                            x       y       z     vdW  Elec       q    Type
REMARK                         _______ _______ _______ _____ _____    ______ ____
ROOT
ATOM      1  O   UNL     1       2.697  -1.721   4.914  0.00  0.00    -0.456 OA
ENDROOT
BRANCH   1   2
ATOM      2  C   UNL     1       1.979  -0.745   4.319  0.00  0.00    +0.348 C 
ATOM      3  O   UNL     1       2.116   0.412   4.672  0.00  0.00    -0.244 OA
BRANCH   2  12
ATOM      4  C   UNL     1      -1.696   1.372   0.766  0.00  0.00    +0.044 C 
ATOM      5  C   UNL     1      -1.521  -0.123   0.688  0.00  0.00    -0.037 A 
ATOM      6  C   UNL     1      -2.240  -0.864  -0.221  0.00  0.00    +0.025 A 
ATOM      7  C   UNL     1      -2.078  -2.239  -0.290  0.00  0.00    +0.014 A 
ATOM      8  N   UNL     1      -1.231  -2.853   0.513  0.00  0.00    -0.353 N 
ATOM      9  C   UNL     1      -0.520  -2.189   1.399  0.00  0.00    +0.088 A 
ATOM     10  C   UNL     1      -0.609  -0.786   1.546  0.00  0.00    +0.030 A 
ATOM     11  C   UNL     1       0.254  -0.216   2.569  0.00  0.00    +0.055 A 
ATOM     12  C   UNL     1       1.067  -1.067   3.287  0.00  0.00    +0.119 A 
ATOM     13  S   UNL     1       0.683  -2.671   2.612  0.00  0.00    -0.062 S 
ATOM     14  C   UNL     1      -2.873  -3.037  -1.291  0.00  0.00    +0.063 C 
ATOM     15  H   UNL     1      -1.131  -3.816   0.450  0.00  0.00    +0.166 HD
BRANCH  11  16
ATOM     16  N   UNL     1       0.258   1.149   2.816  0.00  0.00    -0.356 N 
ATOM     17  H   UNL     1       0.106   1.774   2.090  0.00  0.00    +0.142 HD
ATOM     18  H   UNL     1       0.414   1.479   3.715  0.00  0.00    +0.142 HD
ENDBRANCH  11  16
ENDBRANCH   2  12
ENDBRANCH   1   2
BRANCH   1  19
ATOM     19  C   UNL     1       3.599  -1.324   5.949  0.00  0.00    +0.270 C 
BRANCH  19  20
ATOM     20  C   UNL     1       4.308  -2.539   6.491  0.00  0.00    +0.027 A 
ATOM     21  C   UNL     1       3.794  -3.274   7.550  0.00  0.00    +0.094 A 
ATOM     22  C   UNL     1       4.526  -4.386   7.981  0.00  0.00    +0.078 A 
ATOM     23  S   UNL     1       5.862  -4.407   6.963  0.00  0.00    -0.066 S 
ATOM     24  C   UNL     1       5.491  -2.981   5.961  0.00  0.00    +0.105 A 
BRANCH  22  25
ATOM     25  N   UNL     1       4.223  -5.257   9.000  0.00  0.00    -0.352 N 
ATOM     26  H   UNL     1       3.412  -5.134   9.519  0.00  0.00    +0.143 HD
ATOM     27  H   UNL     1       4.819  -5.995   9.200  0.00  0.00    +0.143 HD
ENDBRANCH  22  25
BRANCH  24  28
ATOM     28  C   UNL     1       6.259  -2.422   4.851  0.00  0.00    +0.346 C 
ATOM     29  O   UNL     1       5.857  -1.431   4.271  0.00  0.00    -0.244 OA
BRANCH  28  30
ATOM     30  O   UNL     1       7.415  -3.004   4.469  0.00  0.00    -0.464 OA
ATOM     31  C   UNL     1       8.114  -2.404   3.377  0.00  0.00    +0.280 C 
ENDBRANCH  28  30
ENDBRANCH  24  28
BRANCH  21  32
ATOM     32  C   UNL     1       2.532  -2.900   8.194  0.00  0.00    +0.342 C 
ATOM     33  O   UNL     1       1.481  -3.354   7.782  0.00  0.00    -0.245 OA
BRANCH  32  34
ATOM     34  O   UNL     1       2.535  -2.051   9.242  0.00  0.00    -0.464 OA
ATOM     35  C   UNL     1       1.269  -1.730   9.821  0.00  0.00    +0.280 C 
ENDBRANCH  32  34
ENDBRANCH  21  32
ENDBRANCH  19  20
ENDBRANCH   1  19
TORSDOF 10
