REMARK  Name = ZINC14925673
REMARK  5 active torsions:
REMARK  status: ('A' for Active; 'I' for Inactive)
REMARK    1  A    between atoms: C_1  and  C_2
REMARK    2  A    between atoms: C_2  and  C_4
REMARK    3  A    between atoms: C_2  and  N_15
REMARK    4  A    between atoms: N_6  and  C_7
REMARK    5  A    between atoms: C_24  and  C_27
REMARK                            x       y       z     vdW  Elec       q    Type
REMARK                         _______ _______ _______ _____ _____    ______ ____
ROOT
ATOM      1  N   UNL     1      -3.429  -2.502  -0.308  0.00  0.00    +0.389 N 
ATOM      2  C   UNL     1      -2.634  -2.795  -1.509  0.00  0.00    -0.059 C 
ATOM      3  C   UNL     1      -2.294  -4.287  -1.541  0.00  0.00    +0.088 C 
ATOM      4  N   UNL     1      -3.537  -5.070  -1.532  0.00  0.00    -0.319 N 
ATOM      5  C   UNL     1      -4.332  -4.777  -0.331  0.00  0.00    +0.088 C 
ATOM      6  C   UNL     1      -4.672  -3.285  -0.299  0.00  0.00    -0.059 C 
ATOM      7  C   UNL     1      -3.269  -6.431  -1.633  0.00  0.00    +0.121 A 
ATOM      8  C   UNL     1      -2.530  -6.910  -2.710  0.00  0.00    +0.044 A 
ATOM      9  C   UNL     1      -2.267  -8.265  -2.794  0.00  0.00    +0.017 A 
ATOM     10  C   UNL     1      -2.762  -9.100  -1.801  0.00  0.00    +0.073 A 
ATOM     11  C   UNL     1      -3.493  -8.557  -0.764  0.00  0.00    +0.125 A 
ATOM     12  N   UNL     1      -3.725  -7.259  -0.706  0.00  0.00    -0.240 NA
ATOM     13  H   UNL     1      -2.836  -2.795   0.572  0.00  0.00    -0.081 HD
ENDROOT
BRANCH  10  14
ATOM     14  C   UNL     1      -2.504 -10.584  -1.856  0.00  0.00    +0.419 C 
ATOM     15  F   UNL     1      -3.101 -11.202  -0.752  0.00  0.00    -0.166 F 
ATOM     16  F   UNL     1      -3.046 -11.108  -3.034  0.00  0.00    -0.166 F 
ATOM     17  F   UNL     1      -1.125 -10.818  -1.832  0.00  0.00    -0.166 F 
ENDBRANCH  10  14
BRANCH   1  19
ATOM     18  C   UNL     1      -4.469  -0.600  -1.447  0.00  0.00    -0.004 C 
ATOM     19  C   UNL     1      -3.711  -1.065  -0.201  0.00  0.00    +0.017 C 
BRANCH  19  20
ATOM     20  C   UNL     1      -2.415  -0.304  -0.090  0.00  0.00    +0.203 C 
ATOM     21  O   UNL     1      -1.359  -0.902  -0.098  0.00  0.00    -0.277 OA
ATOM     22  N   UNL     1      -2.428   1.039   0.019  0.00  0.00    -0.285 N 
ATOM     23  H   UNL     1      -3.386   1.574   0.101  0.00  0.00    +0.155 HD
BRANCH  22  24
ATOM     24  C   UNL     1      -1.223   1.753   0.029  0.00  0.00    +0.069 A 
ATOM     25  C   UNL     1      -0.095   1.206   0.625  0.00  0.00    +0.027 A 
ATOM     26  C   UNL     1       1.093   1.909   0.628  0.00  0.00    +0.017 A 
ATOM     27  C   UNL     1       1.160   3.161   0.043  0.00  0.00    +0.021 A 
ATOM     28  C   UNL     1       0.037   3.713  -0.548  0.00  0.00    +0.055 A 
ATOM     29  C   UNL     1      -1.156   3.013  -0.554  0.00  0.00    +0.146 A 
ATOM     30  F   UNL     1      -2.252   3.552  -1.131  0.00  0.00    -0.204 F 
ATOM     31 BR   UNL     1       2.790   4.120   0.050  0.00  0.00    -0.050 Br
ENDBRANCH  22  24
ENDBRANCH  19  20
ENDBRANCH   1  19
TORSDOF 4
