REMARK  Name = ZINC46569600
REMARK  8 active torsions:
REMARK  status: ('A' for Active; 'I' for Inactive)
REMARK    1  A    between atoms: C_1  and  C_2
REMARK    2  A    between atoms: C_5  and  N_9
REMARK    3  A    between atoms: C_10  and  C_12
REMARK    4  A    between atoms: C_12  and  N_13
REMARK    5  A    between atoms: N_13  and  C_14
REMARK    6  A    between atoms: N_13  and  C_24
REMARK    7  A    between atoms: C_14  and  C_15
REMARK    8  A    between atoms: C_18  and  C_21
REMARK                            x       y       z     vdW  Elec       q    Type
REMARK                         _______ _______ _______ _____ _____    ______ ____
ROOT
ATOM      1  N   UNL     1       0.048  -6.678   2.566  0.00  0.00    +0.390 N 
ATOM      2  H   UNL     1      -0.728  -6.294   3.083  0.00  0.00    -0.080 HD
ENDROOT
BRANCH   1   3
ATOM      3  C   UNL     1       1.308  -6.282   3.208  0.00  0.00    -0.068 C 
ATOM      4  C   UNL     1       1.229  -5.701   4.621  0.00  0.00    -0.017 C 
ATOM      5  C   UNL     1       1.546  -4.787   3.435  0.00  0.00    -0.017 C 
ENDBRANCH   1   3
BRANCH   1   6
ATOM      6  C   UNL     1       0.019  -6.169   1.188  0.00  0.00    +0.020 C 
BRANCH   6   8
ATOM      7  N   UNL     1      -1.559  -6.158  -0.717  0.00  0.00    -0.287 N 
ATOM      8  C   UNL     1      -1.336  -6.431   0.584  0.00  0.00    +0.201 C 
ATOM      9  O   UNL     1      -2.227  -6.887   1.269  0.00  0.00    -0.278 OA
ATOM     10  H   UNL     1      -0.827  -5.866  -1.283  0.00  0.00    +0.155 HD
BRANCH   7  15
ATOM     11  C   UNL     1      -6.774  -6.713  -2.881  0.00  0.00    +0.045 C 
ATOM     12  C   UNL     1      -5.388  -6.566  -2.306  0.00  0.00    -0.037 A 
ATOM     13  C   UNL     1      -5.225  -6.157  -0.995  0.00  0.00    +0.006 A 
ATOM     14  C   UNL     1      -3.957  -6.021  -0.465  0.00  0.00    +0.023 A 
ATOM     15  C   UNL     1      -2.845  -6.295  -1.251  0.00  0.00    +0.034 A 
ATOM     16  C   UNL     1      -3.011  -6.705  -2.567  0.00  0.00    +0.038 A 
ATOM     17  C   UNL     1      -4.283  -6.845  -3.090  0.00  0.00    +0.018 A 
ATOM     18  I   UNL     1      -4.537  -7.472  -5.072  0.00  0.00    -0.043 I 
ENDBRANCH   7  15
ENDBRANCH   6   8
ENDBRANCH   1   6
BRANCH   1  19
ATOM     19  C   UNL     1      -0.052  -8.144   2.548  0.00  0.00    -0.042 C 
BRANCH  19  20
ATOM     20  C   UNL     1      -0.146  -8.658   3.962  0.00  0.00    -0.064 A 
ATOM     21  C   UNL     1       1.007  -8.970   4.659  0.00  0.00    +0.002 A 
ATOM     22  C   UNL     1       0.928  -9.441   5.953  0.00  0.00    +0.013 A 
ATOM     23  C   UNL     1      -0.319  -9.602   6.559  0.00  0.00    +0.037 A 
ATOM     24  C   UNL     1      -1.479  -9.285   5.850  0.00  0.00    +0.013 A 
ATOM     25  C   UNL     1      -1.385  -8.810   4.558  0.00  0.00    +0.002 A 
BRANCH  23  26
ATOM     26  C   UNL     1      -0.411 -10.107   7.946  0.00  0.00    +0.242 C 
ATOM     27  O   UNL     1       0.601 -10.383   8.560  0.00  0.00    -0.270 OA
ATOM     28  N   UNL     1      -1.617 -10.262   8.528  0.00  0.00    -0.325 N 
ATOM     29  H   UNL     1      -2.424 -10.042   8.037  0.00  0.00    +0.145 HD
ATOM     30  H   UNL     1      -1.677 -10.593   9.437  0.00  0.00    +0.145 HD
ENDBRANCH  23  26
ENDBRANCH  19  20
ENDBRANCH   1  19
TORSDOF 7
