REMARK  Name = ZINC03653892
REMARK  8 active torsions:
REMARK  status: ('A' for Active; 'I' for Inactive)
REMARK    1  A    between atoms: C_1  and  C_2
REMARK    2  A    between atoms: C_4  and  C_35
REMARK    3  A    between atoms: C_5  and  C_34
REMARK    4  A    between atoms: C_6  and  S_9
REMARK    5  A    between atoms: C_7  and  C_8
REMARK    6  A    between atoms: S_9  and  N_12
REMARK    7  A    between atoms: N_12  and  C_13
REMARK    8  A    between atoms: C_27  and  C_29
REMARK                            x       y       z     vdW  Elec       q    Type
REMARK                         _______ _______ _______ _____ _____    ______ ____
ROOT
ATOM      1  N   UNL     1      -1.886   5.968  -0.256  0.00  0.00    -0.132 N 
ATOM      2  C   UNL     1      -2.884   6.481  -1.003  0.00  0.00    +0.305 C 
ATOM      3  O   UNL     1      -2.986   6.172  -2.176  0.00  0.00    -0.265 OA
ENDROOT
BRANCH   1   4
ATOM      4  C   UNL     1      -0.968   5.085  -0.829  0.00  0.00    +0.069 A 
ATOM      5  C   UNL     1       0.127   5.560  -1.498  0.00  0.00    +0.044 A 
ATOM      6  C   UNL     1       1.039   4.688  -2.067  0.00  0.00    +0.064 A 
ATOM      7  C   UNL     1       0.913   3.303  -2.002  0.00  0.00    +0.154 A 
ATOM      8  C   UNL     1      -0.223   2.800  -1.307  0.00  0.00    +0.027 A 
ATOM      9  C   UNL     1      -1.155   3.688  -0.725  0.00  0.00    +0.009 A 
ATOM     10  C   UNL     1      -2.269   3.167  -0.045  0.00  0.00    +0.010 A 
ATOM     11  C   UNL     1      -2.436   1.818   0.040  0.00  0.00    +0.001 A 
ATOM     12  C   UNL     1      -1.514   0.943  -0.529  0.00  0.00    +0.001 A 
ATOM     13  C   UNL     1      -0.423   1.414  -1.196  0.00  0.00    +0.012 A 
ATOM     14  O   UNL     1       1.892   2.604  -2.609  0.00  0.00    -0.416 OA
ATOM     15  C   UNL     1       2.910   3.222  -3.230  0.00  0.00    +0.379 A 
ATOM     16  O   UNL     1       3.854   2.728  -3.816  0.00  0.00    -0.237 OA
ATOM     17  S   UNL     1       2.542   4.902  -2.990  0.00  0.00    -0.004 S 
ENDBRANCH   1   4
BRANCH   2  18
ATOM     18  C   UNL     1      -3.845   7.412  -0.403  0.00  0.00    +0.191 A 
ATOM     19  C   UNL     1      -4.815   8.104  -1.070  0.00  0.00    +0.054 A 
ATOM     20  C   UNL     1      -5.498   8.868  -0.111  0.00  0.00    +0.042 A 
ATOM     21  C   UNL     1      -4.922   8.612   1.085  0.00  0.00    +0.196 A 
ATOM     22  O   UNL     1      -3.930   7.730   0.905  0.00  0.00    -0.458 OA
ENDBRANCH   2  18
BRANCH   1  23
ATOM     23  S   UNL     1      -1.750   6.384   1.341  0.00  0.00    +0.082 S 
ATOM     24  O   UNL     1      -2.942   5.944   1.978  0.00  0.00    -0.149 OA
ATOM     25  O   UNL     1      -0.461   5.961   1.762  0.00  0.00    -0.149 OA
BRANCH  23  31
ATOM     26  C   UNL     1      -1.178  11.083  -0.874  0.00  0.00    +0.044 C 
ATOM     27  C   UNL     1      -1.481  10.270   0.358  0.00  0.00    -0.045 A 
ATOM     28  C   UNL     1      -1.762  10.905   1.553  0.00  0.00    +0.007 A 
ATOM     29  C   UNL     1      -2.041  10.160   2.683  0.00  0.00    -0.045 A 
ATOM     30  C   UNL     1      -2.037   8.779   2.619  0.00  0.00    -0.021 A 
ATOM     31  C   UNL     1      -1.755   8.144   1.424  0.00  0.00    +0.115 A 
ATOM     32  C   UNL     1      -1.472   8.889   0.295  0.00  0.00    -0.021 A 
ATOM     33  C   UNL     1      -1.158   8.197  -1.006  0.00  0.00    +0.046 C 
ATOM     34  C   UNL     1      -2.341   7.966   3.851  0.00  0.00    +0.046 C 
ATOM     35  C   UNL     1      -2.348  10.852   3.986  0.00  0.00    +0.044 C 
ENDBRANCH  23  31
ENDBRANCH   1  23
TORSDOF 4
