REMARK  Name = ZINC54102269
REMARK  9 active torsions:
REMARK  status: ('A' for Active; 'I' for Inactive)
REMARK    1  A    between atoms: C_1  and  C_2
REMARK    2  A    between atoms: C_2  and  N_3
REMARK    3  A    between atoms: N_3  and  C_4
REMARK    4  A    between atoms: N_3  and  C_24
REMARK    5  A    between atoms: C_4  and  C_5
REMARK    6  A    between atoms: N_7  and  C_8
REMARK    7  A    between atoms: C_12  and  N_15
REMARK    8  A    between atoms: C_13  and  C_14
REMARK    9  A    between atoms: C_16  and  C_18
REMARK                            x       y       z     vdW  Elec       q    Type
REMARK                         _______ _______ _______ _____ _____    ______ ____
ROOT
ATOM      1  C   UNL     1      -1.714  -3.956   3.396  0.00  0.00    +0.038 A 
ATOM      2  C   UNL     1      -1.393  -4.761   2.309  0.00  0.00    +0.024 A 
ATOM      3  C   UNL     1      -1.882  -6.051   2.235  0.00  0.00    +0.004 A 
ATOM      4  C   UNL     1      -2.693  -6.544   3.239  0.00  0.00    +0.024 A 
ATOM      5  C   UNL     1      -3.018  -5.745   4.328  0.00  0.00    +0.038 A 
ATOM      6  C   UNL     1      -2.523  -4.451   4.409  0.00  0.00    -0.008 A 
ATOM      7  C   UNL     1      -2.868  -3.582   5.591  0.00  0.00    +0.047 C 
ENDROOT
BRANCH   1  10
ATOM      8  C   UNL     1      -0.082  -2.322   2.822  0.00  0.00    +0.235 C 
ATOM      9  O   UNL     1       0.562  -3.180   2.257  0.00  0.00    -0.274 OA
ATOM     10  N   UNL     1      -1.217  -2.650   3.471  0.00  0.00    -0.284 N 
ATOM     11  H   UNL     1      -1.690  -1.981   3.990  0.00  0.00    +0.155 HD
BRANCH   8  12
ATOM     12  C   UNL     1       0.386  -0.890   2.799  0.00  0.00    +0.201 C 
BRANCH  12  13
ATOM     13  N   UNL     1       1.633  -0.796   2.036  0.00  0.00    -0.321 N 
BRANCH  13  14
ATOM     14  C   UNL     1       2.861  -0.942   2.684  0.00  0.00    +0.030 A 
ATOM     15  C   UNL     1       4.045  -0.848   1.963  0.00  0.00    +0.023 A 
ATOM     16  C   UNL     1       5.257  -0.992   2.608  0.00  0.00    +0.002 A 
ATOM     17  C   UNL     1       5.294  -1.230   3.970  0.00  0.00    +0.000 A 
ATOM     18  C   UNL     1       4.118  -1.325   4.691  0.00  0.00    +0.002 A 
ATOM     19  C   UNL     1       2.902  -1.176   4.053  0.00  0.00    +0.023 A 
ENDBRANCH  13  14
BRANCH  13  21
ATOM     20  C   UNL     1       1.618   0.958   0.332  0.00  0.00    +0.024 C 
ATOM     21  C   UNL     1       1.591  -0.549   0.592  0.00  0.00    +0.102 C 
ENDBRANCH  13  21
ENDBRANCH  12  13
ENDBRANCH   8  12
ENDBRANCH   1  10
BRANCH   5  22
ATOM     22  N   UNL     1      -3.838  -6.245   5.344  0.00  0.00    -0.281 N 
ATOM     23  C   UNL     1      -3.761  -7.544   5.694  0.00  0.00    +0.248 C 
ATOM     24  O   UNL     1      -3.042  -8.300   5.070  0.00  0.00    -0.270 OA
ATOM     25  H   UNL     1      -4.463  -5.657   5.796  0.00  0.00    +0.155 HD
BRANCH  23  26
ATOM     26  C   UNL     1      -4.550  -8.050   6.837  0.00  0.00    +0.037 A 
ATOM     27  C   UNL     1      -5.381  -7.186   7.552  0.00  0.00    +0.013 A 
ATOM     28  C   UNL     1      -6.115  -7.664   8.618  0.00  0.00    +0.001 A 
ATOM     29  C   UNL     1      -6.029  -8.997   8.978  0.00  0.00    +0.000 A 
ATOM     30  C   UNL     1      -5.207  -9.859   8.274  0.00  0.00    +0.001 A 
ATOM     31  C   UNL     1      -4.473  -9.395   7.202  0.00  0.00    +0.013 A 
ENDBRANCH  23  26
ENDBRANCH   5  22
TORSDOF 7
