REMARK  Name = ZINC09237713
REMARK  6 active torsions:
REMARK  status: ('A' for Active; 'I' for Inactive)
REMARK    1  A    between atoms: C_1  and  C_2
REMARK    2  A    between atoms: C_5  and  C_30
REMARK    3  A    between atoms: C_6  and  N_8
REMARK    4  A    between atoms: C_9  and  C_11
REMARK    5  A    between atoms: C_13  and  C_23
REMARK    6  A    between atoms: C_17  and  C_22
REMARK                            x       y       z     vdW  Elec       q    Type
REMARK                         _______ _______ _______ _____ _____    ______ ____
ROOT
ATOM      1  C   UNL     1       2.772   4.381   1.422  0.00  0.00    +0.166 C 
ATOM      2  C   UNL     1       2.435   3.929  -0.004  0.00  0.00    +0.140 C 
ATOM      3  N   UNL     1       2.290   5.086  -0.888  0.00  0.00    -0.272 N 
ATOM      4  N   UNL     1       3.406   5.856  -0.967  0.00  0.00    -0.225 N 
ATOM      5  C   UNL     1       3.751   6.725  -1.962  0.00  0.00    +0.148 A 
ATOM      6  N   UNL     1       4.891   7.265  -1.629  0.00  0.00    -0.132 NA
ATOM      7  N   UNL     1       5.292   6.794  -0.498  0.00  0.00    -0.121 NA
ATOM      8  C   UNL     1       4.423   5.926  -0.058  0.00  0.00    +0.209 A 
ATOM      9  S   UNL     1       4.490   4.975   1.428  0.00  0.00    -0.069 S 
ATOM     10  C   UNL     1       2.960   7.009  -3.213  0.00  0.00    +0.090 C 
ATOM     11  H   UNL     1       1.980   4.804  -1.806  0.00  0.00    +0.167 HD
ENDROOT
BRANCH   2  12
ATOM     12  C   UNL     1       1.145   3.150   0.011  0.00  0.00    -0.024 A 
ATOM     13  C   UNL     1       1.173   1.767   0.008  0.00  0.00    +0.008 A 
ATOM     14  C   UNL     1      -0.010   1.052   0.022  0.00  0.00    +0.038 A 
ATOM     15  C   UNL     1      -1.222   1.720   0.034  0.00  0.00    +0.123 A 
ATOM     16  C   UNL     1      -1.249   3.105   0.043  0.00  0.00    +0.038 A 
ATOM     17  C   UNL     1      -0.065   3.818   0.029  0.00  0.00    +0.008 A 
ATOM     18  F   UNL     1      -2.379   1.022   0.042  0.00  0.00    -0.205 F 
ENDBRANCH   2  12
BRANCH   1  20
ATOM     19  N   UNL     1       2.179   3.427   3.626  0.00  0.00    -0.284 N 
ATOM     20  C   UNL     1       2.630   3.221   2.373  0.00  0.00    +0.233 C 
ATOM     21  O   UNL     1       2.921   2.101   2.010  0.00  0.00    -0.274 OA
ATOM     22  H   UNL     1       2.023   4.331   3.943  0.00  0.00    +0.155 HD
BRANCH  19  28
ATOM     23  C   UNL     1       1.108  -1.338   4.188  0.00  0.00    +0.044 C 
ATOM     24  C   UNL     1       1.416   0.017   4.770  0.00  0.00    -0.049 A 
ATOM     25  C   UNL     1       1.460   0.185   6.142  0.00  0.00    +0.004 A 
ATOM     26  C   UNL     1       1.742   1.427   6.681  0.00  0.00    +0.005 A 
ATOM     27  C   UNL     1       1.987   2.503   5.849  0.00  0.00    -0.029 A 
ATOM     28  C   UNL     1       1.938   2.338   4.471  0.00  0.00    +0.037 A 
ATOM     29  C   UNL     1       1.654   1.090   3.933  0.00  0.00    +0.027 A 
ATOM     30  C   UNL     1       2.301   3.855   6.437  0.00  0.00    +0.045 C 
ENDBRANCH  19  28
ENDBRANCH   1  20
TORSDOF 3
