REMARK  Name = ZINC49977225
REMARK  6 active torsions:
REMARK  status: ('A' for Active; 'I' for Inactive)
REMARK    1  A    between atoms: C_1  and  C_2
REMARK    2  A    between atoms: C_4  and  C_21
REMARK    3  A    between atoms: C_6  and  N_8
REMARK    4  A    between atoms: N_8  and  C_9
REMARK    5  A    between atoms: C_10  and  C_12
REMARK    6  A    between atoms: C_14  and  N_20
REMARK                            x       y       z     vdW  Elec       q    Type
REMARK                         _______ _______ _______ _____ _____    ______ ____
ROOT
ATOM      1  N   UNL     1      -0.487  -2.708   2.426  0.00  0.00    -0.270 N 
ATOM      2  C   UNL     1      -1.140  -4.008   2.592  0.00  0.00    +0.138 C 
ATOM      3  C   UNL     1      -0.065  -2.022   3.507  0.00  0.00    +0.253 C 
ATOM      4  O   UNL     1       0.384  -0.900   3.378  0.00  0.00    -0.270 OA
ENDROOT
BRANCH   1  10
ATOM      5  C   UNL     1       1.435   0.761  -0.479  0.00  0.00    +0.044 C 
ATOM      6  C   UNL     1       0.626  -0.496  -0.292  0.00  0.00    -0.048 A 
ATOM      7  C   UNL     1       0.065  -1.126  -1.388  0.00  0.00    +0.006 A 
ATOM      8  C   UNL     1      -0.679  -2.280  -1.221  0.00  0.00    -0.048 A 
ATOM      9  C   UNL     1      -0.864  -2.807   0.043  0.00  0.00    +0.027 A 
ATOM     10  C   UNL     1      -0.301  -2.177   1.145  0.00  0.00    +0.037 A 
ATOM     11  C   UNL     1       0.450  -1.021   0.973  0.00  0.00    +0.027 A 
ATOM     12  C   UNL     1      -1.289  -2.962  -2.418  0.00  0.00    +0.044 C 
ENDBRANCH   1  10
BRANCH   3  13
ATOM     13  C   UNL     1      -0.147  -2.635   4.847  0.00  0.00    +0.074 A 
ATOM     14  C   UNL     1      -0.189  -4.025   4.981  0.00  0.00    +0.041 A 
ATOM     15  C   UNL     1      -0.266  -4.593   6.240  0.00  0.00    +0.061 A 
ATOM     16  C   UNL     1      -0.302  -3.780   7.371  0.00  0.00    +0.147 A 
ATOM     17  C   UNL     1      -0.262  -2.403   7.241  0.00  0.00    +0.079 A 
ATOM     18  C   UNL     1      -0.178  -1.826   5.987  0.00  0.00    +0.138 A 
ATOM     19  F   UNL     1      -0.133  -0.481   5.864  0.00  0.00    -0.205 F 
ATOM     20  F   UNL     1      -0.379  -4.338   8.599  0.00  0.00    -0.203 F 
BRANCH  15  21
ATOM     21  N   UNL     1      -0.308  -5.985   6.378  0.00  0.00    -0.356 N 
ATOM     22  H   UNL     1      -0.283  -6.552   5.591  0.00  0.00    +0.142 HD
ATOM     23  H   UNL     1      -0.362  -6.384   7.261  0.00  0.00    +0.142 HD
ENDBRANCH  15  21
ENDBRANCH   3  13
TORSDOF 3
