REMARK  Name = ZINC16455828
REMARK  5 active torsions:
REMARK  status: ('A' for Active; 'I' for Inactive)
REMARK    1  A    between atoms: C_1  and  C_2
REMARK    2  A    between atoms: C_2  and  C_23
REMARK    3  A    between atoms: N_5  and  C_9
REMARK    4  A    between atoms: C_9  and  C_10
REMARK    5  A    between atoms: N_15  and  C_16
REMARK                            x       y       z     vdW  Elec       q    Type
REMARK                         _______ _______ _______ _____ _____    ______ ____
ROOT
ATOM      1  C   UNL     1      -0.725   1.997  -1.246  0.00  0.00    +0.047 C 
ATOM      2  C   UNL     1      -0.019   1.472   0.006  0.00  0.00    +0.135 C 
ATOM      3  C   UNL     1       1.448   1.852  -0.009  0.00  0.00    +0.251 C 
ATOM      4  O   UNL     1       1.915   2.971  -0.016  0.00  0.00    -0.272 OA
ATOM      5  N   UNL     1       2.126   0.687  -0.014  0.00  0.00    -0.215 N 
ATOM      6  C   UNL     1       1.300  -0.365  -0.004  0.00  0.00    +0.310 C 
ATOM      7  O   UNL     1       1.677  -1.520  -0.006  0.00  0.00    -0.252 OA
ATOM      8  N   UNL     1       0.005  -0.001   0.009  0.00  0.00    -0.281 N 
ATOM      9  H   UNL     1      -0.763  -0.593   0.017  0.00  0.00    +0.152 HD
ENDROOT
BRANCH   2  10
ATOM     10  C   UNL     1      -0.689   1.993   1.252  0.00  0.00    -0.015 A 
ATOM     11  C   UNL     1      -0.287   3.197   1.800  0.00  0.00    +0.009 A 
ATOM     12  C   UNL     1      -0.904   3.679   2.939  0.00  0.00    +0.039 A 
ATOM     13  C   UNL     1      -1.917   2.949   3.538  0.00  0.00    +0.123 A 
ATOM     14  C   UNL     1      -2.315   1.741   2.991  0.00  0.00    +0.039 A 
ATOM     15  C   UNL     1      -1.700   1.264   1.849  0.00  0.00    +0.009 A 
ATOM     16  F   UNL     1      -2.517   3.416   4.655  0.00  0.00    -0.205 F 
ENDBRANCH   2  10
BRANCH   5  17
ATOM     17  C   UNL     1       3.588   0.586  -0.028  0.00  0.00    +0.214 C 
BRANCH  17  18
ATOM     18  C   UNL     1       4.075   0.549  -1.453  0.00  0.00    +0.238 C 
ATOM     19  O   UNL     1       3.280   0.602  -2.367  0.00  0.00    -0.274 OA
ATOM     20  N   UNL     1       5.395   0.457  -1.712  0.00  0.00    -0.239 N 
ATOM     21  C   UNL     1       5.831   0.424  -2.987  0.00  0.00    +0.310 C 
ATOM     22  O   UNL     1       5.034   0.477  -3.903  0.00  0.00    -0.252 OA
ATOM     23  N   UNL     1       7.150   0.332  -3.246  0.00  0.00    -0.269 N 
ATOM     24  H   UNL     1       6.031   0.415  -0.981  0.00  0.00    +0.159 HD
ATOM     25  H   UNL     1       7.790   0.357  -2.518  0.00  0.00    +0.156 HD
BRANCH  23  26
ATOM     26  C   UNL     1       7.597   0.200  -4.566  0.00  0.00    +0.035 A 
ATOM     27  C   UNL     1       8.716  -0.572  -4.848  0.00  0.00    +0.024 A 
ATOM     28  C   UNL     1       9.151  -0.705  -6.152  0.00  0.00    +0.017 A 
ATOM     29  C   UNL     1       8.480  -0.060  -7.175  0.00  0.00    +0.018 A 
ATOM     30  C   UNL     1       7.368   0.715  -6.897  0.00  0.00    +0.017 A 
ATOM     31  C   UNL     1       6.925   0.846  -5.595  0.00  0.00    +0.024 A 
ATOM     32 BR   UNL     1       9.083  -0.239  -8.959  0.00  0.00    -0.050 Br
ENDBRANCH  23  26
ENDBRANCH  17  18
ENDBRANCH   5  17
TORSDOF 4
