REMARK  Name = ZINC36980160
REMARK  5 active torsions:
REMARK  status: ('A' for Active; 'I' for Inactive)
REMARK    1  A    between atoms: C_1  and  C_2
REMARK    2  A    between atoms: C_2  and  C_4
REMARK    3  A    between atoms: C_2  and  N_18
REMARK    4  A    between atoms: N_6  and  C_7
REMARK    5  A    between atoms: C_8  and  C_15
REMARK                            x       y       z     vdW  Elec       q    Type
REMARK                         _______ _______ _______ _____ _____    ______ ____
ROOT
ATOM      1  C   UNL     1       0.731  -0.503   1.223  0.00  0.00    +0.238 C 
ATOM      2  O   UNL     1       0.159  -1.213   2.023  0.00  0.00    -0.273 OA
ATOM      3  N   UNL     1       2.019  -0.161   1.426  0.00  0.00    -0.278 N 
ATOM      4  H   UNL     1       2.476   0.406   0.786  0.00  0.00    +0.155 HD
ENDROOT
BRANCH   3   5
ATOM      5  C   UNL     1       2.688  -0.620   2.548  0.00  0.00    +0.086 A 
ATOM      6  C   UNL     1       3.999  -0.369   2.920  0.00  0.00    +0.095 A 
ATOM      7  C   UNL     1       4.469  -0.978   4.165  0.00  0.00    -0.021 A 
ATOM      8  C   UNL     1       3.543  -1.720   4.796  0.00  0.00    -0.004 A 
ATOM      9  S   UNL     1       2.098  -1.602   3.772  0.00  0.00    -0.077 S 
ATOM     10  C   UNL     1       4.078  -2.326   6.065  0.00  0.00    +0.043 C 
ATOM     11  C   UNL     1       5.614  -2.212   5.934  0.00  0.00    +0.010 C 
ATOM     12  C   UNL     1       5.760  -1.009   4.981  0.00  0.00    +0.037 C 
BRANCH   6  13
ATOM     13  C   UNL     1       4.850   0.444   2.128  0.00  0.00    +0.389 C 
ATOM     14  O   UNL     1       4.430   0.941   1.091  0.00  0.00    -0.240 OA
ATOM     15  O   UNL     1       6.005   0.649   2.482  0.00  0.00    -0.240 OA
ENDBRANCH   6  13
ENDBRANCH   3   5
BRANCH   1  17
ATOM     16  C   UNL     1      -0.019   1.526   0.010  0.00  0.00    +0.038 C 
ATOM     17  C   UNL     1       0.002  -0.004   0.002  0.00  0.00    +0.158 C 
BRANCH  17  18
ATOM     18  N   UNL     1      -1.372  -0.511   0.012  0.00  0.00    -0.289 N 
ATOM     19  C   UNL     1      -2.051  -0.643  -1.145  0.00  0.00    +0.298 C 
ATOM     20  O   UNL     1      -1.522  -0.341  -2.197  0.00  0.00    -0.253 OA
ATOM     21  N   UNL     1      -3.315  -1.109  -1.135  0.00  0.00    -0.313 N 
ATOM     22  H   UNL     1      -1.794  -0.752   0.852  0.00  0.00    +0.151 HD
ATOM     23  H   UNL     1      -3.737  -1.350  -0.295  0.00  0.00    +0.146 HD
ATOM     24  H   UNL     1      -3.804  -1.204  -1.968  0.00  0.00    +0.146 HD
ENDBRANCH  17  18
ENDBRANCH   1  17
TORSDOF 4
