REMARK  Name = ZINC32925827
REMARK  7 active torsions:
REMARK  status: ('A' for Active; 'I' for Inactive)
REMARK    1  A    between atoms: C_1  and  C_2
REMARK    2  A    between atoms: C_5  and  N_24
REMARK    3  A    between atoms: C_7  and  N_8
REMARK    4  A    between atoms: C_9  and  C_11
REMARK    5  A    between atoms: C_13  and  C_23
REMARK    6  A    between atoms: N_14  and  C_16
REMARK    7  A    between atoms: N_27  and  C_28
REMARK                            x       y       z     vdW  Elec       q    Type
REMARK                         _______ _______ _______ _____ _____    ______ ____
ROOT
ATOM      1  C   UNL     1       2.742  -0.566  -0.855  0.00  0.00    +0.045 C 
ATOM      2  C   UNL     1       2.709   0.937  -0.753  0.00  0.00    -0.029 A 
ATOM      3  C   UNL     1       3.858   1.670  -0.981  0.00  0.00    +0.007 A 
ATOM      4  C   UNL     1       3.832   3.048  -0.889  0.00  0.00    +0.024 A 
ATOM      5  C   UNL     1       2.649   3.702  -0.566  0.00  0.00    +0.037 A 
ATOM      6  C   UNL     1       1.492   2.970  -0.342  0.00  0.00    +0.047 A 
ATOM      7  C   UNL     1       1.523   1.585  -0.429  0.00  0.00    +0.038 A 
ENDROOT
BRANCH   5   8
ATOM      8  N   UNL     1       2.623   5.098  -0.473  0.00  0.00    -0.269 N 
ATOM      9  C   UNL     1       3.700   5.762  -0.008  0.00  0.00    +0.308 C 
ATOM     10  O   UNL     1       4.658   5.145   0.416  0.00  0.00    -0.252 OA
ATOM     11  N   UNL     1       3.715   7.110  -0.014  0.00  0.00    -0.269 N 
ATOM     12  H   UNL     1       1.724   5.653  -0.778  0.00  0.00    +0.156 HD
ATOM     13  H   UNL     1       2.821   7.668  -0.329  0.00  0.00    +0.156 HD
BRANCH  11  14
ATOM     14  C   UNL     1       4.868   7.798   0.379  0.00  0.00    +0.035 A 
ATOM     15  C   UNL     1       5.662   7.298   1.403  0.00  0.00    +0.023 A 
ATOM     16  C   UNL     1       6.801   7.978   1.786  0.00  0.00    +0.002 A 
ATOM     17  C   UNL     1       7.147   9.161   1.158  0.00  0.00    +0.000 A 
ATOM     18  C   UNL     1       6.355   9.664   0.142  0.00  0.00    +0.002 A 
ATOM     19  C   UNL     1       5.217   8.986  -0.249  0.00  0.00    +0.023 A 
ENDBRANCH  11  14
ENDBRANCH   5   8
BRANCH   7  20
ATOM     20  N   UNL     1       0.361   0.843  -0.198  0.00  0.00    -0.279 N 
ATOM     21  C   UNL     1      -0.574   1.303   0.657  0.00  0.00    +0.287 C 
ATOM     22  O   UNL     1      -0.445   2.400   1.166  0.00  0.00    -0.266 OA
ATOM     23  H   UNL     1       0.209  -0.117  -0.714  0.00  0.00    +0.155 HD
BRANCH  21  24
ATOM     24  C   UNL     1      -1.756   0.476   0.975  0.00  0.00    +0.237 A 
ATOM     25  N   UNL     1      -2.023  -0.747   0.479  0.00  0.00    -0.207 NA
ATOM     26  C   UNL     1      -3.155  -1.141   1.006  0.00  0.00    +0.131 A 
ATOM     27  N   UNL     1      -3.590  -0.158   1.820  0.00  0.00    -0.217 N 
ATOM     28  N   UNL     1      -2.736   0.806   1.789  0.00  0.00    -0.140 NA
ATOM     29  C   UNL     1      -3.849  -2.453   0.745  0.00  0.00    +0.088 C 
BRANCH  27  30
ATOM     30  C   UNL     1      -4.773  -0.181   2.573  0.00  0.00    +0.068 A 
ATOM     31  C   UNL     1      -5.908  -0.799   2.066  0.00  0.00    +0.030 A 
ATOM     32  C   UNL     1      -7.070  -0.826   2.812  0.00  0.00    +0.040 A 
ATOM     33  C   UNL     1      -7.106  -0.227   4.060  0.00  0.00    +0.124 A 
ATOM     34  C   UNL     1      -5.977   0.395   4.565  0.00  0.00    +0.040 A 
ATOM     35  C   UNL     1      -4.811   0.419   3.825  0.00  0.00    +0.030 A 
ATOM     36  F   UNL     1      -8.246  -0.249   4.785  0.00  0.00    -0.205 F 
ENDBRANCH  27  30
ENDBRANCH  21  24
ENDBRANCH   7  20
TORSDOF 5
