REMARK  Name = ZINC02890591
REMARK  9 active torsions:
REMARK  status: ('A' for Active; 'I' for Inactive)
REMARK    1  A    between atoms: C_1  and  C_2
REMARK    2  A    between atoms: C_5  and  C_8
REMARK    3  A    between atoms: C_8  and  N_9
REMARK    4  A    between atoms: C_10  and  N_11
REMARK    5  A    between atoms: C_12  and  S_26
REMARK    6  A    between atoms: C_18  and  C_25
REMARK    7  A    between atoms: S_26  and  C_29
REMARK    8  A    between atoms: C_32  and  C_36
REMARK    9  A    between atoms: C_33  and  C_35
REMARK                            x       y       z     vdW  Elec       q    Type
REMARK                         _______ _______ _______ _____ _____    ______ ____
ROOT
ATOM      1  N   UNL     1       2.580  -0.724  -3.693  0.00  0.00    -0.308 N 
ATOM      2  C   UNL     1       2.193  -0.256  -2.456  0.00  0.00    +0.124 A 
ATOM      3  C   UNL     1       2.961   0.726  -1.786  0.00  0.00    +0.132 A 
ATOM      4  C   UNL     1       4.094   1.208  -2.353  0.00  0.00    +0.047 A 
ATOM      5  C   UNL     1       4.498   0.727  -3.619  0.00  0.00    +0.084 A 
ATOM      6  C   UNL     1       3.725  -0.247  -4.284  0.00  0.00    +0.150 A 
ATOM      7  N   UNL     1       4.115  -0.691  -5.472  0.00  0.00    -0.211 NA
ATOM      8  C   UNL     1       5.224  -0.236  -6.054  0.00  0.00    +0.145 A 
ATOM      9  C   UNL     1       5.591  -0.742  -7.315  0.00  0.00    -0.007 A 
ATOM     10  C   UNL     1       6.723  -0.284  -7.920  0.00  0.00    +0.008 A 
ATOM     11  C   UNL     1       7.507   0.685  -7.278  0.00  0.00    +0.019 A 
ATOM     12  C   UNL     1       7.141   1.160  -6.067  0.00  0.00    +0.096 A 
ATOM     13  N   UNL     1       6.011   0.708  -5.453  0.00  0.00    -0.267 N 
ATOM     14  C   UNL     1       5.673   1.206  -4.242  0.00  0.00    +0.268 A 
ATOM     15  O   UNL     1       6.367   2.048  -3.700  0.00  0.00    -0.267 OA
ATOM     16  C   UNL     1       4.737  -1.783  -7.993  0.00  0.00    +0.047 C 
ENDROOT
BRANCH   2  17
ATOM     17  N   UNL     1       1.100  -0.721  -1.896  0.00  0.00    -0.343 N 
ATOM     18  H   UNL     1       0.787  -0.350  -0.909  0.00  0.00    +0.144 HD
ATOM     19  H   UNL     1       0.497  -1.481  -2.415  0.00  0.00    +0.144 HD
ENDBRANCH   2  17
BRANCH   3  20
ATOM     20  S   UNL     1       2.448   1.318  -0.207  0.00  0.00    +0.028 S 
ATOM     21  O   UNL     1       3.396   2.301   0.185  0.00  0.00    -0.164 OA
ATOM     22  O   UNL     1       2.167   0.172   0.585  0.00  0.00    -0.164 OA
BRANCH  20  23
ATOM     23  C   UNL     1       0.917   2.158  -0.438  0.00  0.00    +0.094 A 
ATOM     24  C   UNL     1       0.908   3.484  -0.830  0.00  0.00    +0.027 A 
ATOM     25  C   UNL     1      -0.294   4.143  -1.011  0.00  0.00    +0.005 A 
ATOM     26  C   UNL     1      -1.486   3.475  -0.802  0.00  0.00    -0.047 A 
ATOM     27  C   UNL     1      -1.477   2.149  -0.415  0.00  0.00    -0.046 A 
ATOM     28  C   UNL     1      -0.276   1.491  -0.228  0.00  0.00    +0.031 A 
ATOM     29  C   UNL     1      -2.778   1.420  -0.192  0.00  0.00    +0.044 C 
ATOM     30  C   UNL     1      -2.796   4.194  -1.000  0.00  0.00    +0.044 C 
ENDBRANCH  20  23
ENDBRANCH   3  20
BRANCH   1  31
ATOM     31  C   UNL     1       1.772  -1.737  -4.378  0.00  0.00    +0.160 C 
BRANCH  31  36
ATOM     32  C   UNL     1       3.596  -7.005  -2.859  0.00  0.00    +0.044 C 
ATOM     33  C   UNL     1       3.120  -5.632  -3.255  0.00  0.00    -0.050 A 
ATOM     34  C   UNL     1       2.131  -5.004  -2.521  0.00  0.00    +0.004 A 
ATOM     35  C   UNL     1       1.694  -3.744  -2.884  0.00  0.00    +0.005 A 
ATOM     36  C   UNL     1       2.247  -3.111  -3.982  0.00  0.00    -0.028 A 
ATOM     37  C   UNL     1       3.233  -3.740  -4.719  0.00  0.00    +0.005 A 
ATOM     38  C   UNL     1       3.672  -4.999  -4.353  0.00  0.00    +0.004 A 
ENDBRANCH  31  36
ENDBRANCH   1  31
TORSDOF 5
