REMARK  Name = ZINC03770930
REMARK  11 active torsions:
REMARK  status: ('A' for Active; 'I' for Inactive)
REMARK    1  A    between atoms: C_1  and  C_2
REMARK    2  A    between atoms: C_2  and  O_3
REMARK    3  A    between atoms: O_3  and  C_4
REMARK    4  A    between atoms: C_4  and  C_6
REMARK    5  A    between atoms: C_7  and  C_34
REMARK    6  A    between atoms: C_14  and  C_16
REMARK    7  A    between atoms: C_19  and  O_24
REMARK    8  A    between atoms: C_20  and  O_22
REMARK    9  A    between atoms: O_22  and  C_23
REMARK   10  A    between atoms: O_24  and  C_25
REMARK   11  A    between atoms: C_25  and  C_26
REMARK                            x       y       z     vdW  Elec       q    Type
REMARK                         _______ _______ _______ _____ _____    ______ ____
ROOT
ATOM      1  C   UNL     1       1.597  -0.213  -0.818  0.00  0.00    +0.087 C 
ATOM      2  C   UNL     1       2.552   0.457  -0.125  0.00  0.00    +0.053 C 
ATOM      3  N   UNL     1       2.246   1.532   0.686  0.00  0.00    -0.283 N 
ATOM      4  C   UNL     1       0.975   2.077   0.570  0.00  0.00    +0.219 A 
ATOM      5  N   UNL     1       0.499   3.202   1.030  0.00  0.00    -0.201 NA
ATOM      6  C   UNL     1      -0.783   3.326   0.670  0.00  0.00    +0.247 A 
ATOM      7  N   UNL     1      -1.139   2.272  -0.022  0.00  0.00    -0.156 NA
ATOM      8  N   UNL     1      -0.019   1.446  -0.102  0.00  0.00    -0.221 N 
ATOM      9  C   UNL     1       0.136   0.148  -0.753  0.00  0.00    +0.179 C 
ATOM     10  H   UNL     1       2.894   1.892   1.312  0.00  0.00    +0.155 HD
ENDROOT
BRANCH   9  11
ATOM     11  C   UNL     1      -0.604  -0.901   0.036  0.00  0.00    -0.015 A 
ATOM     12  C   UNL     1      -0.258  -1.147   1.352  0.00  0.00    +0.010 A 
ATOM     13  C   UNL     1      -0.938  -2.104   2.082  0.00  0.00    +0.050 A 
ATOM     14  C   UNL     1      -1.962  -2.827   1.492  0.00  0.00    +0.162 A 
ATOM     15  C   UNL     1      -2.307  -2.583   0.166  0.00  0.00    +0.162 A 
ATOM     16  C   UNL     1      -1.625  -1.619  -0.558  0.00  0.00    +0.055 A 
BRANCH  15  17
ATOM     17  O   UNL     1      -3.311  -3.291  -0.418  0.00  0.00    -0.491 OA
ATOM     18  C   UNL     1      -3.611  -2.987  -1.782  0.00  0.00    +0.277 C 
ENDBRANCH  15  17
BRANCH  14  19
ATOM     19  O   UNL     1      -2.628  -3.772   2.207  0.00  0.00    -0.484 OA
BRANCH  19  20
ATOM     20  C   UNL     1      -2.220  -3.968   3.562  0.00  0.00    +0.264 C 
BRANCH  20  21
ATOM     21  C   UNL     1      -3.064  -5.047   4.190  0.00  0.00    -0.009 A 
ATOM     22  C   UNL     1      -4.238  -4.715   4.841  0.00  0.00    +0.008 A 
ATOM     23  C   UNL     1      -5.016  -5.704   5.412  0.00  0.00    +0.022 A 
ATOM     24  C   UNL     1      -4.615  -7.026   5.344  0.00  0.00    +0.059 A 
ATOM     25  C   UNL     1      -3.437  -7.358   4.697  0.00  0.00    +0.060 A 
ATOM     26  C   UNL     1      -2.662  -6.367   4.121  0.00  0.00    +0.028 A 
ATOM     27 CL   UNL     1      -2.932  -9.017   4.610  0.00  0.00    -0.082 Cl
ATOM     28 CL   UNL     1      -5.589  -8.268   6.067  0.00  0.00    -0.082 Cl
ENDBRANCH  20  21
ENDBRANCH  19  20
ENDBRANCH  14  19
ENDBRANCH   9  11
BRANCH   2  29
ATOM     29  C   UNL     1       3.959   0.023  -0.241  0.00  0.00    -0.003 A 
ATOM     30  C   UNL     1       4.360  -1.207   0.286  0.00  0.00    +0.010 A 
ATOM     31  C   UNL     1       5.675  -1.608   0.170  0.00  0.00    +0.001 A 
ATOM     32  C   UNL     1       6.598  -0.790  -0.458  0.00  0.00    +0.000 A 
ATOM     33  C   UNL     1       6.209   0.432  -0.978  0.00  0.00    +0.001 A 
ATOM     34  C   UNL     1       4.896   0.843  -0.873  0.00  0.00    +0.010 A 
ENDBRANCH   2  29
BRANCH   1  35
ATOM     35  C   UNL     1       1.988  -1.292  -1.632  0.00  0.00    +0.339 C 
ATOM     36  O   UNL     1       3.170  -1.532  -1.799  0.00  0.00    -0.245 OA
BRANCH  35  37
ATOM     37  O   UNL     1       1.052  -2.061  -2.229  0.00  0.00    -0.462 OA
BRANCH  37  39
ATOM     38  C   UNL     1       0.325  -3.891  -3.630  0.00  0.00    +0.048 C 
ATOM     39  C   UNL     1       1.520  -3.139  -3.042  0.00  0.00    +0.229 C 
ENDBRANCH  37  39
ENDBRANCH  35  37
ENDBRANCH   1  35
TORSDOF 9
