REMARK  Name = ZINC29253470
REMARK  11 active torsions:
REMARK  status: ('A' for Active; 'I' for Inactive)
REMARK    1  A    between atoms: C_1  and  C_2
REMARK    2  A    between atoms: C_5  and  N_9
REMARK    3  A    between atoms: C_6  and  C_8
REMARK    4  A    between atoms: C_13  and  C_15
REMARK    5  A    between atoms: C_15  and  C_17
REMARK    6  A    between atoms: C_15  and  N_18
REMARK    7  A    between atoms: N_18  and  C_19
REMARK    8  A    between atoms: N_18  and  C_20
REMARK    9  A    between atoms: C_20  and  C_21
REMARK   10  A    between atoms: C_26  and  O_27
REMARK   11  A    between atoms: O_27  and  C_28
REMARK                            x       y       z     vdW  Elec       q    Type
REMARK                         _______ _______ _______ _____ _____    ______ ____
ROOT
ATOM      1  N   UNL     1      -1.192   2.002   0.019  0.00  0.00    -0.269 N 
ATOM      2  C   UNL     1      -0.016   1.343   0.013  0.00  0.00    +0.310 C 
ATOM      3  O   UNL     1       1.028   1.965   0.000  0.00  0.00    -0.252 OA
ATOM      4  N   UNL     1       0.002  -0.004   0.015  0.00  0.00    -0.241 N 
ATOM      5  C   UNL     1       1.178  -0.663   0.004  0.00  0.00    +0.207 C 
ATOM      6  O   UNL     1       2.219  -0.043  -0.008  0.00  0.00    -0.277 OA
ATOM      7  H   UNL     1      -2.136   1.442  -0.066  0.00  0.00    +0.156 HD
ATOM      8  H   UNL     1      -0.943  -0.567   0.027  0.00  0.00    +0.159 HD
ENDROOT
BRANCH   1  13
ATOM      9  C   UNL     1      -1.276   7.655   0.478  0.00  0.00    +0.044 C 
ATOM     10  C   UNL     1      -1.254   6.154   0.356  0.00  0.00    -0.050 A 
ATOM     11  C   UNL     1      -0.178   5.437   0.847  0.00  0.00    +0.005 A 
ATOM     12  C   UNL     1      -0.154   4.061   0.737  0.00  0.00    +0.024 A 
ATOM     13  C   UNL     1      -1.213   3.396   0.132  0.00  0.00    +0.038 A 
ATOM     14  C   UNL     1      -2.290   4.119  -0.365  0.00  0.00    -0.029 A 
ATOM     15  C   UNL     1      -2.310   5.495  -0.246  0.00  0.00    +0.008 A 
ATOM     16  C   UNL     1      -3.438   3.402  -1.028  0.00  0.00    +0.045 C 
ENDBRANCH   1  13
BRANCH   5  17
ATOM     17  C   UNL     1       1.198  -2.170   0.007  0.00  0.00    +0.017 C 
ATOM     18  C   UNL     1       0.497  -2.687   1.265  0.00  0.00    -0.004 C 
BRANCH  17  19
ATOM     19  N   UNL     1       2.589  -2.641  -0.007  0.00  0.00    +0.388 N 
ATOM     20  C   UNL     1       3.280  -2.280   1.238  0.00  0.00    -0.095 C 
ATOM     21  H   UNL     1       3.107  -2.140  -0.838  0.00  0.00    -0.081 HD
BRANCH  19  22
ATOM     22  C   UNL     1       2.652  -4.089  -0.243  0.00  0.00    -0.039 C 
BRANCH  22  23
ATOM     23  C   UNL     1       4.081  -4.495  -0.495  0.00  0.00    -0.021 A 
ATOM     24  C   UNL     1       4.525  -4.698  -1.788  0.00  0.00    +0.020 A 
ATOM     25  C   UNL     1       5.837  -5.071  -2.019  0.00  0.00    +0.018 A 
ATOM     26  C   UNL     1       6.707  -5.242  -0.958  0.00  0.00    +0.019 A 
ATOM     27  C   UNL     1       6.268  -5.041   0.336  0.00  0.00    +0.047 A 
ATOM     28  C   UNL     1       4.954  -4.661   0.571  0.00  0.00    +0.122 A 
ATOM     29 BR   UNL     1       6.441  -5.347  -3.790  0.00  0.00    -0.050 Br
BRANCH  28  30
ATOM     30  O   UNL     1       4.521  -4.456   1.843  0.00  0.00    -0.495 OA
ATOM     31  C   UNL     1       5.474  -4.645   2.890  0.00  0.00    +0.277 C 
ENDBRANCH  28  30
ENDBRANCH  22  23
ENDBRANCH  19  22
ENDBRANCH  17  19
ENDBRANCH   5  17
TORSDOF 6
