REMARK  Name = ZINC09491563
REMARK  9 active torsions:
REMARK  status: ('A' for Active; 'I' for Inactive)
REMARK    1  A    between atoms: C_1  and  C_2
REMARK    2  A    between atoms: C_5  and  N_9
REMARK    3  A    between atoms: C_7  and  C_8
REMARK    4  A    between atoms: C_13  and  S_15
REMARK    5  A    between atoms: S_15  and  C_16
REMARK    6  A    between atoms: C_16  and  C_17
REMARK    7  A    between atoms: N_19  and  C_20
REMARK    8  A    between atoms: C_22  and  C_29
REMARK    9  A    between atoms: C_24  and  C_26
REMARK                            x       y       z     vdW  Elec       q    Type
REMARK                         _______ _______ _______ _____ _____    ______ ____
ROOT
ATOM      1  C   UNL     1      -6.103   2.867   0.175  0.00  0.00    +0.227 C 
ATOM      2  O   UNL     1      -5.062   3.488   0.190  0.00  0.00    -0.275 OA
ATOM      3  N   UNL     1      -6.086   1.525   0.057  0.00  0.00    -0.285 N 
ATOM      4  H   UNL     1      -6.919   1.035  -0.030  0.00  0.00    +0.155 HD
ENDROOT
BRANCH   3   5
ATOM      5  C   UNL     1      -4.866   0.838   0.058  0.00  0.00    +0.035 A 
ATOM      6  C   UNL     1      -4.721  -0.317  -0.697  0.00  0.00    +0.036 A 
ATOM      7  C   UNL     1      -3.507  -1.004  -0.697  0.00  0.00    +0.039 A 
ATOM      8  C   UNL     1      -2.439  -0.530   0.062  0.00  0.00    +0.026 A 
ATOM      9  C   UNL     1      -2.588   0.630   0.820  0.00  0.00    +0.039 A 
ATOM     10  C   UNL     1      -3.807   1.310   0.820  0.00  0.00    +0.036 A 
BRANCH   9  11
ATOM     11  C   UNL     1      -1.458   1.137   1.628  0.00  0.00    +0.242 C 
ATOM     12  O   UNL     1      -1.589   2.148   2.289  0.00  0.00    -0.270 OA
ATOM     13  N   UNL     1      -0.283   0.477   1.632  0.00  0.00    -0.325 N 
ATOM     14  H   UNL     1      -0.179  -0.331   1.105  0.00  0.00    +0.145 HD
ATOM     15  H   UNL     1       0.459   0.811   2.159  0.00  0.00    +0.145 HD
ENDBRANCH   9  11
BRANCH   7  16
ATOM     16  C   UNL     1      -3.353  -2.235  -1.503  0.00  0.00    +0.242 C 
ATOM     17  O   UNL     1      -4.285  -2.648  -2.165  0.00  0.00    -0.270 OA
ATOM     18  N   UNL     1      -2.180  -2.898  -1.502  0.00  0.00    -0.325 N 
ATOM     19  H   UNL     1      -1.436  -2.569  -0.974  0.00  0.00    +0.145 HD
ATOM     20  H   UNL     1      -2.079  -3.706  -2.030  0.00  0.00    +0.145 HD
ENDBRANCH   7  16
ENDBRANCH   3   5
BRANCH   1  21
ATOM     21  C   UNL     1      -7.417   3.597   0.290  0.00  0.00    +0.172 C 
BRANCH  21  22
ATOM     22  S   UNL     1      -7.109   5.378   0.435  0.00  0.00    -0.088 S 
BRANCH  22  27
ATOM     23  N   UNL     1     -11.986   8.480   0.896  0.00  0.00    -0.292 N 
ATOM     24  C   UNL     1     -10.966   7.543   0.774  0.00  0.00    +0.187 A 
ATOM     25  N   UNL     1     -11.045   6.231   0.661  0.00  0.00    -0.125 NA
ATOM     26  N   UNL     1      -9.896   5.483   0.545  0.00  0.00    -0.133 NA
ATOM     27  C   UNL     1      -8.720   6.081   0.559  0.00  0.00    +0.160 A 
ATOM     28  S   UNL     1      -9.198   7.794   0.728  0.00  0.00    -0.024 S 
ATOM     29  H   UNL     1     -11.778   9.427   0.886  0.00  0.00    +0.154 HD
BRANCH  23  34
ATOM     30  C   UNL     1     -17.362   6.762   1.456  0.00  0.00    +0.044 C 
ATOM     31  C   UNL     1     -15.933   7.218   1.307  0.00  0.00    -0.047 A 
ATOM     32  C   UNL     1     -14.899   6.384   1.689  0.00  0.00    +0.005 A 
ATOM     33  C   UNL     1     -13.589   6.799   1.555  0.00  0.00    +0.023 A 
ATOM     34  C   UNL     1     -13.310   8.056   1.034  0.00  0.00    +0.033 A 
ATOM     35  C   UNL     1     -14.352   8.894   0.656  0.00  0.00    +0.027 A 
ATOM     36  C   UNL     1     -15.660   8.471   0.789  0.00  0.00    -0.046 A 
ATOM     37  C   UNL     1     -16.790   9.377   0.373  0.00  0.00    +0.044 C 
ENDBRANCH  23  34
ENDBRANCH  22  27
ENDBRANCH  21  22
ENDBRANCH   1  21
TORSDOF 7
