REMARK  Name = ZINC14100801
REMARK  4 active torsions:
REMARK  status: ('A' for Active; 'I' for Inactive)
REMARK    1  A    between atoms: C_1  and  C_2
REMARK    2  A    between atoms: C_5  and  C_26
REMARK    3  A    between atoms: C_6  and  S_9
REMARK    4  A    between atoms: S_9  and  N_12
REMARK                            x       y       z     vdW  Elec       q    Type
REMARK                         _______ _______ _______ _____ _____    ______ ____
ROOT
ATOM      1  N   UNL     1      -3.685  -2.543  -1.196  0.00  0.00    -0.174 NA
ATOM      2  C   UNL     1      -2.521  -3.438  -1.122  0.00  0.00    +0.128 C 
ATOM      3  C   UNL     1      -1.472  -2.802  -0.200  0.00  0.00    +0.126 C 
ATOM      4  N   UNL     1      -1.268  -1.407  -0.613  0.00  0.00    -0.283 N 
ATOM      5  C   UNL     1      -2.431  -0.511  -0.681  0.00  0.00    +0.126 C 
ATOM      6  C   UNL     1      -3.480  -1.147  -1.609  0.00  0.00    +0.128 C 
ATOM      7  C   UNL     1      -0.035  -0.955  -0.917  0.00  0.00    +0.305 C 
ATOM      8  O   UNL     1       0.837  -1.739  -1.238  0.00  0.00    -0.252 OA
ATOM      9  N   UNL     1       0.230   0.365  -0.867  0.00  0.00    -0.281 N 
ATOM     10  C   UNL     1      -0.737   1.311  -0.287  0.00  0.00    +0.137 C 
ATOM     11  C   UNL     1       0.003   2.186   0.737  0.00  0.00    +0.179 C 
ATOM     12  O   UNL     1       1.157   2.759   0.117  0.00  0.00    -0.377 OA
ATOM     13  C   UNL     1       2.123   1.801  -0.322  0.00  0.00    +0.179 C 
ATOM     14  C   UNL     1       1.493   0.905  -1.395  0.00  0.00    +0.137 C 
ENDROOT
BRANCH   1  15
ATOM     15  S   UNL     1      -5.199  -3.098  -0.820  0.00  0.00    +0.063 S 
ATOM     16  O   UNL     1      -6.121  -2.167  -1.371  0.00  0.00    -0.153 OA
ATOM     17  O   UNL     1      -5.220  -4.479  -1.155  0.00  0.00    -0.153 OA
BRANCH  15  23
ATOM     18  C   UNL     1      -4.744  -5.171   3.958  0.00  0.00    +0.045 C 
ATOM     19  C   UNL     1      -5.141  -4.000   3.097  0.00  0.00    -0.029 A 
ATOM     20  C   UNL     1      -5.638  -2.850   3.680  0.00  0.00    +0.025 A 
ATOM     21  C   UNL     1      -6.002  -1.775   2.889  0.00  0.00    +0.046 A 
ATOM     22  C   UNL     1      -5.862  -1.849   1.514  0.00  0.00    -0.004 A 
ATOM     23  C   UNL     1      -5.370  -3.001   0.931  0.00  0.00    +0.128 A 
ATOM     24  C   UNL     1      -5.006  -4.076   1.722  0.00  0.00    +0.071 A 
ATOM     25 CL   UNL     1      -4.382  -5.521   0.989  0.00  0.00    -0.081 Cl
ATOM     26  C   UNL     1      -6.252  -0.676   0.653  0.00  0.00    +0.047 C 
ATOM     27 CL   UNL     1      -6.627  -0.331   3.621  0.00  0.00    -0.083 Cl
ENDBRANCH  15  23
ENDBRANCH   1  15
TORSDOF 2
