REMARK  Name = ZINC00718458
REMARK  10 active torsions:
REMARK  status: ('A' for Active; 'I' for Inactive)
REMARK    1  A    between atoms: C_1  and  C_2
REMARK    2  A    between atoms: C_2  and  O_3
REMARK    3  A    between atoms: O_3  and  C_4
REMARK    4  A    between atoms: C_6  and  C_12
REMARK    5  A    between atoms: C_9  and  O_10
REMARK    6  A    between atoms: C_15  and  C_26
REMARK    7  A    between atoms: C_21  and  N_25
REMARK    8  A    between atoms: C_22  and  C_23
REMARK    9  A    between atoms: C_29  and  O_32
REMARK   10  A    between atoms: O_32  and  C_33
REMARK                            x       y       z     vdW  Elec       q    Type
REMARK                         _______ _______ _______ _____ _____    ______ ____
ROOT
ATOM      1  C   UNL     1       0.783  -4.980  -0.012  0.00  0.00    +0.102 C 
ATOM      2  C   UNL     1       0.619  -5.925  -1.174  0.00  0.00    +0.054 A 
ATOM      3  C   UNL     1       0.722  -5.668  -2.545  0.00  0.00    +0.100 A 
ATOM      4  N   UNL     1       0.498  -6.799  -3.188  0.00  0.00    -0.171 NA
ATOM      5  N   UNL     1       0.248  -7.804  -2.240  0.00  0.00    -0.246 N 
ATOM      6  H   UNL     1       0.052  -8.734  -2.434  0.00  0.00    +0.192 HD
ATOM      7  C   UNL     1       0.327  -7.248  -1.013  0.00  0.00    +0.223 A 
ATOM      8  O   UNL     1       0.164  -7.819   0.207  0.00  0.00    -0.423 OA
ATOM      9  C   UNL     1       0.564  -7.114   1.284  0.00  0.00    +0.200 C 
ATOM     10  C   UNL     1       0.870  -5.797   1.252  0.00  0.00    +0.098 C 
ENDROOT
BRANCH   1  13
ATOM     11  C   UNL     1      -1.301  -1.831   0.119  0.00  0.00    +0.163 A 
ATOM     12  C   UNL     1      -0.211  -2.685   0.051  0.00  0.00    +0.054 A 
ATOM     13  C   UNL     1      -0.404  -4.054   0.061  0.00  0.00    -0.030 A 
ATOM     14  C   UNL     1      -1.682  -4.575   0.138  0.00  0.00    +0.023 A 
ATOM     15  C   UNL     1      -2.774  -3.729   0.206  0.00  0.00    +0.063 A 
ATOM     16  C   UNL     1      -2.587  -2.355   0.202  0.00  0.00    +0.173 A 
ATOM     17 BR   UNL     1      -4.521  -4.446   0.309  0.00  0.00    -0.046 Br
BRANCH  16  18
ATOM     18  O   UNL     1      -3.660  -1.522   0.274  0.00  0.00    -0.503 OA
ATOM     19  H   UNL     1      -4.028  -1.279  -0.586  0.00  0.00    +0.292 HD
ENDBRANCH  16  18
BRANCH  11  20
ATOM     20  O   UNL     1      -1.114  -0.484   0.109  0.00  0.00    -0.489 OA
BRANCH  20  22
ATOM     21  C   UNL     1       0.245   1.512   0.022  0.00  0.00    +0.048 C 
ATOM     22  C   UNL     1       0.234  -0.018   0.021  0.00  0.00    +0.226 C 
ENDBRANCH  20  22
ENDBRANCH  11  20
ENDBRANCH   1  13
BRANCH   3  23
ATOM     23  C   UNL     1       1.028  -4.356  -3.167  0.00  0.00    +0.003 A 
ATOM     24  C   UNL     1       2.019  -3.540  -2.624  0.00  0.00    +0.013 A 
ATOM     25  C   UNL     1       2.301  -2.321  -3.204  0.00  0.00    +0.046 A 
ATOM     26  C   UNL     1       1.600  -1.907  -4.328  0.00  0.00    +0.120 A 
ATOM     27  C   UNL     1       0.612  -2.717  -4.871  0.00  0.00    +0.046 A 
ATOM     28  C   UNL     1       0.330  -3.940  -4.299  0.00  0.00    +0.013 A 
BRANCH  26  29
ATOM     29  O   UNL     1       1.880  -0.706  -4.897  0.00  0.00    -0.495 OA
ATOM     30  C   UNL     1       1.120  -0.342  -6.052  0.00  0.00    +0.277 C 
ENDBRANCH  26  29
ENDBRANCH   3  23
BRANCH   9  31
ATOM     31  N   UNL     1       0.669  -7.773   2.485  0.00  0.00    -0.328 N 
ATOM     32  H   UNL     1       0.458  -8.718   2.540  0.00  0.00    +0.145 HD
ATOM     33  H   UNL     1       0.955  -7.293   3.278  0.00  0.00    +0.145 HD
ENDBRANCH   9  31
BRANCH  10  34
ATOM     34  C   UNL     1       1.290  -5.155   2.461  0.00  0.00    +0.101 C 
ATOM     35  N   UNL     1       1.624  -4.646   3.420  0.00  0.00    -0.191 NA
ENDBRANCH  10  34
TORSDOF 8
