REMARK  Name = ZINC39999032
REMARK  6 active torsions:
REMARK  status: ('A' for Active; 'I' for Inactive)
REMARK    1  A    between atoms: C_1  and  C_2
REMARK    2  A    between atoms: C_7  and  O_20
REMARK    3  A    between atoms: C_8  and  C_13
REMARK    4  A    between atoms: C_14  and  C_15
REMARK    5  A    between atoms: C_14  and  C_17
REMARK    6  A    between atoms: O_20  and  C_21
REMARK                            x       y       z     vdW  Elec       q    Type
REMARK                         _______ _______ _______ _____ _____    ______ ____
ROOT
ATOM      1  C   UNL     1      -1.211   0.842  -0.689  0.00  0.00    +0.045 C 
ATOM      2  C   UNL     1      -0.800  -0.603  -0.569  0.00  0.00    -0.034 A 
ATOM      3  C   UNL     1      -0.597  -1.371  -1.723  0.00  0.00    +0.008 A 
ATOM      4  C   UNL     1      -0.225  -2.678  -1.604  0.00  0.00    +0.047 A 
ATOM      5  C   UNL     1      -0.050  -3.236  -0.326  0.00  0.00    +0.144 A 
ATOM      6  N   UNL     1       0.315  -4.516  -0.221  0.00  0.00    -0.194 NA
ATOM      7  C   UNL     1       0.494  -5.094   0.954  0.00  0.00    +0.235 A 
ATOM      8  C   UNL     1       0.296  -4.343   2.139  0.00  0.00    +0.103 A 
ATOM      9  C   UNL     1      -0.091  -2.983   2.016  0.00  0.00    +0.269 A 
ATOM     10  O   UNL     1      -0.273  -2.298   3.007  0.00  0.00    -0.266 OA
ATOM     11  N   UNL     1      -0.255  -2.461   0.781  0.00  0.00    -0.267 N 
ATOM     12  C   UNL     1      -0.622  -1.155   0.653  0.00  0.00    +0.099 A 
ENDROOT
BRANCH   8  13
ATOM     13  C   UNL     1       0.479  -4.930   3.404  0.00  0.00    +0.042 C 
ATOM     14  C   UNL     1      -0.218  -6.082   3.741  0.00  0.00    +0.114 C 
BRANCH  14  15
ATOM     15  C   UNL     1       0.045  -6.750   5.021  0.00  0.00    +0.252 C 
ATOM     16  O   UNL     1       0.874  -6.294   5.786  0.00  0.00    -0.270 OA
ATOM     17  N   UNL     1      -0.632  -7.868   5.348  0.00  0.00    -0.325 N 
ATOM     18  H   UNL     1      -1.293  -8.232   4.738  0.00  0.00    +0.145 HD
ATOM     19  H   UNL     1      -0.458  -8.310   6.194  0.00  0.00    +0.145 HD
ENDBRANCH  14  15
BRANCH  14  20
ATOM     20  C   UNL     1      -1.194  -6.619   2.841  0.00  0.00    +0.104 C 
ATOM     21  N   UNL     1      -1.967  -7.044   2.126  0.00  0.00    -0.191 NA
ENDBRANCH  14  20
ENDBRANCH   8  13
BRANCH   7  22
ATOM     22  O   UNL     1       0.863  -6.392   1.025  0.00  0.00    -0.436 OA
BRANCH  22  23
ATOM     23  C   UNL     1       1.103  -7.051  -0.140  0.00  0.00    +0.149 A 
ATOM     24  C   UNL     1       0.117  -7.848  -0.703  0.00  0.00    +0.049 A 
ATOM     25  C   UNL     1       0.363  -8.517  -1.886  0.00  0.00    +0.023 A 
ATOM     26  C   UNL     1       1.593  -8.394  -2.510  0.00  0.00    +0.043 A 
ATOM     27  C   UNL     1       2.578  -7.601  -1.950  0.00  0.00    +0.043 A 
ATOM     28  C   UNL     1       2.334  -6.924  -0.769  0.00  0.00    +0.085 A 
ATOM     29 CL   UNL     1       3.568  -5.922  -0.070  0.00  0.00    -0.080 Cl
ATOM     30 CL   UNL     1       1.899  -9.236  -3.997  0.00  0.00    -0.083 Cl
ENDBRANCH  22  23
ENDBRANCH   7  22
TORSDOF 5
