REMARK  Name = ZINC02207102
REMARK  5 active torsions:
REMARK  status: ('A' for Active; 'I' for Inactive)
REMARK    1  A    between atoms: C_4  and  C_7
REMARK    2  A    between atoms: C_16  and  C_17
REMARK    3  A    between atoms: N_19  and  N_20
REMARK    4  A    between atoms: C_21  and  C_22
REMARK    5  A    between atoms: C_26  and  N_28
REMARK                            x       y       z     vdW  Elec       q    Type
REMARK                         _______ _______ _______ _____ _____    ______ ____
ROOT
ATOM      1  C   UNL     1       1.172   3.566   0.009  0.00  0.00    +0.020 A 
ATOM      2  C   UNL     1       1.656   4.454  -1.054  0.00  0.00    +0.009 A 
ATOM      3  C   UNL     1       2.235   4.231  -2.306  0.00  0.00    +0.026 A 
ATOM      4  C   UNL     1       2.590   5.294  -3.089  0.00  0.00    +0.019 A 
ATOM      5  C   UNL     1       2.378   6.595  -2.649  0.00  0.00    +0.017 A 
ATOM      6  C   UNL     1       1.802   6.837  -1.422  0.00  0.00    +0.027 A 
ATOM      7  C   UNL     1       1.437   5.769  -0.605  0.00  0.00    +0.048 A 
ATOM      8  N   UNL     1       0.869   5.702   0.646  0.00  0.00    -0.350 N 
ATOM      9  H   UNL     1       0.619   6.468   1.185  0.00  0.00    +0.166 HD
ATOM     10  C   UNL     1       0.706   4.385   1.023  0.00  0.00    +0.112 A 
ATOM     11 BR   UNL     1       3.373   4.991  -4.783  0.00  0.00    -0.050 Br
ENDROOT
BRANCH   1  15
ATOM     12  C   UNL     1       1.208  -0.682  -0.014  0.00  0.00    +0.000 A 
ATOM     13  C   UNL     1       0.002  -0.004   0.002  0.00  0.00    +0.001 A 
ATOM     14  C   UNL     1      -0.017   1.375   0.010  0.00  0.00    +0.008 A 
ATOM     15  C   UNL     1       1.184   2.087   0.002  0.00  0.00    -0.015 A 
ATOM     16  C   UNL     1       2.397   1.396  -0.013  0.00  0.00    +0.008 A 
ATOM     17  C   UNL     1       2.402   0.017  -0.021  0.00  0.00    +0.001 A 
ENDBRANCH   1  15
BRANCH  10  18
ATOM     18  C   UNL     1       0.132   3.927   2.292  0.00  0.00    +0.280 C 
ATOM     19  O   UNL     1       0.036   2.735   2.522  0.00  0.00    -0.267 OA
ATOM     20  N   UNL     1      -0.288   4.825   3.205  0.00  0.00    -0.202 N 
ATOM     21  H   UNL     1      -0.211   5.775   3.022  0.00  0.00    +0.178 HD
BRANCH  20  22
ATOM     22  N   UNL     1      -0.836   4.388   4.417  0.00  0.00    -0.187 NA
ATOM     23  C   UNL     1      -1.241   5.253   5.297  0.00  0.00    +0.142 C 
BRANCH  23  24
ATOM     24  C   UNL     1      -1.817   4.793   6.572  0.00  0.00    +0.043 A 
ATOM     25  C   UNL     1      -2.255   5.720   7.521  0.00  0.00    +0.013 A 
ATOM     26  C   UNL     1      -2.793   5.283   8.713  0.00  0.00    +0.003 A 
ATOM     27  C   UNL     1      -2.902   3.928   8.973  0.00  0.00    +0.037 A 
ATOM     28  C   UNL     1      -2.474   3.000   8.043  0.00  0.00    +0.173 A 
ATOM     29  C   UNL     1      -1.936   3.422   6.838  0.00  0.00    +0.218 A 
ATOM     30  O   UNL     1      -1.520   2.511   5.921  0.00  0.00    -0.285 OA
BRANCH  28  31
ATOM     31  N   UNL     1      -2.595   1.553   8.332  0.00  0.00    +0.060 N 
ATOM     32  O   UNL     1      -3.073   1.181   9.389  0.00  0.00    -0.126 OA
ATOM     33  O   UNL     1      -2.218   0.735   7.513  0.00  0.00    -0.126 OA
ENDBRANCH  28  31
ENDBRANCH  23  24
ENDBRANCH  20  22
ENDBRANCH  10  18
TORSDOF 5
