REMARK  Name = ZINC00718461
REMARK  4 active torsions:
REMARK  status: ('A' for Active; 'I' for Inactive)
REMARK    1  A    between atoms: C_6  and  C_7
REMARK    2  A    between atoms: C_14  and  N_30
REMARK    3  A    between atoms: C_15  and  C_28
REMARK    4  A    between atoms: C_16  and  C_18
REMARK                            x       y       z     vdW  Elec       q    Type
REMARK                         _______ _______ _______ _____ _____    ______ ____
ROOT
ATOM      1  C   UNL     1      -1.272  -0.766   0.010  0.00  0.00    +0.100 A 
ATOM      2  C   UNL     1      -1.507  -1.982  -0.638  0.00  0.00    +0.054 A 
ATOM      3  C   UNL     1      -2.796  -2.353  -0.386  0.00  0.00    +0.223 A 
ATOM      4  N   UNL     1      -3.352  -1.401   0.392  0.00  0.00    -0.246 N 
ATOM      5  H   UNL     1      -4.262  -1.399   0.728  0.00  0.00    +0.192 HD
ATOM      6  N   UNL     1      -2.381  -0.418   0.635  0.00  0.00    -0.171 NA
ATOM      7  O   UNL     1      -3.338  -3.497  -0.874  0.00  0.00    -0.423 OA
ATOM      8  C   UNL     1      -2.497  -4.413  -1.395  0.00  0.00    +0.200 C 
ATOM      9  C   UNL     1      -1.204  -4.161  -1.698  0.00  0.00    +0.098 C 
ATOM     10  C   UNL     1      -0.572  -2.808  -1.483  0.00  0.00    +0.103 C 
ENDROOT
BRANCH  10  11
ATOM     11  C   UNL     1      -0.355  -2.131  -2.812  0.00  0.00    -0.017 A 
ATOM     12  C   UNL     1      -1.431  -1.884  -3.644  0.00  0.00    +0.055 A 
ATOM     13  C   UNL     1      -1.234  -1.262  -4.866  0.00  0.00    +0.167 A 
ATOM     14  C   UNL     1       0.050  -0.886  -5.253  0.00  0.00    +0.167 A 
ATOM     15  C   UNL     1       1.124  -1.137  -4.415  0.00  0.00    +0.065 A 
ATOM     16  C   UNL     1       0.919  -1.753  -3.193  0.00  0.00    +0.026 A 
ATOM     17 BR   UNL     1       2.385  -2.087  -2.047  0.00  0.00    -0.050 Br
ATOM     18  O   UNL     1      -0.020  -0.299  -6.484  0.00  0.00    -0.453 OA
ATOM     19  C   UNL     1      -1.298  -0.687  -7.023  0.00  0.00    +0.466 C 
ATOM     20  O   UNL     1      -2.108  -0.911  -5.854  0.00  0.00    -0.453 OA
ENDBRANCH  10  11
BRANCH   1  26
ATOM     21  C   UNL     1      -0.017   1.389   0.010  0.00  0.00    +0.011 A 
ATOM     22  C   UNL     1       1.170   2.094   0.002  0.00  0.00    +0.022 A 
ATOM     23  C   UNL     1       2.378   1.419  -0.013  0.00  0.00    +0.059 A 
ATOM     24  C   UNL     1       2.403   0.033  -0.021  0.00  0.00    +0.060 A 
ATOM     25  C   UNL     1       1.220  -0.680  -0.014  0.00  0.00    +0.031 A 
ATOM     26  C   UNL     1       0.002  -0.004   0.002  0.00  0.00    +0.004 A 
ATOM     27 CL   UNL     1       3.922  -0.807  -0.041  0.00  0.00    -0.082 Cl
ATOM     28 CL   UNL     1       3.868   2.311  -0.022  0.00  0.00    -0.082 Cl
ENDBRANCH   1  26
BRANCH   8  29
ATOM     29  N   UNL     1      -2.982  -5.675  -1.631  0.00  0.00    -0.328 N 
ATOM     30  H   UNL     1      -3.906  -5.886  -1.424  0.00  0.00    +0.145 HD
ATOM     31  H   UNL     1      -2.402  -6.356  -2.006  0.00  0.00    +0.145 HD
ENDBRANCH   8  29
BRANCH   9  32
ATOM     32  C   UNL     1      -0.405  -5.217  -2.244  0.00  0.00    +0.101 C 
ATOM     33  N   UNL     1       0.229  -6.054  -2.677  0.00  0.00    -0.191 NA
ENDBRANCH   9  32
TORSDOF 4
