REMARK  Name = ZINC37348756
REMARK  3 active torsions:
REMARK  status: ('A' for Active; 'I' for Inactive)
REMARK    1  A    between atoms: C_6  and  C_7
REMARK    2  A    between atoms: C_8  and  C_14
REMARK    3  A    between atoms: C_12  and  N_13
REMARK                            x       y       z     vdW  Elec       q    Type
REMARK                         _______ _______ _______ _____ _____    ______ ____
ROOT
ATOM      1  C   UNL     1      -1.289  -0.733   0.033  0.00  0.00    +0.049 A 
ATOM      2  C   UNL     1      -1.691  -1.688   1.001  0.00  0.00    +0.103 A 
ATOM      3  N   UNL     1      -2.852  -2.180   0.632  0.00  0.00    -0.172 NA
ATOM      4  N   UNL     1      -3.240  -1.574  -0.568  0.00  0.00    -0.263 N 
ATOM      5  H   UNL     1      -4.058  -1.756  -1.058  0.00  0.00    +0.190 HD
ATOM      6  C   UNL     1      -2.281  -0.684  -0.929  0.00  0.00    +0.120 A 
ENDROOT
BRANCH   2   7
ATOM      7  C   UNL     1      -0.933  -2.064   2.218  0.00  0.00    +0.017 A 
ATOM      8  C   UNL     1      -0.415  -1.076   3.054  0.00  0.00    +0.014 A 
ATOM      9  C   UNL     1       0.290  -1.431   4.185  0.00  0.00    +0.039 A 
ATOM     10  C   UNL     1       0.484  -2.769   4.492  0.00  0.00    +0.124 A 
ATOM     11  C   UNL     1      -0.028  -3.755   3.666  0.00  0.00    +0.054 A 
ATOM     12  C   UNL     1      -0.740  -3.409   2.534  0.00  0.00    +0.030 A 
ATOM     13 BR   UNL     1      -1.446  -4.756   1.411  0.00  0.00    -0.050 Br
ATOM     14  F   UNL     1       1.176  -3.111   5.601  0.00  0.00    -0.205 F 
ENDBRANCH   2   7
BRANCH   1  20
ATOM     15  C   UNL     1      -0.100   1.449   0.223  0.00  0.00    +0.010 A 
ATOM     16  C   UNL     1       1.065   2.189   0.239  0.00  0.00    +0.020 A 
ATOM     17  C   UNL     1       2.289   1.561   0.086  0.00  0.00    +0.041 A 
ATOM     18  C   UNL     1       2.352   0.189  -0.084  0.00  0.00    +0.020 A 
ATOM     19  C   UNL     1       1.194  -0.561  -0.102  0.00  0.00    +0.010 A 
ATOM     20  C   UNL     1      -0.042   0.067   0.051  0.00  0.00    -0.012 A 
ATOM     21 CL   UNL     1       3.750   2.498   0.108  0.00  0.00    -0.084 Cl
ENDBRANCH   1  20
BRANCH   6  22
ATOM     22  N   UNL     1      -2.292   0.125  -2.058  0.00  0.00    -0.343 N 
ATOM     23  H   UNL     1      -1.553   0.729  -2.228  0.00  0.00    +0.144 HD
ATOM     24  H   UNL     1      -3.039   0.085  -2.675  0.00  0.00    +0.144 HD
ENDBRANCH   6  22
TORSDOF 3
