REMARK  Name = ZINC29642241
REMARK  9 active torsions:
REMARK  status: ('A' for Active; 'I' for Inactive)
REMARK    1  A    between atoms: C_1  and  C_2
REMARK    2  A    between atoms: C_2  and  C_3
REMARK    3  A    between atoms: C_2  and  C_4
REMARK    4  A    between atoms: C_7  and  C_10
REMARK    5  A    between atoms: C_12  and  C_15
REMARK    6  A    between atoms: N_17  and  N_18
REMARK    7  A    between atoms: N_18  and  C_19
REMARK    8  A    between atoms: C_19  and  N_21
REMARK    9  A    between atoms: N_21  and  C_22
REMARK                            x       y       z     vdW  Elec       q    Type
REMARK                         _______ _______ _______ _____ _____    ______ ____
ROOT
ATOM      1  C   UNL     1       2.854   3.009   5.200  0.00  0.00    +0.279 C 
ATOM      2  O   UNL     1       2.506   2.996   6.365  0.00  0.00    -0.267 OA
ATOM      3  N   UNL     1       1.982   2.667   4.231  0.00  0.00    -0.230 N 
ATOM      4  H   UNL     1       2.297   2.679   3.178  0.00  0.00    +0.173 HD
ENDROOT
BRANCH   1   7
ATOM      5  C   UNL     1       5.855   3.768   3.276  0.00  0.00    +0.109 A 
ATOM      6  N   UNL     1       4.619   3.417   3.581  0.00  0.00    -0.234 NA
ATOM      7  C   UNL     1       4.231   3.399   4.847  0.00  0.00    +0.135 A 
ATOM      8  C   UNL     1       5.126   3.754   5.826  0.00  0.00    +0.080 A 
ATOM      9  S   UNL     1       6.544   4.105   4.888  0.00  0.00    -0.075 S 
BRANCH   5  13
ATOM     10  C   UNL     1       7.704   4.025  -0.540  0.00  0.00    -0.045 A 
ATOM     11  C   UNL     1       8.427   4.336   0.598  0.00  0.00    +0.004 A 
ATOM     12  C   UNL     1       7.832   4.255   1.840  0.00  0.00    +0.011 A 
ATOM     13  C   UNL     1       6.499   3.858   1.947  0.00  0.00    +0.007 A 
ATOM     14  C   UNL     1       5.777   3.540   0.796  0.00  0.00    +0.011 A 
ATOM     15  C   UNL     1       6.382   3.631  -0.441  0.00  0.00    +0.004 A 
BRANCH  10  17
ATOM     16  C   UNL     1       8.330   2.743  -2.568  0.00  0.00    +0.012 C 
ATOM     17  C   UNL     1       8.361   4.116  -1.894  0.00  0.00    +0.013 C 
ATOM     18  C   UNL     1       7.606   5.127  -2.760  0.00  0.00    +0.012 C 
ENDBRANCH  10  17
ENDBRANCH   5  13
ENDBRANCH   1   7
BRANCH   3  19
ATOM     19  N   UNL     1       0.673   2.296   4.567  0.00  0.00    -0.246 N 
ATOM     20  H   UNL     1       0.358   2.284   5.621  0.00  0.00    +0.172 HD
BRANCH  19  21
ATOM     21  C   UNL     1      -0.200   1.954   3.599  0.00  0.00    +0.147 C 
ATOM     22  S   UNL     1      -1.799   1.502   4.009  0.00  0.00    -0.017 S 
BRANCH  21  23
ATOM     23  N   UNL     1       0.186   1.969   2.308  0.00  0.00    -0.323 N 
ATOM     24  H   UNL     1       1.214   2.260   2.044  0.00  0.00    +0.148 HD
BRANCH  23  25
ATOM     25  C   UNL     1      -0.763   1.597   1.255  0.00  0.00    +0.072 C 
ATOM     26  C   UNL     1      -0.013   1.086   0.008  0.00  0.00    +0.022 C 
ATOM     27  C   UNL     1      -0.784   1.609  -1.216  0.00  0.00    +0.002 C 
ATOM     28  C   UNL     1      -1.978   2.421  -0.670  0.00  0.00    +0.002 C 
ATOM     29  C   UNL     1      -1.531   2.845   0.750  0.00  0.00    +0.022 C 
ENDBRANCH  23  25
ENDBRANCH  21  23
ENDBRANCH  19  21
ENDBRANCH   3  19
TORSDOF 7
