REMARK  Name = ZINC15989524
REMARK  3 active torsions:
REMARK  status: ('A' for Active; 'I' for Inactive)
REMARK    1  A    between atoms: C_1  and  C_2
REMARK    2  A    between atoms: C_2  and  C_4
REMARK    3  A    between atoms: N_23  and  C_26
REMARK                            x       y       z     vdW  Elec       q    Type
REMARK                         _______ _______ _______ _____ _____    ______ ____
ROOT
ATOM      1  C   UNL     1      -1.293  -0.775   0.010  0.00  0.00    +0.152 C 
ATOM      2  C   UNL     1      -1.919  -0.730   1.419  0.00  0.00    +0.117 C 
ATOM      3  C   UNL     1      -2.507  -2.162   1.607  0.00  0.00    +0.115 C 
ATOM      4  C   UNL     1      -1.634  -3.045   0.718  0.00  0.00    +0.117 C 
ATOM      5  N   UNL     1      -1.037  -2.172  -0.320  0.00  0.00    -0.317 N 
ATOM      6  C   UNL     1      -0.392  -2.683  -1.438  0.00  0.00    +0.072 C 
ATOM      7  C   UNL     1      -0.896  -3.823  -1.951  0.00  0.00    +0.023 C 
ATOM      8  C   UNL     1      -2.087  -4.433  -1.325  0.00  0.00    -0.019 A 
ATOM      9  C   UNL     1      -2.447  -4.089  -0.003  0.00  0.00    -0.019 A 
ATOM     10  C   UNL     1      -3.549  -4.665   0.583  0.00  0.00    +0.006 A 
ATOM     11  C   UNL     1      -4.280  -5.618  -0.106  0.00  0.00    +0.000 A 
ATOM     12  C   UNL     1      -3.907  -5.994  -1.385  0.00  0.00    +0.001 A 
ATOM     13  C   UNL     1      -2.841  -5.378  -2.022  0.00  0.00    +0.008 A 
ATOM     14  C   UNL     1      -3.900  -2.007   1.037  0.00  0.00    +0.232 C 
ATOM     15  O   UNL     1      -4.615  -2.908   0.654  0.00  0.00    -0.274 OA
ATOM     16  N   UNL     1      -4.209  -0.700   1.028  0.00  0.00    -0.209 N 
ATOM     17  C   UNL     1      -3.171   0.129   1.350  0.00  0.00    +0.232 C 
ATOM     18  O   UNL     1      -3.225   1.323   1.553  0.00  0.00    -0.274 OA
ENDROOT
BRANCH  16  19
ATOM     19  C   UNL     1      -5.489  -0.222   0.715  0.00  0.00    +0.058 A 
ATOM     20  C   UNL     1      -6.430  -0.044   1.720  0.00  0.00    +0.025 A 
ATOM     21  C   UNL     1      -7.691   0.428   1.409  0.00  0.00    +0.002 A 
ATOM     22  C   UNL     1      -8.016   0.724   0.098  0.00  0.00    +0.001 A 
ATOM     23  C   UNL     1      -7.082   0.548  -0.906  0.00  0.00    +0.017 A 
ATOM     24  C   UNL     1      -5.817   0.081  -0.600  0.00  0.00    +0.040 A 
ATOM     25 BR   UNL     1      -4.537  -0.152  -1.972  0.00  0.00    -0.048 Br
ENDBRANCH  16  19
BRANCH   1  27
ATOM     26  C   UNL     1      -0.018   1.503   0.010  0.00  0.00    +0.088 C 
ATOM     27  C   UNL     1       0.002  -0.004   0.002  0.00  0.00    +0.151 C 
ATOM     28  O   UNL     1       1.056  -0.594  -0.011  0.00  0.00    -0.296 OA
ENDBRANCH   1  27
TORSDOF 2
