REMARK  Name = ZINC04556699
REMARK  14 active torsions:
REMARK  status: ('A' for Active; 'I' for Inactive)
REMARK    1  A    between atoms: C_3  and  O_10
REMARK    2  A    between atoms: C_6  and  N_7
REMARK    3  A    between atoms: O_10  and  C_11
REMARK    4  A    between atoms: C_13  and  O_42
REMARK    5  A    between atoms: C_15  and  O_41
REMARK    6  A    between atoms: C_17  and  O_24
REMARK    7  A    between atoms: C_19  and  C_22
REMARK    8  A    between atoms: C_22  and  O_23
REMARK    9  A    between atoms: O_24  and  C_25
REMARK   10  A    between atoms: C_27  and  O_40
REMARK   11  A    between atoms: C_29  and  O_39
REMARK   12  A    between atoms: C_31  and  O_38
REMARK   13  A    between atoms: C_33  and  C_36
REMARK   14  A    between atoms: C_36  and  O_37
REMARK                            x       y       z     vdW  Elec       q    Type
REMARK                         _______ _______ _______ _____ _____    ______ ____
ROOT
ATOM      1  C   UNL     1       3.847  -3.292  -1.163  0.00  0.00    +0.339 C 
ATOM      2  C   UNL     1       4.394  -1.967  -0.625  0.00  0.00    +0.214 C 
ATOM      3  C   UNL     1       4.413  -0.934  -1.756  0.00  0.00    +0.180 C 
ATOM      4  C   UNL     1       2.997  -0.790  -2.324  0.00  0.00    +0.184 C 
ATOM      5  C   UNL     1       2.502  -2.160  -2.797  0.00  0.00    +0.179 C 
ATOM      6  O   UNL     1       2.541  -3.081  -1.704  0.00  0.00    -0.331 OA
ENDROOT
BRANCH   3   7
ATOM      7  O   UNL     1       4.854   0.326  -1.246  0.00  0.00    -0.386 OA
ATOM      8  H   UNL     1       5.744   0.308  -0.870  0.00  0.00    +0.210 HD
ENDBRANCH   3   7
BRANCH   2   9
ATOM      9  O   UNL     1       5.723  -2.163  -0.136  0.00  0.00    -0.383 OA
ATOM     10  H   UNL     1       5.786  -2.806   0.584  0.00  0.00    +0.210 HD
ENDBRANCH   2   9
BRANCH   1  11
ATOM     11  O   UNL     1       3.774  -4.244  -0.100  0.00  0.00    -0.461 OA
BRANCH  11  14
ATOM     12  C   UNL     1       3.158  -7.799   0.222  0.00  0.00    +0.032 A 
ATOM     13  C   UNL     1       3.424  -6.506   0.553  0.00  0.00    +0.048 A 
ATOM     14  C   UNL     1       3.508  -5.528  -0.441  0.00  0.00    +0.124 A 
ATOM     15  C   UNL     1       3.314  -5.862  -1.784  0.00  0.00    +0.048 A 
ATOM     16  C   UNL     1       3.052  -7.150  -2.139  0.00  0.00    +0.032 A 
ATOM     17  C   UNL     1       2.964  -8.152  -1.138  0.00  0.00    +0.074 A 
BRANCH  17  18
ATOM     18  N   UNL     1       2.704  -9.407  -1.472  0.00  0.00    -0.197 NA
ATOM     19  C   UNL     1       2.534  -9.713  -2.672  0.00  0.00    +0.041 C 
ATOM     20  S   UNL     1       2.324 -10.092  -4.164  0.00  0.00    +0.021 S 
ENDBRANCH  17  18
ENDBRANCH  11  14
ENDBRANCH   1  11
BRANCH   5  21
ATOM     21  C   UNL     1       1.067  -2.034  -3.311  0.00  0.00    +0.190 C 
BRANCH  21  22
ATOM     22  O   UNL     1       0.646  -3.285  -3.859  0.00  0.00    -0.392 OA
ATOM     23  H   UNL     1      -0.257  -3.278  -4.205  0.00  0.00    +0.210 HD
ENDBRANCH  21  22
ENDBRANCH   5  21
BRANCH   4  24
ATOM     24  O   UNL     1       2.124  -0.292  -1.309  0.00  0.00    -0.340 OA
BRANCH  24  25
ATOM     25  C   UNL     1       2.038   1.134  -1.265  0.00  0.00    +0.282 C 
ATOM     26  C   UNL     1       1.286   1.562  -0.002  0.00  0.00    +0.201 C 
ATOM     27  C   UNL     1       1.146   3.087   0.008  0.00  0.00    +0.179 C 
ATOM     28  C   UNL     1       0.432   3.531  -1.272  0.00  0.00    +0.177 C 
ATOM     29  C   UNL     1       1.217   3.027  -2.486  0.00  0.00    +0.178 C 
ATOM     30  O   UNL     1       1.337   1.605  -2.418  0.00  0.00    -0.341 OA
BRANCH  28  31
ATOM     31  O   UNL     1      -0.888   2.984  -1.297  0.00  0.00    -0.386 OA
ATOM     32  H   UNL     1      -1.441   3.258  -0.552  0.00  0.00    +0.210 HD
ENDBRANCH  28  31
BRANCH  27  33
ATOM     33  O   UNL     1       0.382   3.490   1.146  0.00  0.00    -0.386 OA
ATOM     34  H   UNL     1       0.773   3.235   1.993  0.00  0.00    +0.210 HD
ENDBRANCH  27  33
BRANCH  26  35
ATOM     35  O   UNL     1      -0.011   0.963   0.007  0.00  0.00    -0.384 OA
ATOM     36  H   UNL     1       0.002  -0.004   0.002  0.00  0.00    +0.210 HD
ENDBRANCH  26  35
BRANCH  29  37
ATOM     37  C   UNL     1       0.478   3.416  -3.769  0.00  0.00    +0.190 C 
BRANCH  37  38
ATOM     38  O   UNL     1       1.266   3.049  -4.903  0.00  0.00    -0.392 OA
ATOM     39  H   UNL     1       0.859   3.266  -5.752  0.00  0.00    +0.210 HD
ENDBRANCH  37  38
ENDBRANCH  29  37
ENDBRANCH  24  25
ENDBRANCH   4  24
TORSDOF 14
