REMARK  Name = ZINC20180803
REMARK  3 active torsions:
REMARK  status: ('A' for Active; 'I' for Inactive)
REMARK    1  A    between atoms: C_5  and  C_7
REMARK    2  A    between atoms: N_11  and  C_19
REMARK    3  A    between atoms: C_19  and  C_20
REMARK                            x       y       z     vdW  Elec       q    Type
REMARK                         _______ _______ _______ _____ _____    ______ ____
ROOT
ATOM      1  C   UNL     1       2.467   1.738  -0.012  0.00  0.00    +0.061 C 
ATOM      2  C   UNL     1       3.622   2.432  -0.121  0.00  0.00    +0.191 C 
ATOM      3  C   UNL     1       3.636   3.910  -0.123  0.00  0.00    +0.287 C 
ATOM      4  O   UNL     1       2.665   4.551  -0.480  0.00  0.00    -0.266 OA
ATOM      5  N   UNL     1       4.773   4.523   0.293  0.00  0.00    -0.253 N 
ATOM      6  C   UNL     1       5.857   3.734   0.700  0.00  0.00    +0.080 A 
ATOM      7  C   UNL     1       6.921   4.312   1.378  0.00  0.00    +0.027 A 
ATOM      8  C   UNL     1       7.987   3.530   1.781  0.00  0.00    +0.002 A 
ATOM      9  C   UNL     1       7.998   2.174   1.511  0.00  0.00    +0.004 A 
ATOM     10  C   UNL     1       6.942   1.591   0.835  0.00  0.00    +0.048 A 
ATOM     11  C   UNL     1       5.870   2.367   0.427  0.00  0.00    +0.150 A 
ATOM     12  O   UNL     1       4.828   1.798  -0.240  0.00  0.00    -0.449 OA
ENDROOT
BRANCH   1  17
ATOM     13  C   UNL     1       0.012   4.131   1.508  0.00  0.00    +0.001 A 
ATOM     14  C   UNL     1      -1.155   3.769   0.857  0.00  0.00    +0.001 A 
ATOM     15  C   UNL     1      -1.145   2.752  -0.081  0.00  0.00    +0.020 A 
ATOM     16  C   UNL     1       0.028   2.082  -0.365  0.00  0.00    +0.048 A 
ATOM     17  C   UNL     1       1.211   2.443   0.289  0.00  0.00    -0.003 A 
ATOM     18  C   UNL     1       1.193   3.476   1.231  0.00  0.00    +0.009 A 
ATOM     19 CL   UNL     1       0.036   0.801  -1.537  0.00  0.00    -0.083 Cl
ENDBRANCH   1  17
BRANCH   5  20
ATOM     20  C   UNL     1       4.867   5.985   0.310  0.00  0.00    +0.210 C 
BRANCH  20  21
ATOM     21  C   UNL     1       5.389   6.471  -1.017  0.00  0.00    +0.233 C 
ATOM     22  O   UNL     1       5.657   5.675  -1.892  0.00  0.00    -0.274 OA
ATOM     23  N   UNL     1       5.559   7.791  -1.232  0.00  0.00    -0.297 N 
ATOM     24  C   UNL     1       5.236   8.774  -0.187  0.00  0.00    +0.126 C 
ATOM     25  C   UNL     1       6.448   9.701  -0.005  0.00  0.00    +0.125 C 
ATOM     26  N   UNL     1       6.817  10.276  -1.305  0.00  0.00    -0.314 N 
ATOM     27  C   UNL     1       7.242   9.233  -2.248  0.00  0.00    +0.125 C 
ATOM     28  C   UNL     1       6.068   8.286  -2.520  0.00  0.00    +0.126 C 
ATOM     29  C   UNL     1       7.802  11.246  -1.159  0.00  0.00    +0.099 A 
ATOM     30  C   UNL     1       7.585  12.326  -0.308  0.00  0.00    +0.042 A 
ATOM     31  C   UNL     1       8.576  13.280  -0.168  0.00  0.00    +0.005 A 
ATOM     32  C   UNL     1       9.751  13.129  -0.894  0.00  0.00    +0.018 A 
ATOM     33  C   UNL     1       9.896  12.036  -1.724  0.00  0.00    +0.084 A 
ATOM     34  N   UNL     1       8.936  11.137  -1.834  0.00  0.00    -0.350 N 
ATOM     35  H   UNL     1       9.095  10.282  -2.507  0.00  0.00    +0.166 HD
ENDBRANCH  20  21
ENDBRANCH   5  20
TORSDOF 3
