REMARK  Name = ZINC32906996
REMARK  7 active torsions:
REMARK  status: ('A' for Active; 'I' for Inactive)
REMARK    1  A    between atoms: C_3  and  S_26
REMARK    2  A    between atoms: C_6  and  C_7
REMARK    3  A    between atoms: C_7  and  C_8
REMARK    4  A    between atoms: C_8  and  C_9
REMARK    5  A    between atoms: C_15  and  C_17
REMARK    6  A    between atoms: C_17  and  C_18
REMARK    7  A    between atoms: S_26  and  N_29
REMARK                            x       y       z     vdW  Elec       q    Type
REMARK                         _______ _______ _______ _____ _____    ______ ____
ROOT
ATOM      1  C   UNL     1      -1.187   1.624   0.017  0.00  0.00    +0.219 C 
ATOM      2  O   UNL     1      -1.204   2.837   0.023  0.00  0.00    -0.275 OA
ATOM      3  N   UNL     1      -0.011   0.966   0.007  0.00  0.00    -0.265 N 
ATOM      4  C   UNL     1       1.183   1.677  -0.000  0.00  0.00    +0.165 A 
ATOM      5  N   UNL     1       1.370   2.983   0.005  0.00  0.00    -0.233 NA
ATOM      6  C   UNL     1       2.583   3.499  -0.004  0.00  0.00    +0.124 A 
ATOM      7  C   UNL     1       3.644   2.656  -0.019  0.00  0.00    +0.015 A 
ATOM      8  S   UNL     1       2.812   1.075  -0.012  0.00  0.00    -0.057 S 
ATOM      9  H   UNL     1       0.004  -0.134   0.006  0.00  0.00    +0.157 HD
ENDROOT
BRANCH   1  10
ATOM     10  C   UNL     1      -2.482   0.853   0.018  0.00  0.00    +0.101 C 
BRANCH  10  11
ATOM     11  C   UNL     1      -3.658   1.831   0.029  0.00  0.00    +0.044 C 
BRANCH  11  17
ATOM     12  C   UNL     1      -5.556   0.718  -1.165  0.00  0.00    +0.005 A 
ATOM     13  C   UNL     1      -6.741   0.006  -1.163  0.00  0.00    +0.029 A 
ATOM     14  C   UNL     1      -7.329  -0.355   0.035  0.00  0.00    +0.105 A 
ATOM     15  C   UNL     1      -6.729  -0.008   1.231  0.00  0.00    +0.029 A 
ATOM     16  C   UNL     1      -5.541   0.700   1.229  0.00  0.00    +0.005 A 
ATOM     17  C   UNL     1      -4.953   1.060   0.031  0.00  0.00    -0.047 A 
BRANCH  14  18
ATOM     18  S   UNL     1      -8.842  -1.257   0.037  0.00  0.00    +0.056 S 
ATOM     19  O   UNL     1      -8.915  -1.931  -1.212  0.00  0.00    -0.153 OA
ATOM     20  O   UNL     1      -8.902  -1.946   1.279  0.00  0.00    -0.153 OA
BRANCH  18  21
ATOM     21  N   UNL     1     -10.073  -0.150   0.050  0.00  0.00    -0.204 NA
ATOM     22  H   UNL     1     -11.039  -0.675   0.052  0.00  0.00    +0.144 HD
ATOM     23  H   UNL     1     -10.003   0.487  -0.844  0.00  0.00    +0.144 HD
ENDBRANCH  18  21
ENDBRANCH  14  18
ENDBRANCH  11  17
ENDBRANCH  10  11
ENDBRANCH   1  10
BRANCH   7  24
ATOM     24  C   UNL     1       5.119   2.966  -0.031  0.00  0.00    +0.079 C 
BRANCH  24  25
ATOM     25  C   UNL     1       5.624   3.061   1.385  0.00  0.00    -0.037 A 
ATOM     26  C   UNL     1       5.615   4.277   2.042  0.00  0.00    +0.042 A 
ATOM     27  C   UNL     1       6.074   4.365   3.345  0.00  0.00    +0.126 A 
ATOM     28  C   UNL     1       6.553   3.236   3.987  0.00  0.00    +0.076 A 
ATOM     29  C   UNL     1       6.567   2.020   3.327  0.00  0.00    +0.126 A 
ATOM     30  C   UNL     1       6.102   1.933   2.025  0.00  0.00    +0.042 A 
ATOM     31  F   UNL     1       7.034   0.917   3.952  0.00  0.00    -0.205 F 
ATOM     32  F   UNL     1       6.060   5.553   3.988  0.00  0.00    -0.205 F 
ENDBRANCH  24  25
ENDBRANCH   7  24
TORSDOF 7
