REMARK  Name = ZINC08170463
REMARK  9 active torsions:
REMARK  status: ('A' for Active; 'I' for Inactive)
REMARK    1  A    between atoms: C_1  and  C_2
REMARK    2  A    between atoms: C_7  and  N_8
REMARK    3  A    between atoms: C_9  and  C_11
REMARK    4  A    between atoms: C_11  and  N_45
REMARK    5  A    between atoms: C_12  and  N_45
REMARK    6  A    between atoms: C_13  and  C_14
REMARK    7  A    between atoms: C_13  and  N_45
REMARK    8  A    between atoms: N_16  and  C_17
REMARK    9  A    between atoms: C_22  and  C_23
REMARK                            x       y       z     vdW  Elec       q    Type
REMARK                         _______ _______ _______ _____ _____    ______ ____
ROOT
ATOM      1  C   UNL     1       2.642   0.742   1.135  0.00  0.00    -0.095 C 
ATOM      2  N   UNL     1       2.415   1.592  -0.052  0.00  0.00    +0.389 N 
ATOM      3  H   UNL     1       2.348   0.993  -0.883  0.00  0.00    -0.081 HD
ENDROOT
BRANCH   2   4
ATOM      4  C   UNL     1       3.546   2.529  -0.226  0.00  0.00    +0.019 C 
BRANCH   4   6
ATOM      5  N   UNL     1       5.941   2.380  -0.827  0.00  0.00    -0.287 N 
ATOM      6  C   UNL     1       4.776   1.741  -0.597  0.00  0.00    +0.201 C 
ATOM      7  O   UNL     1       4.719   0.533  -0.688  0.00  0.00    -0.278 OA
ATOM      8  H   UNL     1       6.002   3.339  -0.698  0.00  0.00    +0.155 HD
BRANCH   5  15
ATOM      9  C   UNL     1       7.933   3.753  -2.324  0.00  0.00    +0.046 C 
ATOM     10  C   UNL     1       8.058   2.290  -1.986  0.00  0.00    -0.028 A 
ATOM     11  C   UNL     1       9.166   1.577  -2.401  0.00  0.00    +0.020 A 
ATOM     12  C   UNL     1       9.278   0.232  -2.096  0.00  0.00    +0.018 A 
ATOM     13  C   UNL     1       8.285  -0.401  -1.370  0.00  0.00    +0.017 A 
ATOM     14  C   UNL     1       7.178   0.308  -0.948  0.00  0.00    +0.024 A 
ATOM     15  C   UNL     1       7.062   1.658  -1.253  0.00  0.00    +0.036 A 
ATOM     16 BR   UNL     1      10.793  -0.743  -2.671  0.00  0.00    -0.050 Br
ENDBRANCH   5  15
ENDBRANCH   4   6
ENDBRANCH   2   4
BRANCH   2  17
ATOM     17  C   UNL     1       1.153   2.347   0.099  0.00  0.00    +0.019 C 
BRANCH  17  18
ATOM     18  C   UNL     1      -0.001   1.379   0.053  0.00  0.00    +0.201 C 
ATOM     19  O   UNL     1       0.209   0.191  -0.074  0.00  0.00    -0.278 OA
ATOM     20  N   UNL     1      -1.266   1.833   0.148  0.00  0.00    -0.286 N 
ATOM     21  H   UNL     1      -1.432   2.775   0.308  0.00  0.00    +0.155 HD
BRANCH  20  22
ATOM     22  C   UNL     1      -2.336   0.949   0.016  0.00  0.00    +0.051 A 
ATOM     23  C   UNL     1      -2.169  -0.397   0.314  0.00  0.00    +0.024 A 
ATOM     24  C   UNL     1      -3.231  -1.270   0.186  0.00  0.00    +0.002 A 
ATOM     25  C   UNL     1      -4.466  -0.814  -0.247  0.00  0.00    +0.001 A 
ATOM     26  C   UNL     1      -4.648   0.518  -0.552  0.00  0.00    +0.021 A 
ATOM     27  C   UNL     1      -3.584   1.414  -0.424  0.00  0.00    +0.073 A 
BRANCH  27  28
ATOM     28  C   UNL     1      -3.767   2.799  -0.740  0.00  0.00    +0.101 C 
ATOM     29  N   UNL     1      -3.912   3.897  -0.990  0.00  0.00    -0.191 NA
ENDBRANCH  27  28
ENDBRANCH  20  22
ENDBRANCH  17  18
ENDBRANCH   2  17
TORSDOF 7
