REMARK  Name = ZINC66181989
REMARK  16 active torsions:
REMARK  status: ('A' for Active; 'I' for Inactive)
REMARK    1  A    between atoms: C_1  and  C_2
REMARK    2  A    between atoms: C_2  and  C_3
REMARK    3  A    between atoms: C_3  and  C_4
REMARK    4  A    between atoms: C_4  and  N_5
REMARK    5  A    between atoms: N_5  and  C_6
REMARK    6  A    between atoms: C_6  and  C_7
REMARK    7  A    between atoms: C_10  and  O_23
REMARK    8  A    between atoms: C_12  and  O_13
REMARK    9  A    between atoms: O_13  and  C_14
REMARK   10  A    between atoms: C_14  and  C_15
REMARK   11  A    between atoms: C_15  and  C_16
REMARK   12  A    between atoms: C_16  and  C_17
REMARK   13  A    between atoms: O_23  and  C_24
REMARK   14  A    between atoms: C_24  and  C_25
REMARK   15  A    between atoms: C_25  and  C_26
REMARK   16  A    between atoms: C_26  and  C_27
REMARK                            x       y       z     vdW  Elec       q    Type
REMARK                         _______ _______ _______ _____ _____    ______ ____
ROOT
ATOM      1  C   UNL     1       2.222  -4.495   3.636  0.00  0.00    -0.022 A 
ATOM      2  C   UNL     1       3.540  -4.898   3.537  0.00  0.00    +0.009 A 
ATOM      3  C   UNL     1       4.211  -5.356   4.654  0.00  0.00    +0.046 A 
ATOM      4  C   UNL     1       3.562  -5.413   5.880  0.00  0.00    +0.124 A 
ATOM      5  C   UNL     1       2.240  -5.010   5.982  0.00  0.00    +0.091 A 
ATOM      6  C   UNL     1       1.571  -4.545   4.860  0.00  0.00    +0.125 A 
ENDROOT
BRANCH   1   7
ATOM      7  C   UNL     1       1.493  -3.996   2.415  0.00  0.00    -0.043 C 
BRANCH   7   8
ATOM      8  N   UNL     1       1.473  -2.527   2.423  0.00  0.00    +0.382 N 
ATOM      9  H   UNL     1       2.420  -2.178   2.416  0.00  0.00    -0.085 HD
ATOM     10  H   UNL     1       1.001  -2.202   3.253  0.00  0.00    -0.085 HD
BRANCH   8  11
ATOM     11  C   UNL     1       0.763  -2.041   1.233  0.00  0.00    -0.082 C 
BRANCH  11  12
ATOM     12  C   UNL     1       0.742  -0.511   1.242  0.00  0.00    -0.019 C 
BRANCH  12  14
ATOM     13  C   UNL     1      -0.019   1.526   0.010  0.00  0.00    +0.004 C 
ATOM     14  C   UNL     1       0.002  -0.004   0.002  0.00  0.00    -0.005 C 
ENDBRANCH  12  14
ENDBRANCH  11  12
ENDBRANCH   8  11
ENDBRANCH   7   8
ENDBRANCH   1   7
BRANCH   6  15
ATOM     15  O   UNL     1       0.276  -4.144   4.958  0.00  0.00    -0.492 OA
BRANCH  15  16
ATOM     16  C   UNL     1      -0.331  -4.222   6.250  0.00  0.00    +0.229 C 
BRANCH  16  17
ATOM     17  C   UNL     1      -1.778  -3.732   6.163  0.00  0.00    +0.046 C 
BRANCH  17  18
ATOM     18  C   UNL     1      -2.428  -3.816   7.546  0.00  0.00    +0.038 C 
BRANCH  18  19
ATOM     19  C   UNL     1      -3.853  -3.332   7.461  0.00  0.00    -0.047 A 
ATOM     20  C   UNL     1      -4.142  -1.995   7.656  0.00  0.00    +0.003 A 
ATOM     21  C   UNL     1      -5.449  -1.551   7.578  0.00  0.00    +0.000 A 
ATOM     22  C   UNL     1      -6.467  -2.446   7.305  0.00  0.00    +0.000 A 
ATOM     23  C   UNL     1      -6.178  -3.783   7.109  0.00  0.00    +0.000 A 
ATOM     24  C   UNL     1      -4.870  -4.226   7.183  0.00  0.00    +0.003 A 
ENDBRANCH  18  19
ENDBRANCH  17  18
ENDBRANCH  16  17
ENDBRANCH  15  16
ENDBRANCH   6  15
BRANCH   4  25
ATOM     25  O   UNL     1       4.223  -5.864   6.978  0.00  0.00    -0.492 OA
BRANCH  25  26
ATOM     26  C   UNL     1       5.583  -6.263   6.799  0.00  0.00    +0.229 C 
BRANCH  26  27
ATOM     27  C   UNL     1       6.156  -6.738   8.136  0.00  0.00    +0.046 C 
BRANCH  27  28
ATOM     28  C   UNL     1       7.612  -7.165   7.945  0.00  0.00    +0.038 C 
BRANCH  28  29
ATOM     29  C   UNL     1       8.176  -7.633   9.262  0.00  0.00    -0.047 A 
ATOM     30  C   UNL     1       8.789  -6.730  10.111  0.00  0.00    +0.003 A 
ATOM     31  C   UNL     1       9.306  -7.159  11.319  0.00  0.00    +0.000 A 
ATOM     32  C   UNL     1       9.210  -8.491  11.678  0.00  0.00    +0.000 A 
ATOM     33  C   UNL     1       8.596  -9.393  10.830  0.00  0.00    +0.000 A 
ATOM     34  C   UNL     1       8.075  -8.963   9.623  0.00  0.00    +0.003 A 
ENDBRANCH  28  29
ENDBRANCH  27  28
ENDBRANCH  26  27
ENDBRANCH  25  26
ENDBRANCH   4  25
TORSDOF 15
