REMARK  Name = ZINC38850328
REMARK  5 active torsions:
REMARK  status: ('A' for Active; 'I' for Inactive)
REMARK    1  A    between atoms: C_1  and  C_2
REMARK    2  A    between atoms: C_4  and  N_9
REMARK    3  A    between atoms: C_10  and  C_12
REMARK    4  A    between atoms: N_16  and  S_25
REMARK    5  A    between atoms: S_25  and  C_28
REMARK                            x       y       z     vdW  Elec       q    Type
REMARK                         _______ _______ _______ _____ _____    ______ ____
ROOT
ATOM      1  C   UNL     1       0.265  -4.851  -3.737  0.00  0.00    +0.260 C 
ATOM      2  C   UNL     1       1.555  -4.437  -4.429  0.00  0.00    +0.075 C 
ATOM      3  C   UNL     1       1.670  -5.005  -5.832  0.00  0.00    +0.135 C 
ATOM      4  N   UNL     1       1.728  -6.472  -5.786  0.00  0.00    -0.204 N 
ATOM      5  C   UNL     1       0.522  -7.177  -5.665  0.00  0.00    +0.094 A 
ATOM      6  C   UNL     1       0.072  -7.994  -6.689  0.00  0.00    +0.048 A 
ATOM      7  C   UNL     1      -1.126  -8.673  -6.548  0.00  0.00    +0.043 A 
ATOM      8  C   UNL     1      -1.871  -8.536  -5.390  0.00  0.00    +0.024 A 
ATOM      9  C   UNL     1      -1.423  -7.723  -4.364  0.00  0.00    +0.049 A 
ATOM     10  C   UNL     1      -0.224  -7.045  -4.499  0.00  0.00    +0.144 A 
ATOM     11  O   UNL     1       0.242  -6.255  -3.485  0.00  0.00    -0.478 OA
ATOM     12 CL   UNL     1      -1.695  -9.699  -7.827  0.00  0.00    -0.083 Cl
ENDROOT
BRANCH   1  14
ATOM     13  N   UNL     1       0.028  -2.771  -2.420  0.00  0.00    -0.282 N 
ATOM     14  C   UNL     1       0.148  -4.113  -2.428  0.00  0.00    +0.258 C 
ATOM     15  O   UNL     1       0.162  -4.727  -1.382  0.00  0.00    -0.271 OA
ATOM     16  H   UNL     1      -0.060  -2.287  -3.256  0.00  0.00    +0.155 HD
BRANCH  13  20
ATOM     17  C   UNL     1       1.619  -2.350   2.213  0.00  0.00    +0.045 C 
ATOM     18  C   UNL     1       0.793  -1.849   1.057  0.00  0.00    -0.035 A 
ATOM     19  C   UNL     1       0.792  -2.538  -0.141  0.00  0.00    +0.027 A 
ATOM     20  C   UNL     1       0.030  -2.075  -1.206  0.00  0.00    +0.034 A 
ATOM     21  C   UNL     1      -0.729  -0.921  -1.063  0.00  0.00    +0.024 A 
ATOM     22  C   UNL     1      -0.724  -0.236   0.136  0.00  0.00    +0.017 A 
ATOM     23  C   UNL     1       0.032  -0.703   1.197  0.00  0.00    +0.021 A 
ATOM     24 BR   UNL     1       0.029   0.233   2.841  0.00  0.00    -0.050 Br
ENDBRANCH  13  20
ENDBRANCH   1  14
BRANCH   4  25
ATOM     25  S   UNL     1       3.176  -7.270  -5.876  0.00  0.00    +0.043 S 
ATOM     26  O   UNL     1       2.854  -8.547  -6.411  0.00  0.00    -0.155 OA
ATOM     27  O   UNL     1       4.036  -6.385  -6.581  0.00  0.00    -0.155 OA
ATOM     28  C   UNL     1       3.725  -7.435  -4.155  0.00  0.00    +0.218 C 
ENDBRANCH   4  25
TORSDOF 3
