REMARK  Name = ZINC38769505
REMARK  7 active torsions:
REMARK  status: ('A' for Active; 'I' for Inactive)
REMARK    1  A    between atoms: C_1  and  C_2
REMARK    2  A    between atoms: C_5  and  N_9
REMARK    3  A    between atoms: C_6  and  C_8
REMARK    4  A    between atoms: C_13  and  C_15
REMARK    5  A    between atoms: C_15  and  C_17
REMARK    6  A    between atoms: C_15  and  S_18
REMARK    7  A    between atoms: S_18  and  C_19
REMARK                            x       y       z     vdW  Elec       q    Type
REMARK                         _______ _______ _______ _____ _____    ______ ____
ROOT
ATOM      1  C   UNL     1      -0.317  -8.357  -2.353  0.00  0.00    +0.137 C 
ATOM      2  C   UNL     1       1.080  -8.955  -2.173  0.00  0.00    +0.029 C 
ENDROOT
BRANCH   1   7
ATOM      3  N   UNL     1       0.059  -4.170  -0.021  0.00  0.00    -0.269 N 
ATOM      4  C   UNL     1      -0.040  -4.839  -1.187  0.00  0.00    +0.310 C 
ATOM      5  O   UNL     1      -0.054  -4.229  -2.238  0.00  0.00    -0.252 OA
ATOM      6  N   UNL     1      -0.124  -6.184  -1.187  0.00  0.00    -0.239 N 
ATOM      7  C   UNL     1      -0.223  -6.853  -2.353  0.00  0.00    +0.234 C 
ATOM      8  O   UNL     1      -0.237  -6.244  -3.401  0.00  0.00    -0.274 OA
ATOM      9  H   UNL     1       0.135  -4.658   0.814  0.00  0.00    +0.156 HD
ATOM     10  H   UNL     1      -0.113  -6.671  -0.348  0.00  0.00    +0.159 HD
BRANCH   3  15
ATOM     11  C   UNL     1       0.025   1.503   0.005  0.00  0.00    +0.044 C 
ATOM     12  C   UNL     1       0.034  -0.004  -0.002  0.00  0.00    -0.050 A 
ATOM     13  C   UNL     1       0.632  -0.685  -1.046  0.00  0.00    +0.005 A 
ATOM     14  C   UNL     1       0.641  -2.066  -1.055  0.00  0.00    +0.024 A 
ATOM     15  C   UNL     1       0.051  -2.771  -0.014  0.00  0.00    +0.038 A 
ATOM     16  C   UNL     1      -0.548  -2.083   1.033  0.00  0.00    -0.029 A 
ATOM     17  C   UNL     1      -0.551  -0.702   1.039  0.00  0.00    +0.008 A 
ATOM     18  C   UNL     1      -1.191  -2.843   2.165  0.00  0.00    +0.045 C 
ENDBRANCH   3  15
ENDBRANCH   1   7
BRANCH   1  19
ATOM     19  S   UNL     1      -1.016  -8.919  -3.930  0.00  0.00    -0.076 S 
BRANCH  19  20
ATOM     20  C   UNL     1      -1.198 -10.659  -3.719  0.00  0.00    +0.182 C 
ATOM     21  N   UNL     1      -0.835 -11.194  -2.567  0.00  0.00    -0.151 NA
ATOM     22  C   UNL     1      -0.941 -12.499  -2.314  0.00  0.00    +0.272 C 
ATOM     23  O   UNL     1      -0.595 -12.960  -1.239  0.00  0.00    -0.268 OA
ATOM     24  C   UNL     1      -1.498 -13.382  -3.389  0.00  0.00    +0.071 C 
ATOM     25  C   UNL     1      -1.747 -14.700  -3.325  0.00  0.00    -0.042 C 
ATOM     26  C   UNL     1      -1.653 -15.522  -2.042  0.00  0.00    +0.033 C 
ATOM     27  C   UNL     1      -3.009 -16.217  -1.862  0.00  0.00    +0.004 C 
ATOM     28  C   UNL     1      -3.381 -16.986  -3.127  0.00  0.00    +0.002 C 
ATOM     29  C   UNL     1      -3.560 -16.032  -4.312  0.00  0.00    +0.019 C 
ATOM     30  C   UNL     1      -2.213 -15.370  -4.614  0.00  0.00    +0.079 C 
ATOM     31  S   UNL     1      -2.456 -13.933  -5.724  0.00  0.00    -0.097 S 
ATOM     32  C   UNL     1      -1.855 -12.667  -4.634  0.00  0.00    +0.112 C 
ATOM     33  N   UNL     1      -1.699 -11.371  -4.729  0.00  0.00    -0.217 NA
ENDBRANCH  19  20
ENDBRANCH   1  19
TORSDOF 4
