REMARK  Name = ZINC09597986
REMARK  9 active torsions:
REMARK  status: ('A' for Active; 'I' for Inactive)
REMARK    1  A    between atoms: C_1  and  C_2
REMARK    2  A    between atoms: C_4  and  N_30
REMARK    3  A    between atoms: C_8  and  N_11
REMARK    4  A    between atoms: C_12  and  C_14
REMARK    5  A    between atoms: C_14  and  C_15
REMARK    6  A    between atoms: C_15  and  C_16
REMARK    7  A    between atoms: N_18  and  C_19
REMARK    8  A    between atoms: C_24  and  C_29
REMARK    9  A    between atoms: C_26  and  C_28
REMARK                            x       y       z     vdW  Elec       q    Type
REMARK                         _______ _______ _______ _____ _____    ______ ____
ROOT
ATOM      1  C   UNL     1      -3.186  -0.690  -1.882  0.00  0.00    +0.044 C 
ATOM      2  C   UNL     1      -2.034   0.020  -1.217  0.00  0.00    -0.038 A 
ATOM      3  C   UNL     1      -1.980   1.381  -1.181  0.00  0.00    +0.045 A 
ATOM      4  C   UNL     1      -0.899   2.020  -0.557  0.00  0.00    +0.099 A 
ATOM      5  C   UNL     1       0.079  -0.004  -0.004  0.00  0.00    +0.048 A 
ATOM      6  C   UNL     1      -0.986  -0.708  -0.618  0.00  0.00    +0.003 A 
ATOM      7  C   UNL     1      -0.981  -2.110  -0.621  0.00  0.00    +0.033 A 
ATOM      8  C   UNL     1       0.061  -2.786  -0.024  0.00  0.00    +0.034 A 
ATOM      9  C   UNL     1       1.110  -2.085   0.581  0.00  0.00    +0.025 A 
ATOM     10  C   UNL     1       1.127  -0.725   0.594  0.00  0.00    +0.028 A 
ATOM     11  N   UNL     1       0.136   1.373   0.034  0.00  0.00    -0.343 N 
ATOM     12  H   UNL     1       0.911   1.876   0.481  0.00  0.00    +0.167 HD
ENDROOT
BRANCH   4  13
ATOM     13  N   UNL     1      -0.858   3.406  -0.527  0.00  0.00    -0.317 N 
ATOM     14  C   UNL     1      -0.946   3.965  -1.882  0.00  0.00    +0.106 C 
ATOM     15  C   UNL     1      -1.043   5.490  -1.801  0.00  0.00    +0.019 C 
ATOM     16  C   UNL     1       0.192   6.038  -1.083  0.00  0.00    +0.003 C 
ATOM     17  C   UNL     1       0.288   5.404   0.308  0.00  0.00    +0.019 C 
ATOM     18  C   UNL     1       0.347   3.882   0.166  0.00  0.00    +0.106 C 
ENDBRANCH   4  13
BRANCH   8  19
ATOM     19  N   UNL     1       0.071  -4.186  -0.024  0.00  0.00    -0.285 N 
ATOM     20  C   UNL     1      -1.086  -4.868   0.084  0.00  0.00    +0.218 C 
ATOM     21  O   UNL     1      -2.142  -4.272   0.098  0.00  0.00    -0.275 OA
ATOM     22  H   UNL     1       0.911  -4.665  -0.101  0.00  0.00    +0.155 HD
BRANCH  20  23
ATOM     23  C   UNL     1      -1.068  -6.371   0.189  0.00  0.00    +0.105 C 
BRANCH  23  24
ATOM     24  C   UNL     1      -2.502  -6.892   0.300  0.00  0.00    +0.105 C 
BRANCH  24  25
ATOM     25  C   UNL     1      -2.485  -8.395   0.404  0.00  0.00    +0.214 C 
ATOM     26  O   UNL     1      -1.428  -8.991   0.391  0.00  0.00    -0.276 OA
ATOM     27  N   UNL     1      -3.642  -9.077   0.513  0.00  0.00    -0.312 N 
ATOM     28  H   UNL     1      -4.487  -8.600   0.523  0.00  0.00    +0.149 HD
BRANCH  27  29
ATOM     29  C   UNL     1      -3.624 -10.538   0.614  0.00  0.00    +0.076 C 
ATOM     30  C   UNL     1      -3.418 -10.946   2.074  0.00  0.00    +0.022 C 
ATOM     31  C   UNL     1      -3.400 -12.472   2.180  0.00  0.00    +0.002 C 
ATOM     32  C   UNL     1      -4.731 -13.034   1.677  0.00  0.00    +0.003 C 
ATOM     33  C   UNL     1      -4.937 -12.627   0.217  0.00  0.00    -0.009 C 
ATOM     34  C   UNL     1      -4.955 -11.101   0.111  0.00  0.00    +0.009 C 
ATOM     35  C   UNL     1      -5.162 -10.693  -1.349  0.00  0.00    +0.009 C 
ATOM     36  C   UNL     1      -6.268 -13.189  -0.286  0.00  0.00    +0.008 C 
ENDBRANCH  27  29
ENDBRANCH  24  25
ENDBRANCH  23  24
ENDBRANCH  20  23
ENDBRANCH   8  19
TORSDOF 6
