REMARK  Name = ZINC35427272
REMARK  3 active torsions:
REMARK  status: ('A' for Active; 'I' for Inactive)
REMARK    1  A    between atoms: C_1  and  N_2
REMARK    2  A    between atoms: C_16  and  C_32
REMARK    3  A    between atoms: N_22  and  C_23
REMARK                            x       y       z     vdW  Elec       q    Type
REMARK                         _______ _______ _______ _____ _____    ______ ____
ROOT
ATOM      1  C   UNL     1      -0.327   1.347  -1.315  0.00  0.00    -0.096 C 
ATOM      2  N   UNL     1      -0.285  -0.099  -1.058  0.00  0.00    +0.381 N 
ATOM      3  C   UNL     1      -1.653  -0.603  -0.873  0.00  0.00    -0.074 C 
ATOM      4  C   UNL     1      -1.667  -2.133  -0.921  0.00  0.00    +0.018 C 
ATOM      5  C   UNL     1      -0.634  -2.644   0.081  0.00  0.00    -0.034 A 
ATOM      6  C   UNL     1      -0.620  -3.968   0.560  0.00  0.00    +0.004 A 
ATOM      7  C   UNL     1       0.350  -4.280   1.462  0.00  0.00    +0.090 A 
ATOM      8  S   UNL     1       1.275  -2.788   1.656  0.00  0.00    -0.077 S 
ATOM      9  C   UNL     1       0.323  -1.793   0.539  0.00  0.00    -0.021 A 
ATOM     10  C   UNL     1       0.503  -0.359   0.162  0.00  0.00    -0.036 C 
ATOM     11  N   UNL     1       0.485  -5.528   2.058  0.00  0.00    -0.312 N 
ATOM     12  C   UNL     1       1.571  -6.309   2.266  0.00  0.00    +0.092 A 
ATOM     13  C   UNL     1       1.153  -7.466   2.828  0.00  0.00    +0.020 A 
ATOM     14  C   UNL     1      -0.247  -7.380   2.987  0.00  0.00    +0.025 A 
ATOM     15  C   UNL     1      -0.631  -6.178   2.532  0.00  0.00    +0.049 A 
ATOM     16  C   UNL     1      -1.991  -5.547   2.539  0.00  0.00    +0.155 C 
ATOM     17  N   UNL     1      -2.545  -5.418   1.170  0.00  0.00    -0.268 N 
ATOM     18  C   UNL     1      -1.605  -5.022   0.106  0.00  0.00    +0.148 C 
ATOM     19  C   UNL     1      -3.847  -5.652   0.910  0.00  0.00    +0.308 C 
ATOM     20  O   UNL     1      -4.598  -5.977   1.810  0.00  0.00    -0.252 OA
ATOM     21  N   UNL     1      -4.317  -5.525  -0.347  0.00  0.00    -0.269 N 
ATOM     22  H   UNL     1      -3.707  -5.332  -1.075  0.00  0.00    +0.156 HD
ATOM     23  H   UNL     1       0.143  -0.568  -1.842  0.00  0.00    -0.082 HD
ENDROOT
BRANCH  21  24
ATOM     24  C   UNL     1      -5.687  -5.672  -0.601  0.00  0.00    +0.038 A 
ATOM     25  C   UNL     1      -6.301  -4.895  -1.574  0.00  0.00    +0.027 A 
ATOM     26  C   UNL     1      -7.651  -5.039  -1.825  0.00  0.00    +0.051 A 
ATOM     27  C   UNL     1      -8.398  -5.960  -1.108  0.00  0.00    +0.166 A 
ATOM     28  C   UNL     1      -7.785  -6.742  -0.132  0.00  0.00    +0.168 A 
ATOM     29  C   UNL     1      -6.430  -6.600   0.116  0.00  0.00    +0.073 A 
ATOM     30  O   UNL     1      -8.725  -7.561   0.424  0.00  0.00    -0.453 OA
ATOM     31  C   UNL     1      -9.996  -6.987   0.066  0.00  0.00    +0.466 C 
ATOM     32  O   UNL     1      -9.722  -6.290  -1.164  0.00  0.00    -0.453 OA
ENDBRANCH  21  24
BRANCH  16  33
ATOM     33  C   UNL     1      -1.893  -4.176   3.158  0.00  0.00    -0.021 A 
ATOM     34  C   UNL     1      -2.694  -3.150   2.694  0.00  0.00    +0.008 A 
ATOM     35  C   UNL     1      -2.605  -1.893   3.261  0.00  0.00    +0.038 A 
ATOM     36  C   UNL     1      -1.714  -1.662   4.295  0.00  0.00    +0.123 A 
ATOM     37  C   UNL     1      -0.912  -2.691   4.759  0.00  0.00    +0.038 A 
ATOM     38  C   UNL     1      -1.006  -3.948   4.194  0.00  0.00    +0.008 A 
ATOM     39  F   UNL     1      -1.626  -0.433   4.850  0.00  0.00    -0.205 F 
ENDBRANCH  16  33
TORSDOF 2
