REMARK  Name = ZINC18219554
REMARK  2 active torsions:
REMARK  status: ('A' for Active; 'I' for Inactive)
REMARK    1  A    between atoms: C_4  and  N_7
REMARK    2  A    between atoms: C_12  and  C_30
REMARK                            x       y       z     vdW  Elec       q    Type
REMARK                         _______ _______ _______ _____ _____    ______ ____
ROOT
ATOM      1  N   UNL     1       3.624  -0.652  -0.037  0.00  0.00    -0.210 N 
ATOM      2  C   UNL     1       4.801  -0.024  -0.139  0.00  0.00    +0.233 C 
ATOM      3  O   UNL     1       4.949   1.175  -0.228  0.00  0.00    -0.274 OA
ATOM      4  C   UNL     1       5.917  -1.043  -0.124  0.00  0.00    +0.125 C 
ATOM      5  C   UNL     1       6.581  -1.092  -1.517  0.00  0.00    +0.163 C 
ATOM      6  O   UNL     1       5.786  -2.026  -2.281  0.00  0.00    -0.348 OA
ATOM      7  C   UNL     1       5.463  -3.083  -1.366  0.00  0.00    +0.206 C 
ATOM      8  C   UNL     1       5.163  -2.399  -0.002  0.00  0.00    +0.138 C 
ATOM      9  C   UNL     1       3.710  -1.984   0.053  0.00  0.00    +0.234 C 
ATOM     10  O   UNL     1       2.769  -2.741   0.159  0.00  0.00    -0.274 OA
ATOM     11  C   UNL     1       4.279  -3.876  -1.844  0.00  0.00    +0.204 C 
ATOM     12  O   UNL     1       3.169  -3.446  -2.076  0.00  0.00    -0.288 OA
ATOM     13  C   UNL     1       4.724  -5.276  -1.978  0.00  0.00    +0.031 A 
ATOM     14  C   UNL     1       4.029  -6.418  -2.382  0.00  0.00    +0.012 A 
ATOM     15  C   UNL     1       4.671  -7.641  -2.427  0.00  0.00    +0.001 A 
ATOM     16  C   UNL     1       6.006  -7.744  -2.075  0.00  0.00    +0.001 A 
ATOM     17  C   UNL     1       6.712  -6.627  -1.673  0.00  0.00    +0.012 A 
ATOM     18  C   UNL     1       6.082  -5.382  -1.620  0.00  0.00    +0.031 A 
ATOM     19  C   UNL     1       6.601  -4.056  -1.233  0.00  0.00    +0.204 C 
ATOM     20  O   UNL     1       7.731  -3.799  -0.876  0.00  0.00    -0.288 OA
ENDROOT
BRANCH   5  21
ATOM     21  C   UNL     1       6.551   0.272  -2.159  0.00  0.00    -0.018 A 
ATOM     22  C   UNL     1       5.395   0.722  -2.769  0.00  0.00    +0.009 A 
ATOM     23  C   UNL     1       5.366   1.972  -3.358  0.00  0.00    +0.039 A 
ATOM     24  C   UNL     1       6.495   2.774  -3.336  0.00  0.00    +0.123 A 
ATOM     25  C   UNL     1       7.652   2.321  -2.724  0.00  0.00    +0.039 A 
ATOM     26  C   UNL     1       7.677   1.073  -2.132  0.00  0.00    +0.009 A 
ATOM     27  F   UNL     1       6.468   3.996  -3.911  0.00  0.00    -0.205 F 
ENDBRANCH   5  21
BRANCH   1  31
ATOM     28  C   UNL     1      -0.016   1.380   0.010  0.00  0.00    +0.000 A 
ATOM     29  C   UNL     1       0.868   1.523   1.064  0.00  0.00    +0.002 A 
ATOM     30  C   UNL     1       2.075   0.851   1.051  0.00  0.00    +0.024 A 
ATOM     31  C   UNL     1       2.399   0.031  -0.021  0.00  0.00    +0.044 A 
ATOM     32  C   UNL     1       1.509  -0.112  -1.077  0.00  0.00    +0.024 A 
ATOM     33  C   UNL     1       0.304   0.563  -1.059  0.00  0.00    +0.002 A 
ENDBRANCH   1  31
TORSDOF 2
