REMARK  Name = ZINC22629572
REMARK  11 active torsions:
REMARK  status: ('A' for Active; 'I' for Inactive)
REMARK    1  A    between atoms: C_1  and  C_2
REMARK    2  A    between atoms: C_5  and  N_9
REMARK    3  A    between atoms: C_10  and  C_12
REMARK    4  A    between atoms: C_12  and  S_13
REMARK    5  A    between atoms: S_13  and  C_14
REMARK    6  A    between atoms: C_20  and  C_22
REMARK    7  A    between atoms: C_22  and  C_23
REMARK    8  A    between atoms: N_25  and  C_26
REMARK    9  A    between atoms: C_26  and  C_27
REMARK   10  A    between atoms: C_31  and  O_33
REMARK   11  A    between atoms: O_33  and  C_34
REMARK                            x       y       z     vdW  Elec       q    Type
REMARK                         _______ _______ _______ _____ _____    ______ ____
ROOT
ATOM      1  C   UNL     1       0.595  -8.711   2.632  0.00  0.00    +0.170 A 
ATOM      2  N   UNL     1       0.713  -9.496   3.739  0.00  0.00    -0.302 N 
ATOM      3  H   UNL     1       0.716  -9.095   4.622  0.00  0.00    +0.171 HD
ATOM      4  C   UNL     1       0.826 -10.835   3.602  0.00  0.00    +0.252 A 
ATOM      5  O   UNL     1       0.932 -11.553   4.582  0.00  0.00    -0.268 OA
ATOM      6  C   UNL     1       0.819 -11.385   2.308  0.00  0.00    +0.094 A 
ATOM      7  C   UNL     1       0.697 -10.549   1.236  0.00  0.00    +0.058 A 
ATOM      8  N   UNL     1       0.584  -9.236   1.422  0.00  0.00    -0.228 NA
ENDROOT
BRANCH   1   9
ATOM      9  S   UNL     1       0.447  -6.965   2.820  0.00  0.00    -0.078 S 
BRANCH   9  10
ATOM     10  C   UNL     1       0.310  -6.351   1.119  0.00  0.00    +0.173 C 
BRANCH  10  12
ATOM     11  N   UNL     1       0.059  -4.170  -0.022  0.00  0.00    -0.285 N 
ATOM     12  C   UNL     1       0.176  -4.850   1.136  0.00  0.00    +0.227 C 
ATOM     13  O   UNL     1       0.174  -4.254   2.192  0.00  0.00    -0.275 OA
ATOM     14  H   UNL     1      -0.015  -4.651  -0.861  0.00  0.00    +0.155 HD
BRANCH  11  19
ATOM     15  C   UNL     1       0.008   1.503   0.012  0.00  0.00    +0.045 C 
ATOM     16  C   UNL     1       0.022  -0.004   0.003  0.00  0.00    -0.032 A 
ATOM     17  C   UNL     1       0.777  -0.693   0.934  0.00  0.00    +0.006 A 
ATOM     18  C   UNL     1       0.792  -2.074   0.928  0.00  0.00    +0.023 A 
ATOM     19  C   UNL     1       0.046  -2.771  -0.014  0.00  0.00    +0.035 A 
ATOM     20  C   UNL     1      -0.712  -2.078  -0.948  0.00  0.00    +0.043 A 
ATOM     21  C   UNL     1      -0.726  -0.695  -0.934  0.00  0.00    +0.046 A 
ATOM     22 CL   UNL     1      -1.678   0.174  -2.096  0.00  0.00    -0.083 Cl
ENDBRANCH  11  19
ENDBRANCH  10  12
ENDBRANCH   9  10
ENDBRANCH   1   9
BRANCH   7  23
ATOM     23  C   UNL     1       0.687 -11.114  -0.161  0.00  0.00    +0.151 C 
BRANCH  23  24
ATOM     24  C   UNL     1      -0.737 -11.314  -0.612  0.00  0.00    +0.219 C 
ATOM     25  O   UNL     1      -1.653 -11.026   0.129  0.00  0.00    -0.275 OA
ATOM     26  N   UNL     1      -0.992 -11.813  -1.837  0.00  0.00    -0.311 N 
ATOM     27  H   UNL     1      -0.259 -12.044  -2.429  0.00  0.00    +0.149 HD
BRANCH  26  28
ATOM     28  C   UNL     1      -2.377 -12.008  -2.275  0.00  0.00    +0.139 C 
BRANCH  28  29
ATOM     29  C   UNL     1      -2.387 -12.573  -3.672  0.00  0.00    -0.027 A 
ATOM     30  C   UNL     1      -2.400 -11.722  -4.762  0.00  0.00    +0.005 A 
ATOM     31  C   UNL     1      -2.409 -12.237  -6.045  0.00  0.00    +0.004 A 
ATOM     32  C   UNL     1      -2.406 -13.605  -6.241  0.00  0.00    +0.045 A 
ATOM     33  C   UNL     1      -2.393 -14.461  -5.149  0.00  0.00    +0.120 A 
ATOM     34  C   UNL     1      -2.378 -13.941  -3.863  0.00  0.00    +0.050 A 
BRANCH  33  35
ATOM     35  O   UNL     1      -2.391 -15.806  -5.340  0.00  0.00    -0.495 OA
ATOM     36  C   UNL     1      -2.401 -16.270  -6.691  0.00  0.00    +0.277 C 
ENDBRANCH  33  35
ENDBRANCH  28  29
ENDBRANCH  26  28
ENDBRANCH  23  24
ENDBRANCH   7  23
TORSDOF 9
