REMARK  Name = ZINC12760689
REMARK  10 active torsions:
REMARK  status: ('A' for Active; 'I' for Inactive)
REMARK    1  A    between atoms: C_1  and  C_2
REMARK    2  A    between atoms: C_3  and  C_14
REMARK    3  A    between atoms: N_6  and  C_7
REMARK    4  A    between atoms: C_14  and  C_16
REMARK    5  A    between atoms: C_14  and  N_47
REMARK    6  A    between atoms: C_17  and  C_18
REMARK    7  A    between atoms: C_17  and  N_47
REMARK    8  A    between atoms: C_20  and  O_26
REMARK    9  A    between atoms: C_21  and  O_25
REMARK   10  A    between atoms: O_26  and  C_27
REMARK                            x       y       z     vdW  Elec       q    Type
REMARK                         _______ _______ _______ _____ _____    ______ ____
ROOT
ATOM      1  C   UNL     1      -0.110   0.958   2.351  0.00  0.00    -0.040 C 
ATOM      2  C   UNL     1       1.141   1.781   2.667  0.00  0.00    -0.009 C 
ENDROOT
BRANCH   1   5
ATOM      3  C   UNL     1       0.143  -0.807   4.922  0.00  0.00    +0.066 C 
ATOM      4  C   UNL     1      -0.928   0.217   4.649  0.00  0.00    +0.043 A 
ATOM      5  C   UNL     1      -1.038   0.981   3.538  0.00  0.00    -0.021 A 
ATOM      6  C   UNL     1      -2.170   1.791   3.682  0.00  0.00    +0.137 A 
ATOM      7  N   UNL     1      -2.717   1.528   4.841  0.00  0.00    -0.174 NA
ATOM      8  N   UNL     1      -1.951   0.541   5.473  0.00  0.00    -0.237 N 
BRANCH   8   9
ATOM      9  C   UNL     1      -2.203  -0.018   6.734  0.00  0.00    +0.068 A 
ATOM     10  C   UNL     1      -3.502  -0.336   7.107  0.00  0.00    +0.028 A 
ATOM     11  C   UNL     1      -3.748  -0.891   8.348  0.00  0.00    +0.005 A 
ATOM     12  C   UNL     1      -2.703  -1.120   9.224  0.00  0.00    +0.038 A 
ATOM     13  C   UNL     1      -1.406  -0.799   8.858  0.00  0.00    +0.125 A 
ATOM     14  C   UNL     1      -1.155  -0.248   7.614  0.00  0.00    +0.066 A 
ATOM     15  F   UNL     1      -0.387  -1.024   9.716  0.00  0.00    -0.205 F 
ENDBRANCH   8   9
ENDBRANCH   1   5
BRANCH   1  16
ATOM     16  N   UNL     1      -0.800   1.540   1.185  0.00  0.00    +0.386 N 
ATOM     17  H   UNL     1      -0.700   2.562   1.207  0.00  0.00    -0.085 HD
ATOM     18  H   UNL     1      -1.796   1.292   1.222  0.00  0.00    -0.085 HD
BRANCH  16  19
ATOM     19  C   UNL     1      -0.216   1.022  -0.067  0.00  0.00    -0.044 C 
BRANCH  19  20
ATOM     20  C   UNL     1      -0.940   1.632  -1.240  0.00  0.00    -0.042 A 
ATOM     21  C   UNL     1      -0.336   2.633  -1.978  0.00  0.00    +0.052 A 
ATOM     22  C   UNL     1      -0.998   3.192  -3.059  0.00  0.00    +0.162 A 
ATOM     23  C   UNL     1      -2.275   2.752  -3.393  0.00  0.00    +0.160 A 
ATOM     24  C   UNL     1      -2.878   1.752  -2.647  0.00  0.00    +0.069 A 
ATOM     25  C   UNL     1      -2.209   1.194  -1.571  0.00  0.00    +0.046 A 
ATOM     26 CL   UNL     1      -2.966  -0.058  -0.636  0.00  0.00    -0.083 Cl
BRANCH  23  27
ATOM     27  O   UNL     1      -2.930   3.301  -4.451  0.00  0.00    -0.503 OA
ATOM     28  H   UNL     1      -3.470   4.070  -4.223  0.00  0.00    +0.292 HD
ENDBRANCH  23  27
BRANCH  22  29
ATOM     29  O   UNL     1      -0.402   4.173  -3.789  0.00  0.00    -0.491 OA
ATOM     30  C   UNL     1       0.909   4.574  -3.389  0.00  0.00    +0.277 C 
ENDBRANCH  22  29
ENDBRANCH  19  20
ENDBRANCH  16  19
ENDBRANCH   1  16
TORSDOF 7
