REMARK  Name = ZINC63344306
REMARK  11 active torsions:
REMARK  status: ('A' for Active; 'I' for Inactive)
REMARK    1  A    between atoms: C_1  and  C_2
REMARK    2  A    between atoms: C_6  and  N_8
REMARK    3  A    between atoms: N_8  and  C_9
REMARK    4  A    between atoms: C_9  and  N_11
REMARK    5  A    between atoms: N_11  and  N_12
REMARK    6  A    between atoms: C_13  and  C_15
REMARK    7  A    between atoms: C_15  and  C_16
REMARK    8  A    between atoms: C_15  and  N_20
REMARK    9  A    between atoms: C_16  and  C_17
REMARK   10  A    between atoms: C_17  and  C_18
REMARK   11  A    between atoms: C_17  and  C_19
REMARK                            x       y       z     vdW  Elec       q    Type
REMARK                         _______ _______ _______ _____ _____    ______ ____
ROOT
ATOM      1  N   UNL     1       0.283  -4.218   4.706  0.00  0.00    -0.234 N 
ATOM      2  C   UNL     1       0.399  -4.902   5.862  0.00  0.00    +0.249 C 
ATOM      3  O   UNL     1       0.488  -4.304   6.913  0.00  0.00    -0.272 OA
ATOM      4  H   UNL     1       0.212  -4.695   3.865  0.00  0.00    +0.173 HD
ENDROOT
BRANCH   1   5
ATOM      5  N   UNL     1       0.266  -2.817   4.720  0.00  0.00    -0.246 N 
ATOM      6  H   UNL     1       0.337  -2.339   5.561  0.00  0.00    +0.172 HD
BRANCH   5   7
ATOM      7  C   UNL     1       0.150  -2.133   3.565  0.00  0.00    +0.151 C 
ATOM      8  S   UNL     1       0.128  -0.421   3.582  0.00  0.00    -0.017 S 
BRANCH   7   9
ATOM      9  N   UNL     1       0.051  -2.796   2.396  0.00  0.00    -0.294 N 
ATOM     10  H   UNL     1       0.000  -3.765   2.391  0.00  0.00    +0.154 HD
BRANCH   9  16
ATOM     11  C   UNL     1      -1.755   0.897  -0.302  0.00  0.00    +0.044 C 
ATOM     12  C   UNL     1      -0.844  -0.294  -0.147  0.00  0.00    -0.049 A 
ATOM     13  C   UNL     1      -0.036  -0.686  -1.198  0.00  0.00    +0.006 A 
ATOM     14  C   UNL     1       0.802  -1.778  -1.061  0.00  0.00    +0.040 A 
ATOM     15  C   UNL     1       0.834  -2.481   0.130  0.00  0.00    +0.144 A 
ATOM     16  C   UNL     1       0.022  -2.087   1.188  0.00  0.00    +0.069 A 
ATOM     17  C   UNL     1      -0.813  -0.988   1.047  0.00  0.00    +0.029 A 
ATOM     18  F   UNL     1       1.651  -3.548   0.264  0.00  0.00    -0.204 F 
ENDBRANCH   9  16
ENDBRANCH   7   9
ENDBRANCH   5   7
ENDBRANCH   1   5
BRANCH   2  19
ATOM     19  C   UNL     1       0.418  -6.408   5.846  0.00  0.00    +0.162 C 
BRANCH  19  20
ATOM     20  N   UNL     1       1.014  -6.902   7.091  0.00  0.00    -0.288 N 
ATOM     21  C   UNL     1       0.450  -6.595   8.276  0.00  0.00    +0.298 C 
ATOM     22  O   UNL     1      -0.553  -5.909   8.312  0.00  0.00    -0.253 OA
ATOM     23  N   UNL     1       0.998  -7.049   9.420  0.00  0.00    -0.313 N 
ATOM     24  H   UNL     1       1.815  -7.449   7.061  0.00  0.00    +0.151 HD
ATOM     25  H   UNL     1       1.799  -7.596   9.391  0.00  0.00    +0.146 HD
ATOM     26  H   UNL     1       0.592  -6.828  10.273  0.00  0.00    +0.146 HD
ENDBRANCH  19  20
BRANCH  19  27
ATOM     27  C   UNL     1      -1.013  -6.935   5.722  0.00  0.00    +0.035 C 
BRANCH  27  28
ATOM     28  C   UNL     1      -0.985  -8.459   5.582  0.00  0.00    -0.015 C 
ATOM     29  C   UNL     1      -2.417  -8.997   5.583  0.00  0.00    +0.007 C 
ATOM     30  C   UNL     1      -0.298  -8.837   4.268  0.00  0.00    +0.007 C 
ENDBRANCH  27  28
ENDBRANCH  19  27
ENDBRANCH   2  19
TORSDOF 8
