REMARK  Name = ZINC37137984
REMARK  7 active torsions:
REMARK  status: ('A' for Active; 'I' for Inactive)
REMARK    1  A    between atoms: C_1  and  C_2
REMARK    2  A    between atoms: C_5  and  N_12
REMARK    3  A    between atoms: C_8  and  C_10
REMARK    4  A    between atoms: C_8  and  C_11
REMARK    5  A    between atoms: N_12  and  C_13
REMARK    6  A    between atoms: C_16  and  S_20
REMARK    7  A    between atoms: S_20  and  N_23
REMARK                            x       y       z     vdW  Elec       q    Type
REMARK                         _______ _______ _______ _____ _____    ______ ____
ROOT
ATOM      1  C   UNL     1      -3.490  -2.707  -1.185  0.00  0.00    +0.042 A 
ATOM      2  C   UNL     1      -2.886  -2.368  -2.388  0.00  0.00    +0.026 A 
ATOM      3  C   UNL     1      -3.584  -2.504  -3.572  0.00  0.00    +0.030 A 
ATOM      4  C   UNL     1      -4.883  -2.978  -3.561  0.00  0.00    +0.106 A 
ATOM      5  C   UNL     1      -5.488  -3.317  -2.365  0.00  0.00    +0.045 A 
ATOM      6  C   UNL     1      -4.794  -3.188  -1.177  0.00  0.00    +0.041 A 
ATOM      7 BR   UNL     1      -5.620  -3.658   0.458  0.00  0.00    -0.048 Br
ENDROOT
BRANCH   4   8
ATOM      8  S   UNL     1      -5.770  -3.150  -5.074  0.00  0.00    +0.056 S 
ATOM      9  O   UNL     1      -7.151  -3.096  -4.744  0.00  0.00    -0.153 OA
ATOM     10  O   UNL     1      -5.172  -2.252  -5.999  0.00  0.00    -0.153 OA
BRANCH   8  11
ATOM     11  N   UNL     1      -5.478  -4.678  -5.642  0.00  0.00    -0.204 NA
ATOM     12  H   UNL     1      -4.904  -5.279  -5.142  0.00  0.00    +0.144 HD
ATOM     13  H   UNL     1      -5.880  -4.971  -6.474  0.00  0.00    +0.144 HD
ENDBRANCH   8  11
ENDBRANCH   4   8
BRANCH   1  14
ATOM     14  N   UNL     1      -2.787  -2.571   0.015  0.00  0.00    -0.340 N 
ATOM     15  H   UNL     1      -3.209  -2.812   0.855  0.00  0.00    +0.146 HD
BRANCH  14  19
ATOM     16  C   UNL     1      -0.019   1.526   0.010  0.00  0.00    +0.007 C 
ATOM     17  C   UNL     1       0.002  -0.004   0.002  0.00  0.00    -0.012 C 
ATOM     18  C   UNL     1      -1.433  -0.534   0.013  0.00  0.00    +0.025 C 
ATOM     19  C   UNL     1      -1.413  -2.063   0.004  0.00  0.00    +0.071 C 
ATOM     20  C   UNL     1      -0.673  -2.570   1.244  0.00  0.00    +0.028 C 
ATOM     21  C   UNL     1       0.763  -2.041   1.233  0.00  0.00    -0.033 C 
ATOM     22  C   UNL     1       0.742  -0.511   1.242  0.00  0.00    +0.009 C 
ATOM     23  C   UNL     1       1.503  -2.548   2.473  0.00  0.00    +0.011 C 
ATOM     24  C   UNL     1       1.479  -2.534  -0.026  0.00  0.00    +0.011 C 
ENDBRANCH  14  19
ENDBRANCH   1  14
TORSDOF 4
