REMARK  Name = ZINC18067320
REMARK  4 active torsions:
REMARK  status: ('A' for Active; 'I' for Inactive)
REMARK    1  A    between atoms: C_6  and  C_7
REMARK    2  A    between atoms: C_12  and  C_13
REMARK    3  A    between atoms: C_16  and  O_20
REMARK    4  A    between atoms: C_18  and  O_19
REMARK                            x       y       z     vdW  Elec       q    Type
REMARK                         _______ _______ _______ _____ _____    ______ ____
ROOT
ATOM      1  C   UNL     1      -1.216  -0.873   0.090  0.00  0.00    +0.027 A 
ATOM      2  C   UNL     1      -2.245  -0.706   0.968  0.00  0.00    +0.114 A 
ATOM      3  N   UNL     1      -3.286  -1.445   0.531  0.00  0.00    -0.284 N 
ATOM      4  H   UNL     1      -4.152  -1.515   0.961  0.00  0.00    +0.188 HD
ATOM      5  N   UNL     1      -2.903  -2.094  -0.649  0.00  0.00    -0.173 NA
ATOM      6  C   UNL     1      -1.663  -1.754  -0.927  0.00  0.00    +0.104 A 
ENDROOT
BRANCH   1  12
ATOM      7  C   UNL     1       0.242   1.141   0.263  0.00  0.00    +0.010 A 
ATOM      8  C   UNL     1       1.492   1.722   0.347  0.00  0.00    +0.020 A 
ATOM      9  C   UNL     1       2.627   0.929   0.347  0.00  0.00    +0.041 A 
ATOM     10  C   UNL     1       2.515  -0.448   0.263  0.00  0.00    +0.020 A 
ATOM     11  C   UNL     1       1.270  -1.038   0.179  0.00  0.00    +0.010 A 
ATOM     12  C   UNL     1       0.124  -0.244   0.179  0.00  0.00    -0.014 A 
ATOM     13 CL   UNL     1       4.196   1.665   0.451  0.00  0.00    -0.084 Cl
ENDBRANCH   1  12
BRANCH   6  14
ATOM     14  C   UNL     1      -0.873  -2.212  -2.095  0.00  0.00    +0.044 A 
ATOM     15  C   UNL     1      -0.151  -1.294  -2.854  0.00  0.00    +0.017 A 
ATOM     16  C   UNL     1       0.584  -1.723  -3.939  0.00  0.00    +0.046 A 
ATOM     17  C   UNL     1       0.606  -3.070  -4.279  0.00  0.00    +0.120 A 
ATOM     18  C   UNL     1      -0.110  -3.990  -3.529  0.00  0.00    +0.091 A 
ATOM     19  C   UNL     1      -0.846  -3.569  -2.434  0.00  0.00    +0.130 A 
BRANCH  19  20
ATOM     20  O   UNL     1      -1.543  -4.470  -1.694  0.00  0.00    -0.506 OA
ATOM     21  H   UNL     1      -2.449  -4.615  -2.002  0.00  0.00    +0.292 HD
ENDBRANCH  19  20
BRANCH  17  22
ATOM     22  O   UNL     1       1.332  -3.486  -5.350  0.00  0.00    -0.507 OA
ATOM     23  H   UNL     1       2.244  -3.727  -5.137  0.00  0.00    +0.292 HD
ENDBRANCH  17  22
ENDBRANCH   6  14
TORSDOF 4
