REMARK  Name = ZINC31155362
REMARK  16 active torsions:
REMARK  status: ('A' for Active; 'I' for Inactive)
REMARK    1  A    between atoms: C_1  and  C_2
REMARK    2  A    between atoms: C_4  and  O_42
REMARK    3  A    between atoms: C_6  and  O_41
REMARK    4  A    between atoms: C_8  and  O_40
REMARK    5  A    between atoms: C_10  and  O_13
REMARK    6  A    between atoms: O_13  and  C_14
REMARK    7  A    between atoms: C_14  and  C_15
REMARK    8  A    between atoms: C_17  and  O_39
REMARK    9  A    between atoms: C_19  and  O_38
REMARK   10  A    between atoms: C_21  and  O_37
REMARK   11  A    between atoms: C_23  and  O_26
REMARK   12  A    between atoms: O_26  and  C_27
REMARK   13  A    between atoms: C_30  and  O_35
REMARK   14  A    between atoms: C_31  and  O_33
REMARK   15  A    between atoms: O_33  and  C_34
REMARK   16  A    between atoms: O_35  and  C_36
REMARK                            x       y       z     vdW  Elec       q    Type
REMARK                         _______ _______ _______ _____ _____    ______ ____
ROOT
ATOM      1  C   UNL     1       2.954  -2.312   2.338  0.00  0.00    +0.179 C 
ATOM      2  C   UNL     1       3.857  -2.869   3.442  0.00  0.00    +0.177 C 
ATOM      3  C   UNL     1       3.808  -4.399   3.406  0.00  0.00    +0.180 C 
ATOM      4  C   UNL     1       2.354  -4.857   3.557  0.00  0.00    +0.214 C 
ATOM      5  C   UNL     1       1.510  -4.223   2.448  0.00  0.00    +0.339 C 
ATOM      6  O   UNL     1       1.624  -2.800   2.519  0.00  0.00    -0.331 OA
ENDROOT
BRANCH   4   7
ATOM      7  O   UNL     1       2.289  -6.281   3.452  0.00  0.00    -0.383 OA
ATOM      8  H   UNL     1       1.319  -6.795   3.535  0.00  0.00    +0.210 HD
ENDBRANCH   4   7
BRANCH   3   9
ATOM      9  O   UNL     1       4.590  -4.928   4.480  0.00  0.00    -0.386 OA
ATOM     10  H   UNL     1       4.673  -6.016   4.615  0.00  0.00    +0.210 HD
ENDBRANCH   3   9
BRANCH   2  11
ATOM     11  O   UNL     1       3.397  -2.405   4.714  0.00  0.00    -0.386 OA
ATOM     12  H   UNL     1       3.924  -2.704   5.631  0.00  0.00    +0.210 HD
ENDBRANCH   2  11
BRANCH   1  13
ATOM     13  C   UNL     1       2.950  -0.783   2.406  0.00  0.00    +0.197 C 
BRANCH  13  14
ATOM     14  O   UNL     1       2.203  -0.260   1.306  0.00  0.00    -0.346 OA
BRANCH  14  20
ATOM     15  C   UNL     1      -0.591   1.675   3.768  0.00  0.00    +0.041 C 
ATOM     16  C   UNL     1       0.076   1.133   2.502  0.00  0.00    +0.149 C 
ATOM     17  C   UNL     1      -0.720   1.582   1.273  0.00  0.00    +0.174 C 
ATOM     18  C   UNL     1      -0.013   1.086   0.008  0.00  0.00    +0.179 C 
ATOM     19  C   UNL     1       1.424   1.618  -0.003  0.00  0.00    +0.201 C 
ATOM     20  C   UNL     1       2.136   1.167   1.275  0.00  0.00    +0.282 C 
ATOM     21  O   UNL     1       1.410   1.635   2.414  0.00  0.00    -0.343 OA
BRANCH  19  22
ATOM     22  O   UNL     1       1.404   3.046  -0.061  0.00  0.00    -0.384 OA
ATOM     23  H   UNL     1       2.349   3.609  -0.076  0.00  0.00    +0.210 HD
ENDBRANCH  19  22
BRANCH  18  24
ATOM     24  O   UNL     1      -0.707   1.561  -1.147  0.00  0.00    -0.386 OA
ATOM     25  H   UNL     1      -0.343   1.303  -2.152  0.00  0.00    +0.210 HD
ENDBRANCH  18  24
BRANCH  17  26
ATOM     26  O   UNL     1      -2.038   1.032   1.330  0.00  0.00    -0.387 OA
ATOM     27  H   UNL     1      -2.758   1.247   0.527  0.00  0.00    +0.210 HD
ENDBRANCH  17  26
ENDBRANCH  14  20
ENDBRANCH  13  14
ENDBRANCH   1  13
BRANCH   5  28
ATOM     28  O   UNL     1       0.142  -4.601   2.615  0.00  0.00    -0.461 OA
BRANCH  28  29
ATOM     29  C   UNL     1      -0.710  -4.298   1.600  0.00  0.00    +0.128 A 
ATOM     30  C   UNL     1      -0.239  -3.645   0.471  0.00  0.00    +0.049 A 
ATOM     31  C   UNL     1      -1.103  -3.340  -0.565  0.00  0.00    +0.053 A 
ATOM     32  C   UNL     1      -2.443  -3.676  -0.471  0.00  0.00    +0.162 A 
ATOM     33  C   UNL     1      -2.920  -4.326   0.663  0.00  0.00    +0.165 A 
ATOM     34  C   UNL     1      -2.051  -4.636   1.697  0.00  0.00    +0.095 A 
BRANCH  33  35
ATOM     35  O   UNL     1      -4.235  -4.657   0.756  0.00  0.00    -0.491 OA
ATOM     36  C   UNL     1      -4.654  -5.324   1.949  0.00  0.00    +0.277 C 
ENDBRANCH  33  35
BRANCH  32  37
ATOM     37  O   UNL     1      -3.294  -3.372  -1.489  0.00  0.00    -0.491 OA
ATOM     38  C   UNL     1      -2.736  -2.704  -2.623  0.00  0.00    +0.277 C 
ENDBRANCH  32  37
ENDBRANCH  28  29
ENDBRANCH   5  28
TORSDOF 13
