REMARK  Name = ZINC25260696
REMARK  11 active torsions:
REMARK  status: ('A' for Active; 'I' for Inactive)
REMARK    1  A    between atoms: C_1  and  C_2
REMARK    2  A    between atoms: C_2  and  C_3
REMARK    3  A    between atoms: C_3  and  C_5
REMARK    4  A    between atoms: C_3  and  C_6
REMARK    5  A    between atoms: C_6  and  C_8
REMARK    6  A    between atoms: C_6  and  N_29
REMARK    7  A    between atoms: N_10  and  C_11
REMARK    8  A    between atoms: C_14  and  C_28
REMARK    9  A    between atoms: C_15  and  S_17
REMARK   10  A    between atoms: S_17  and  N_20
REMARK   11  A    between atoms: N_20  and  C_21
REMARK                            x       y       z     vdW  Elec       q    Type
REMARK                         _______ _______ _______ _____ _____    ______ ____
ROOT
ATOM      1  C   UNL     1       0.580  -3.163   1.289  0.00  0.00    +0.035 A 
ATOM      2  C   UNL     1       0.975  -2.388   2.372  0.00  0.00    +0.024 A 
ATOM      3  C   UNL     1       1.279  -1.053   2.189  0.00  0.00    +0.007 A 
ATOM      4  C   UNL     1       1.192  -0.489   0.929  0.00  0.00    -0.024 A 
ATOM      5  C   UNL     1       0.794  -1.257  -0.149  0.00  0.00    +0.113 A 
ATOM      6  C   UNL     1       0.493  -2.594   0.026  0.00  0.00    +0.052 A 
ATOM      7  C   UNL     1       1.524   0.968   0.734  0.00  0.00    +0.046 C 
ENDROOT
BRANCH   1  10
ATOM      8  C   UNL     1      -0.301  -4.928   2.619  0.00  0.00    +0.238 C 
ATOM      9  O   UNL     1      -0.632  -4.116   3.457  0.00  0.00    -0.273 OA
ATOM     10  N   UNL     1       0.272  -4.516   1.471  0.00  0.00    -0.284 N 
ATOM     11  H   UNL     1       0.496  -5.243   0.677  0.00  0.00    +0.155 HD
BRANCH   8  12
ATOM     12  C   UNL     1      -0.531  -6.397   2.862  0.00  0.00    +0.163 C 
BRANCH  12  13
ATOM     13  N   UNL     1      -1.048  -6.593   4.219  0.00  0.00    -0.288 N 
ATOM     14  C   UNL     1      -0.864  -7.771   4.847  0.00  0.00    +0.298 C 
ATOM     15  O   UNL     1      -0.268  -8.672   4.288  0.00  0.00    -0.253 OA
ATOM     16  N   UNL     1      -1.340  -7.952   6.095  0.00  0.00    -0.313 N 
ATOM     17  H   UNL     1      -1.587  -5.779   4.725  0.00  0.00    +0.151 HD
ATOM     18  H   UNL     1      -1.189  -8.913   6.607  0.00  0.00    +0.146 HD
ATOM     19  H   UNL     1      -1.879  -7.137   6.601  0.00  0.00    +0.146 HD
ENDBRANCH  12  13
BRANCH  12  20
ATOM     20  C   UNL     1      -1.545  -6.930   1.848  0.00  0.00    +0.015 C 
ATOM     21  C   UNL     1      -2.904  -6.272   2.092  0.00  0.00    +0.010 C 
BRANCH  20  23
ATOM     22  C   UNL     1      -0.360  -9.116   1.603  0.00  0.00    +0.004 C 
ATOM     23  C   UNL     1      -1.675  -8.446   2.005  0.00  0.00    +0.002 C 
ENDBRANCH  20  23
ENDBRANCH  12  20
ENDBRANCH   8  12
ENDBRANCH   1  10
BRANCH   5  24
ATOM     24  S   UNL     1       0.677  -0.531  -1.751  0.00  0.00    +0.073 S 
ATOM     25  O   UNL     1       1.873   0.211  -1.948  0.00  0.00    -0.150 OA
ATOM     26  O   UNL     1       0.266  -1.564  -2.636  0.00  0.00    -0.150 OA
BRANCH  24  27
ATOM     27  N   UNL     1      -0.560   0.569  -1.701  0.00  0.00    -0.216 N 
ATOM     28  H   UNL     1      -0.362   1.629  -1.917  0.00  0.00    +0.174 HD
BRANCH  27  29
ATOM     29  C   UNL     1      -1.855   0.150  -1.383  0.00  0.00    +0.048 A 
ATOM     30  C   UNL     1      -2.384  -0.986  -1.981  0.00  0.00    +0.025 A 
ATOM     31  C   UNL     1      -3.663  -1.401  -1.662  0.00  0.00    +0.017 A 
ATOM     32  C   UNL     1      -4.419  -0.679  -0.756  0.00  0.00    +0.018 A 
ATOM     33  C   UNL     1      -3.896   0.457  -0.163  0.00  0.00    +0.017 A 
ATOM     34  C   UNL     1      -2.617   0.873  -0.474  0.00  0.00    +0.025 A 
ATOM     35 BR   UNL     1      -6.172  -1.245  -0.327  0.00  0.00    -0.050 Br
ENDBRANCH  27  29
ENDBRANCH  24  27
ENDBRANCH   5  24
TORSDOF 8
