REMARK  Name = ZINC64064573
REMARK  4 active torsions:
REMARK  status: ('A' for Active; 'I' for Inactive)
REMARK    1  A    between atoms: C_3  and  N_28
REMARK    2  A    between atoms: C_6  and  N_7
REMARK    3  A    between atoms: C_8  and  C_10
REMARK    4  A    between atoms: C_15  and  C_17
REMARK                            x       y       z     vdW  Elec       q    Type
REMARK                         _______ _______ _______ _____ _____    ______ ____
ROOT
ATOM      1  C   UNL     1      -2.362  -2.754  -0.011  0.00  0.00    +0.060 C 
ATOM      2  H   UNL     1      -5.510  -3.003  -0.164  0.00  0.00    +0.170 HD
ATOM      3  C   UNL     1      -3.597  -2.220  -0.073  0.00  0.00    +0.098 C 
ATOM      4  N   UNL     1      -4.558  -3.180  -0.117  0.00  0.00    -0.269 N 
ATOM      5  N   UNL     1      -3.989  -4.460  -0.085  0.00  0.00    -0.219 N 
ATOM      6  C   UNL     1      -2.531  -4.258  -0.021  0.00  0.00    +0.235 C 
ATOM      7  C   UNL     1      -4.665  -5.677  -0.114  0.00  0.00    +0.161 A 
ATOM      8  C   UNL     1      -6.058  -5.702  -0.188  0.00  0.00    +0.052 A 
ATOM      9  C   UNL     1      -6.684  -6.937  -0.215  0.00  0.00    +0.077 A 
ATOM     10  C   UNL     1      -5.884  -8.077  -0.166  0.00  0.00    +0.289 A 
ATOM     11  O   UNL     1      -6.454  -9.309  -0.190  0.00  0.00    -0.264 OA
ATOM     12  N   UNL     1      -4.570  -7.957  -0.096  0.00  0.00    -0.105 NA
ATOM     13  N   UNL     1      -3.987  -6.813  -0.076  0.00  0.00    -0.129 NA
ENDROOT
BRANCH   1  15
ATOM     14  N   UNL     1      -1.145  -0.703   0.181  0.00  0.00    -0.282 N 
ATOM     15  C   UNL     1      -1.140  -2.044   0.046  0.00  0.00    +0.248 C 
ATOM     16  O   UNL     1      -0.083  -2.645  -0.026  0.00  0.00    -0.270 OA
ATOM     17  H   UNL     1      -1.979  -0.235   0.344  0.00  0.00    +0.155 HD
BRANCH  14  23
ATOM     18  C   UNL     1       0.234   1.167   0.841  0.00  0.00    +0.025 A 
ATOM     19  C   UNL     1       1.416   1.875   0.748  0.00  0.00    +0.025 A 
ATOM     20  C   UNL     1       2.425   1.434  -0.098  0.00  0.00    +0.030 A 
ATOM     21  C   UNL     1       2.245   0.281  -0.850  0.00  0.00    +0.025 A 
ATOM     22  C   UNL     1       1.063  -0.427  -0.758  0.00  0.00    +0.025 A 
ATOM     23  C   UNL     1       0.054   0.015   0.088  0.00  0.00    +0.034 A 
BRANCH  20  24
ATOM     24  N   UNL     1       3.623   2.151  -0.192  0.00  0.00    -0.326 N 
ATOM     25  C   UNL     1       3.792   3.437   0.505  0.00  0.00    +0.133 C 
ATOM     26  C   UNL     1       5.101   3.386   1.301  0.00  0.00    +0.178 C 
ATOM     27  O   UNL     1       6.165   2.989   0.432  0.00  0.00    -0.377 OA
ATOM     28  C   UNL     1       6.012   1.679  -0.120  0.00  0.00    +0.178 C 
ATOM     29  C   UNL     1       4.752   1.640  -0.984  0.00  0.00    +0.133 C 
ENDBRANCH  20  24
ENDBRANCH  14  23
ENDBRANCH   1  15
BRANCH   6  30
ATOM     30  C   UNL     1      -1.966  -4.868   1.263  0.00  0.00    +0.414 C 
ATOM     31  F   UNL     1      -2.725  -4.440   2.357  0.00  0.00    -0.168 F 
ATOM     32  F   UNL     1      -2.017  -6.264   1.178  0.00  0.00    -0.168 F 
ATOM     33  F   UNL     1      -0.638  -4.460   1.428  0.00  0.00    -0.168 F 
ENDBRANCH   6  30
TORSDOF 4
