REMARK  Name = ZINC20469910
REMARK  2 active torsions:
REMARK  status: ('A' for Active; 'I' for Inactive)
REMARK    1  A    between atoms: C_6  and  C_7
REMARK    2  A    between atoms: C_8  and  C_13
REMARK                            x       y       z     vdW  Elec       q    Type
REMARK                         _______ _______ _______ _____ _____    ______ ____
ROOT
ATOM      1  C   UNL     1      -1.036  -0.879   0.007  0.00  0.00    +0.032 C 
ATOM      2  C   UNL     1      -0.263  -0.074   0.781  0.00  0.00    +0.079 C 
ATOM      3  C   UNL     1       0.824  -0.434   1.706  0.00  0.00    +0.265 C 
ATOM      4  O   UNL     1       1.157  -1.593   1.875  0.00  0.00    -0.269 OA
ATOM      5  N   UNL     1       1.423   0.556   2.346  0.00  0.00    -0.192 N 
ATOM      6  C   UNL     1       1.028   1.866   2.139  0.00  0.00    +0.167 C 
ATOM      7  N   UNL     1       1.506   2.953   2.679  0.00  0.00    -0.279 NA
ATOM      8  S   UNL     1      -0.293   1.704   0.949  0.00  0.00    -0.049 S 
ATOM      9  C   UNL     1       2.458   0.279   3.235  0.00  0.00    +0.173 A 
ATOM     10  N   UNL     1       3.174   1.116   3.960  0.00  0.00    -0.233 NA
ATOM     11  C   UNL     1       4.128   0.683   4.760  0.00  0.00    +0.120 A 
ATOM     12  C   UNL     1       4.363  -0.651   4.823  0.00  0.00    +0.068 A 
ATOM     13  S   UNL     1       3.134  -1.258   3.677  0.00  0.00    -0.060 S 
ATOM     14  H   UNL     1       2.331   2.890   3.404  0.00  0.00    +0.189 HD
ENDROOT
BRANCH   1  16
ATOM     15  C   UNL     1      -1.692  -3.411  -0.208  0.00  0.00    +0.100 A 
ATOM     16  C   UNL     1      -0.728  -2.310  -0.100  0.00  0.00    +0.021 A 
ATOM     17  C   UNL     1       0.527  -2.887  -0.126  0.00  0.00    +0.113 A 
ATOM     18  N   UNL     1       0.366  -4.218  -0.231  0.00  0.00    -0.284 N 
ATOM     19  H   UNL     1       1.245  -4.878  -0.262  0.00  0.00    +0.188 HD
ATOM     20  N   UNL     1      -0.997  -4.524  -0.283  0.00  0.00    -0.173 NA
BRANCH  15  26
ATOM     21  C   UNL     1      -3.802  -2.312   0.536  0.00  0.00    +0.011 A 
ATOM     22  C   UNL     1      -5.177  -2.201   0.509  0.00  0.00    +0.020 A 
ATOM     23  C   UNL     1      -5.929  -3.068  -0.266  0.00  0.00    +0.041 A 
ATOM     24  C   UNL     1      -5.306  -4.046  -1.023  0.00  0.00    +0.020 A 
ATOM     25  C   UNL     1      -3.931  -4.161  -1.007  0.00  0.00    +0.011 A 
ATOM     26  C   UNL     1      -3.169  -3.291  -0.228  0.00  0.00    +0.003 A 
ATOM     27 CL   UNL     1      -7.659  -2.928  -0.290  0.00  0.00    -0.084 Cl
ENDBRANCH  15  26
ENDBRANCH   1  16
TORSDOF 2
