REMARK  Name = ZINC37205931
REMARK  3 active torsions:
REMARK  status: ('A' for Active; 'I' for Inactive)
REMARK    1  A    between atoms: C_3  and  N_20
REMARK    2  A    between atoms: C_4  and  C_10
REMARK    3  A    between atoms: C_6  and  N_7
REMARK                            x       y       z     vdW  Elec       q    Type
REMARK                         _______ _______ _______ _____ _____    ______ ____
ROOT
ATOM      1  C   UNL     1      -0.017   1.380   0.010  0.00  0.00    +0.034 A 
ATOM      2  C   UNL     1       1.165   2.095   0.002  0.00  0.00    +0.025 A 
ATOM      3  C   UNL     1       2.381   1.427  -0.013  0.00  0.00    +0.034 A 
ATOM      4  C   UNL     1       2.404   0.025  -0.021  0.00  0.00    +0.030 A 
ATOM      5  C   UNL     1       1.202  -0.684  -0.013  0.00  0.00    +0.045 A 
ATOM      6  C   UNL     1       0.002  -0.004   0.002  0.00  0.00    +0.127 A 
ENDROOT
BRANCH   4   7
ATOM      7  C   UNL     1       3.692  -0.697  -0.038  0.00  0.00    +0.111 A 
ATOM      8  N   UNL     1       4.913  -0.207  -0.043  0.00  0.00    -0.239 NA
ATOM      9  C   UNL     1       6.008  -0.993  -0.059  0.00  0.00    +0.080 A 
ATOM     10  C   UNL     1       7.367  -0.596  -0.065  0.00  0.00    +0.044 A 
ATOM     11  C   UNL     1       8.368  -1.531  -0.082  0.00  0.00    +0.020 A 
ATOM     12  C   UNL     1       8.091  -2.892  -0.094  0.00  0.00    +0.016 A 
ATOM     13  C   UNL     1       6.775  -3.315  -0.088  0.00  0.00    +0.018 A 
ATOM     14  C   UNL     1       5.764  -2.386  -0.071  0.00  0.00    +0.040 A 
ATOM     15  S   UNL     1       3.989  -2.460  -0.051  0.00  0.00    -0.067 S 
ATOM     16 BR   UNL     1      10.170  -0.956  -0.090  0.00  0.00    -0.050 Br
ENDBRANCH   4   7
BRANCH   6  17
ATOM     17  N   UNL     1      -1.272  -0.758   0.010  0.00  0.00    +0.056 N 
ATOM     18  O   UNL     1      -2.325  -0.165   0.023  0.00  0.00    -0.126 OA
ATOM     19  O   UNL     1      -1.259  -1.967   0.004  0.00  0.00    -0.126 OA
ENDBRANCH   6  17
BRANCH   3  20
ATOM     20  N   UNL     1       3.574   2.146  -0.022  0.00  0.00    -0.357 N 
ATOM     21  H   UNL     1       3.556   3.115  -0.017  0.00  0.00    +0.142 HD
ATOM     22  H   UNL     1       4.423   1.676  -0.033  0.00  0.00    +0.142 HD
ENDBRANCH   3  20
TORSDOF 3
