REMARK  Name = ZINC56541413
REMARK  2 active torsions:
REMARK  status: ('A' for Active; 'I' for Inactive)
REMARK    1  A    between atoms: C_6  and  C_7
REMARK    2  A    between atoms: N_16  and  C_17
REMARK                            x       y       z     vdW  Elec       q    Type
REMARK                         _______ _______ _______ _____ _____    ______ ____
ROOT
ATOM      1  C   UNL     1      -0.739  -1.090   1.135  0.00  0.00    +0.166 C 
ATOM      2  C   UNL     1      -1.367  -1.925   2.256  0.00  0.00    +0.145 C 
ATOM      3  N   UNL     1      -2.676  -2.413   1.794  0.00  0.00    -0.280 N 
ATOM      4  C   UNL     1      -2.742  -3.082   0.485  0.00  0.00    +0.137 C 
ATOM      5  C   UNL     1      -2.046  -2.190  -0.550  0.00  0.00    +0.179 C 
ATOM      6  O   UNL     1      -0.742  -1.848  -0.076  0.00  0.00    -0.369 OA
ATOM      7  C   UNL     1      -3.783  -2.252   2.546  0.00  0.00    +0.307 C 
ATOM      8  O   UNL     1      -3.694  -1.781   3.664  0.00  0.00    -0.252 OA
ATOM      9  N   UNL     1      -4.987  -2.613   2.061  0.00  0.00    -0.269 N 
ATOM     10  H   UNL     1      -5.047  -3.083   1.214  0.00  0.00    +0.156 HD
ENDROOT
BRANCH   9  11
ATOM     11  C   UNL     1      -6.151  -2.309   2.778  0.00  0.00    +0.038 A 
ATOM     12  C   UNL     1      -6.221  -1.142   3.528  0.00  0.00    +0.026 A 
ATOM     13  C   UNL     1      -7.369  -0.843   4.234  0.00  0.00    +0.043 A 
ATOM     14  C   UNL     1      -8.451  -1.706   4.196  0.00  0.00    +0.159 A 
ATOM     15  C   UNL     1      -8.384  -2.872   3.449  0.00  0.00    +0.160 A 
ATOM     16  C   UNL     1      -7.238  -3.171   2.736  0.00  0.00    +0.064 A 
ATOM     17  F   UNL     1      -9.441  -3.713   3.413  0.00  0.00    -0.202 F 
ATOM     18  F   UNL     1      -9.573  -1.412   4.889  0.00  0.00    -0.202 F 
ENDBRANCH   9  11
BRANCH   1  24
ATOM     19  C   UNL     1       0.954   0.476   2.110  0.00  0.00    +0.007 A 
ATOM     20  C   UNL     1       2.253   0.800   2.450  0.00  0.00    +0.020 A 
ATOM     21  C   UNL     1       3.280  -0.089   2.184  0.00  0.00    +0.041 A 
ATOM     22  C   UNL     1       3.004  -1.302   1.579  0.00  0.00    +0.020 A 
ATOM     23  C   UNL     1       1.704  -1.625   1.240  0.00  0.00    +0.007 A 
ATOM     24  C   UNL     1       0.679  -0.737   1.505  0.00  0.00    -0.017 A 
ATOM     25 CL   UNL     1       4.913   0.318   2.610  0.00  0.00    -0.084 Cl
ENDBRANCH   1  24
TORSDOF 2
