REMARK  Name = ZINC03656122
REMARK  4 active torsions:
REMARK  status: ('A' for Active; 'I' for Inactive)
REMARK    1  A    between atoms: C_3  and  C_8
REMARK    2  A    between atoms: C_5  and  O_7
REMARK    3  A    between atoms: N_23  and  C_24
REMARK    4  A    between atoms: C_24  and  C_25
REMARK                            x       y       z     vdW  Elec       q    Type
REMARK                         _______ _______ _______ _____ _____    ______ ____
ROOT
ATOM      1  C   UNL     1      -1.293  -0.775   0.011  0.00  0.00    +0.145 C 
ATOM      2  C   UNL     1      -1.921  -0.750  -1.359  0.00  0.00    +0.072 A 
ATOM      3  C   UNL     1      -1.468  -1.232  -2.667  0.00  0.00    +0.199 A 
ATOM      4  O   UNL     1      -0.389  -1.778  -2.809  0.00  0.00    -0.287 OA
ATOM      5  C   UNL     1      -2.386  -1.022  -3.804  0.00  0.00    +0.066 A 
ATOM      6  C   UNL     1      -2.056  -1.440  -5.092  0.00  0.00    +0.035 A 
ATOM      7  C   UNL     1      -2.942  -1.222  -6.125  0.00  0.00    +0.042 A 
ATOM      8  C   UNL     1      -4.156  -0.592  -5.882  0.00  0.00    +0.023 A 
ATOM      9  C   UNL     1      -4.493  -0.175  -4.613  0.00  0.00    +0.048 A 
ATOM     10  C   UNL     1      -3.614  -0.384  -3.555  0.00  0.00    +0.140 A 
ATOM     11  O   UNL     1      -3.932   0.020  -2.311  0.00  0.00    -0.450 OA
ATOM     12  C   UNL     1      -3.129  -0.148  -1.242  0.00  0.00    +0.199 A 
ATOM     13  C   UNL     1      -3.326   0.233   0.179  0.00  0.00    +0.283 C 
ATOM     14  O   UNL     1      -4.311   0.793   0.618  0.00  0.00    -0.267 OA
ATOM     15  N   UNL     1      -2.259  -0.131   0.910  0.00  0.00    -0.279 N 
ATOM     16 CL   UNL     1      -2.541  -1.739  -7.733  0.00  0.00    -0.084 Cl
ENDROOT
BRANCH   1  19
ATOM     17  C   UNL     1       1.170   2.088   0.002  0.00  0.00    +0.004 A 
ATOM     18  C   UNL     1      -0.017   1.378   0.010  0.00  0.00    +0.006 A 
ATOM     19  C   UNL     1       0.002  -0.004   0.002  0.00  0.00    -0.019 A 
ATOM     20  C   UNL     1       1.207  -0.680  -0.013  0.00  0.00    +0.051 A 
ATOM     21  C   UNL     1       2.399   0.030  -0.021  0.00  0.00    +0.117 A 
ATOM     22  C   UNL     1       2.377   1.417  -0.013  0.00  0.00    +0.045 A 
BRANCH  21  23
ATOM     23  O   UNL     1       3.586  -0.632  -0.035  0.00  0.00    -0.507 OA
ATOM     24  H   UNL     1       3.921  -0.819  -0.923  0.00  0.00    +0.292 HD
ENDBRANCH  21  23
ENDBRANCH   1  19
BRANCH  15  25
ATOM     25  C   UNL     1      -2.088   0.078   2.350  0.00  0.00    +0.144 C 
BRANCH  25  26
ATOM     26  C   UNL     1      -1.426   1.411   2.589  0.00  0.00    -0.026 A 
ATOM     27  C   UNL     1      -2.198   2.546   2.749  0.00  0.00    +0.009 A 
ATOM     28  C   UNL     1      -1.595   3.770   2.970  0.00  0.00    +0.050 A 
ATOM     29  C   UNL     1      -0.214   3.862   3.031  0.00  0.00    +0.166 A 
ATOM     30  C   UNL     1       0.564   2.719   2.869  0.00  0.00    +0.167 A 
ATOM     31  C   UNL     1      -0.048   1.494   2.654  0.00  0.00    +0.054 A 
ATOM     32  O   UNL     1       1.879   3.068   2.970  0.00  0.00    -0.453 OA
ATOM     33  C   UNL     1       1.913   4.496   2.788  0.00  0.00    +0.466 C 
ATOM     34  O   UNL     1       0.614   4.928   3.233  0.00  0.00    -0.453 OA
ENDBRANCH  25  26
ENDBRANCH  15  25
TORSDOF 4
