REMARK  Name = ZINC53776341
REMARK  4 active torsions:
REMARK  status: ('A' for Active; 'I' for Inactive)
REMARK    1  A    between atoms: C_1  and  C_2
REMARK    2  A    between atoms: C_5  and  C_7
REMARK    3  A    between atoms: C_7  and  N_8
REMARK    4  A    between atoms: C_9  and  C_11
REMARK                            x       y       z     vdW  Elec       q    Type
REMARK                         _______ _______ _______ _____ _____    ______ ____
ROOT
ATOM      1  C   UNL     1       1.849  -6.200  -3.067  0.00  0.00    +0.039 A 
ATOM      2  C   UNL     1       1.523  -5.334  -4.123  0.00  0.00    +0.014 A 
ATOM      3  C   UNL     1       1.670  -5.728  -5.418  0.00  0.00    +0.016 A 
ATOM      4  C   UNL     1       2.151  -7.012  -5.708  0.00  0.00    +0.065 A 
ATOM      5  C   UNL     1       2.485  -7.899  -4.651  0.00  0.00    +0.080 A 
ATOM      6  C   UNL     1       2.332  -7.473  -3.323  0.00  0.00    +0.041 A 
ATOM      7  N   UNL     1       2.945  -9.123  -4.945  0.00  0.00    -0.223 NA
ATOM      8  C   UNL     1       3.088  -9.507  -6.204  0.00  0.00    +0.180 A 
ATOM      9  N   UNL     1       2.788  -8.707  -7.240  0.00  0.00    -0.301 N 
ATOM     10  H   UNL     1       2.909  -9.031  -8.146  0.00  0.00    +0.171 HD
ATOM     11  C   UNL     1       2.318  -7.457  -7.037  0.00  0.00    +0.260 A 
ATOM     12  O   UNL     1       2.017  -6.657  -8.074  0.00  0.00    -0.267 OA
ATOM     13  S   UNL     1       3.680 -11.082  -6.523  0.00  0.00    -0.011 S 
ENDROOT
BRANCH   1  15
ATOM     14  N   UNL     1       1.210  -4.510  -1.412  0.00  0.00    -0.307 N 
ATOM     15  C   UNL     1       1.680  -5.747  -1.667  0.00  0.00    +0.244 C 
ATOM     16  O   UNL     1       1.965  -6.490  -0.750  0.00  0.00    -0.270 OA
ATOM     17  H   UNL     1       0.983  -3.917  -2.144  0.00  0.00    +0.149 HD
BRANCH  14  18
ATOM     18  C   UNL     1       1.043  -4.062  -0.027  0.00  0.00    +0.147 C 
BRANCH  18  23
ATOM     19  C   UNL     1      -0.018   1.503   0.010  0.00  0.00    +0.051 C 
ATOM     20  C   UNL     1       0.002  -0.004   0.002  0.00  0.00    -0.013 A 
ATOM     21  C   UNL     1      -1.039  -0.872   0.002  0.00  0.00    +0.011 A 
ATOM     22  C   UNL     1      -0.780  -2.230  -0.007  0.00  0.00    +0.013 A 
ATOM     23  C   UNL     1       0.507  -2.653  -0.016  0.00  0.00    +0.007 A 
ATOM     24  S   UNL     1       1.404  -1.109  -0.018  0.00  0.00    -0.097 S 
ENDBRANCH  18  23
ENDBRANCH  14  18
ENDBRANCH   1  15
TORSDOF 3
