REMARK  Name = ZINC20767249
REMARK  10 active torsions:
REMARK  status: ('A' for Active; 'I' for Inactive)
REMARK    1  A    between atoms: C_1  and  C_2
REMARK    2  A    between atoms: C_9  and  C_11
REMARK    3  A    between atoms: C_14  and  N_17
REMARK    4  A    between atoms: C_18  and  C_20
REMARK    5  A    between atoms: C_20  and  N_21
REMARK    6  A    between atoms: N_24  and  C_27
REMARK    7  A    between atoms: C_27  and  C_28
REMARK    8  A    between atoms: N_30  and  C_31
REMARK    9  A    between atoms: C_36  and  O_37
REMARK   10  A    between atoms: O_37  and  C_38
REMARK                            x       y       z     vdW  Elec       q    Type
REMARK                         _______ _______ _______ _____ _____    ______ ____
ROOT
ATOM      1  C   UNL     1      -1.074  -4.157  -0.910  0.00  0.00    +0.019 C 
ENDROOT
BRANCH   1   2
ATOM      2  N   UNL     1      -1.029  -2.691  -0.843  0.00  0.00    +0.387 N 
ATOM      3  C   UNL     1      -1.534  -2.207   0.450  0.00  0.00    -0.063 C 
ATOM      4  C   UNL     1      -1.545  -0.677   0.450  0.00  0.00    +0.066 C 
ATOM      5  N   UNL     1      -0.185  -0.180   0.200  0.00  0.00    -0.298 NA
ATOM      6  C   UNL     1       0.321  -0.663  -1.092  0.00  0.00    +0.066 C 
ATOM      7  C   UNL     1       0.332  -2.194  -1.092  0.00  0.00    -0.063 C 
ATOM      8  H   UNL     1      -1.685  -2.297  -1.633  0.00  0.00    -0.081 HD
BRANCH   5   9
ATOM      9  C   UNL     1      -0.140   1.287   0.268  0.00  0.00    +0.180 C 
BRANCH   9  10
ATOM     10  C   UNL     1       1.296   1.746   0.253  0.00  0.00    +0.231 C 
ATOM     11  O   UNL     1       2.193   0.932   0.193  0.00  0.00    -0.274 OA
ATOM     12  N   UNL     1       1.583   3.062   0.308  0.00  0.00    -0.282 N 
ATOM     13  H   UNL     1       0.774   3.796   0.440  0.00  0.00    +0.155 HD
BRANCH  12  14
ATOM     14  C   UNL     1       2.910   3.495   0.196  0.00  0.00    +0.076 A 
ATOM     15  C   UNL     1       3.938   2.730   0.728  0.00  0.00    +0.027 A 
ATOM     16  C   UNL     1       5.248   3.157   0.613  0.00  0.00    +0.002 A 
ATOM     17  C   UNL     1       5.536   4.350  -0.024  0.00  0.00    +0.004 A 
ATOM     18  C   UNL     1       4.517   5.120  -0.552  0.00  0.00    +0.047 A 
ATOM     19  C   UNL     1       3.202   4.697  -0.445  0.00  0.00    +0.141 A 
BRANCH  19  20
ATOM     20  O   UNL     1       2.198   5.454  -0.964  0.00  0.00    -0.493 OA
ATOM     21  C   UNL     1       2.571   6.674  -1.607  0.00  0.00    +0.277 C 
ENDBRANCH  19  20
ENDBRANCH  12  14
ENDBRANCH   9  10
ENDBRANCH   5   9
ENDBRANCH   1   2
BRANCH   1  23
ATOM     22  N   UNL     1      -0.774  -5.918  -2.622  0.00  0.00    -0.287 N 
ATOM     23  C   UNL     1      -0.785  -4.604  -2.320  0.00  0.00    +0.201 C 
ATOM     24  O   UNL     1      -0.564  -3.782  -3.184  0.00  0.00    -0.278 OA
ATOM     25  H   UNL     1      -0.879  -6.667  -1.823  0.00  0.00    +0.155 HD
BRANCH  22  29
ATOM     26  C   UNL     1      -0.341  -7.144  -6.582  0.00  0.00    +0.007 A 
ATOM     27  C   UNL     1       0.059  -7.985  -5.541  0.00  0.00    +0.012 A 
ATOM     28  C   UNL     1      -0.085  -7.577  -4.233  0.00  0.00    +0.024 A 
ATOM     29  C   UNL     1      -0.628  -6.329  -3.949  0.00  0.00    +0.033 A 
ATOM     30  C   UNL     1      -1.032  -5.491  -4.983  0.00  0.00    +0.024 A 
ATOM     31  C   UNL     1      -0.886  -5.892  -6.293  0.00  0.00    +0.012 A 
BRANCH  26  40
ATOM     32  C   UNL     1       0.444  -9.390 -14.070  0.00  0.00    +0.044 C 
ATOM     33  C   UNL     1       0.415  -9.236 -12.571  0.00  0.00    -0.049 A 
ATOM     34  C   UNL     1       0.887 -10.253 -11.753  0.00  0.00    +0.005 A 
ATOM     35  C   UNL     1       0.875 -10.142 -10.398  0.00  0.00    +0.029 A 
ATOM     36  C   UNL     1       0.378  -8.976  -9.769  0.00  0.00    +0.079 A 
ATOM     37  C   UNL     1      -0.096  -7.957 -10.630  0.00  0.00    +0.040 A 
ATOM     38  C   UNL     1      -0.080  -8.079 -11.998  0.00  0.00    +0.020 A 
ATOM     39  S   UNL     1      -0.616  -6.704  -9.484  0.00  0.00    -0.067 S 
ATOM     40  C   UNL     1      -0.188  -7.580  -7.986  0.00  0.00    +0.109 A 
ATOM     41  N   UNL     1       0.303  -8.708  -8.451  0.00  0.00    -0.239 NA
ENDBRANCH  26  40
ENDBRANCH  22  29
ENDBRANCH   1  23
TORSDOF 8
