REMARK  Name = ZINC01512839
REMARK  1 active torsions:
REMARK  status: ('A' for Active; 'I' for Inactive)
REMARK    1  A    between atoms: C_3  and  C_8
REMARK                            x       y       z     vdW  Elec       q    Type
REMARK                         _______ _______ _______ _____ _____    ______ ____
ROOT
ATOM      1  C   UNL     1       3.866  -1.317  -0.043  0.00  0.00    +0.250 C 
ATOM      2  O   UNL     1       4.429  -0.240  -0.041  0.00  0.00    -0.270 OA
ATOM      3  N   UNL     1       2.520  -1.373  -0.030  0.00  0.00    -0.261 N 
ATOM      4  C   UNL     1       1.778  -0.204  -0.016  0.00  0.00    +0.166 A 
ATOM      5  N   UNL     1       2.200   1.038  -0.013  0.00  0.00    -0.225 NA
ATOM      6  C   UNL     1       1.355   2.092   0.000  0.00  0.00    +0.080 A 
ATOM      7  C   UNL     1       1.676   3.469   0.005  0.00  0.00    +0.030 A 
ATOM      8  C   UNL     1       0.689   4.419   0.020  0.00  0.00    +0.022 A 
ATOM      9  C   UNL     1      -0.655   4.069   0.031  0.00  0.00    +0.042 A 
ATOM     10  C   UNL     1      -1.005   2.730   0.031  0.00  0.00    +0.037 A 
ATOM     11  C   UNL     1      -0.022   1.772   0.012  0.00  0.00    +0.042 A 
ATOM     12  S   UNL     1       0.002  -0.004   0.002  0.00  0.00    -0.052 S 
ATOM     13 CL   UNL     1      -1.881   5.297   0.050  0.00  0.00    -0.084 Cl
ATOM     14  H   UNL     1       2.070  -2.233  -0.031  0.00  0.00    +0.157 HD
ENDROOT
BRANCH   1  17
ATOM     15  C   UNL     1       6.787  -3.678  -0.084  0.00  0.00    +0.002 A 
ATOM     16  C   UNL     1       6.053  -2.510  -0.070  0.00  0.00    +0.013 A 
ATOM     17  C   UNL     1       4.658  -2.565  -0.057  0.00  0.00    +0.038 A 
ATOM     18  C   UNL     1       4.015  -3.803  -0.053  0.00  0.00    +0.028 A 
ATOM     19  C   UNL     1       4.760  -4.965  -0.071  0.00  0.00    +0.019 A 
ATOM     20  C   UNL     1       6.144  -4.902  -0.084  0.00  0.00    +0.015 A 
ATOM     21 BR   UNL     1       3.891  -6.644  -0.070  0.00  0.00    -0.050 Br
ENDBRANCH   1  17
TORSDOF 1
