REMARK  Name = ZINC60219799
REMARK  9 active torsions:
REMARK  status: ('A' for Active; 'I' for Inactive)
REMARK    1  A    between atoms: C_1  and  C_2
REMARK    2  A    between atoms: C_2  and  C_4
REMARK    3  A    between atoms: C_2  and  N_15
REMARK    4  A    between atoms: C_7  and  N_10
REMARK    5  A    between atoms: N_15  and  C_16
REMARK    6  A    between atoms: N_19  and  C_20
REMARK    7  A    between atoms: C_20  and  C_21
REMARK    8  A    between atoms: N_24  and  C_27
REMARK    9  A    between atoms: C_27  and  C_28
REMARK                            x       y       z     vdW  Elec       q    Type
REMARK                         _______ _______ _______ _____ _____    ______ ____
ROOT
ATOM      1  N   UNL     1      -1.449  -0.477  -0.097  0.00  0.00    -0.282 N 
ATOM      2  C   UNL     1      -2.487   0.011   0.813  0.00  0.00    +0.134 C 
ATOM      3  C   UNL     1      -1.763  -1.361  -1.066  0.00  0.00    +0.302 C 
ATOM      4  O   UNL     1      -0.900  -1.767  -1.821  0.00  0.00    -0.253 OA
ATOM      5  N   UNL     1      -3.032  -1.794  -1.197  0.00  0.00    -0.299 N 
ATOM      6  H   UNL     1      -3.720  -1.471  -0.594  0.00  0.00    +0.150 HD
ENDROOT
BRANCH   1   8
ATOM      7  C   UNL     1      -0.045   1.523  -0.004  0.00  0.00    +0.033 C 
ATOM      8  C   UNL     1      -0.069  -0.006   0.045  0.00  0.00    +0.104 C 
BRANCH   8   9
ATOM      9  C   UNL     1       0.488  -0.476   1.364  0.00  0.00    -0.027 A 
ATOM     10  C   UNL     1       0.048  -1.665   1.916  0.00  0.00    +0.007 A 
ATOM     11  C   UNL     1       0.557  -2.098   3.124  0.00  0.00    +0.028 A 
ATOM     12  C   UNL     1       1.512  -1.338   3.786  0.00  0.00    +0.067 A 
ATOM     13  C   UNL     1       1.953  -0.144   3.230  0.00  0.00    +0.028 A 
ATOM     14  C   UNL     1       1.444   0.281   2.018  0.00  0.00    +0.007 A 
BRANCH  12  15
ATOM     15  N   UNL     1       2.031  -1.774   5.013  0.00  0.00    -0.220 N 
ATOM     16  C   UNL     1       2.952  -1.147   5.770  0.00  0.00    +0.225 A 
ATOM     17  N   UNL     1       3.167  -1.876   6.834  0.00  0.00    -0.222 NA
ATOM     18  C   UNL     1       2.407  -2.970   6.794  0.00  0.00    +0.245 A 
ATOM     19  N   UNL     1       1.689  -2.950   5.701  0.00  0.00    -0.154 NA
ENDBRANCH  12  15
ENDBRANCH   8   9
ENDBRANCH   1   8
BRANCH   5  20
ATOM     20  C   UNL     1      -3.373  -2.755  -2.249  0.00  0.00    +0.109 C 
BRANCH  20  21
ATOM     21  C   UNL     1      -4.867  -3.079  -2.179  0.00  0.00    +0.003 C 
ATOM     22  C   UNL     1      -5.172  -3.806  -0.866  0.00  0.00    -0.014 C 
ATOM     23  C   UNL     1      -6.651  -4.197  -0.839  0.00  0.00    -0.078 C 
ATOM     24  N   UNL     1      -6.948  -5.083  -1.970  0.00  0.00    +0.383 N 
ATOM     25  C   UNL     1      -6.726  -4.369  -3.233  0.00  0.00    -0.078 C 
ATOM     26  C   UNL     1      -5.250  -3.984  -3.354  0.00  0.00    -0.014 C 
ATOM     27  H   UNL     1      -6.344  -5.891  -1.931  0.00  0.00    -0.081 HD
BRANCH  24  28
ATOM     28  C   UNL     1      -8.349  -5.519  -1.895  0.00  0.00    -0.036 C 
BRANCH  28  29
ATOM     29  C   UNL     1      -8.622  -6.523  -2.985  0.00  0.00    -0.027 A 
ATOM     30  C   UNL     1      -8.504  -7.873  -2.950  0.00  0.00    +0.009 A 
ATOM     31  C   UNL     1      -8.814  -8.603  -4.082  0.00  0.00    +0.008 A 
ATOM     32  C   UNL     1      -9.225  -7.946  -5.195  0.00  0.00    +0.045 A 
ATOM     33  S   UNL     1      -9.191  -6.245  -4.654  0.00  0.00    -0.103 S 
ENDBRANCH  28  29
ENDBRANCH  24  28
ENDBRANCH  20  21
ENDBRANCH   5  20
TORSDOF 7
