REMARK  Name = ZINC12786494
REMARK  3 active torsions:
REMARK  status: ('A' for Active; 'I' for Inactive)
REMARK    1  A    between atoms: C_6  and  C_7
REMARK    2  A    between atoms: C_13  and  C_16
REMARK    3  A    between atoms: N_21  and  C_24
REMARK                            x       y       z     vdW  Elec       q    Type
REMARK                         _______ _______ _______ _____ _____    ______ ____
ROOT
ATOM      1  C   UNL     1       1.041   2.125  -2.103  0.00  0.00    +0.220 C 
ATOM      2  O   UNL     1       0.343   2.142  -3.094  0.00  0.00    -0.275 OA
ATOM      3  N   UNL     1       2.316   1.694  -2.183  0.00  0.00    -0.298 N 
ATOM      4  C   UNL     1       3.146   1.564  -0.977  0.00  0.00    +0.126 C 
ATOM      5  C   UNL     1       3.762   0.155  -0.965  0.00  0.00    +0.124 C 
ATOM      6  N   UNL     1       4.468  -0.075  -2.233  0.00  0.00    -0.326 N 
ATOM      7  C   UNL     1       3.541  -0.045  -3.372  0.00  0.00    +0.124 C 
ATOM      8  C   UNL     1       2.915   1.349  -3.481  0.00  0.00    +0.126 C 
ENDROOT
BRANCH   6   9
ATOM      9  C   UNL     1       5.175  -1.267  -2.198  0.00  0.00    +0.040 A 
ATOM     10  C   UNL     1       4.521  -2.483  -2.082  0.00  0.00    +0.041 A 
ATOM     11  C   UNL     1       5.257  -3.659  -2.050  0.00  0.00    +0.085 A 
ATOM     12  C   UNL     1       7.264  -2.522  -2.242  0.00  0.00    +0.050 A 
ATOM     13  C   UNL     1       6.588  -1.280  -2.286  0.00  0.00    +0.019 A 
ATOM     14  C   UNL     1       7.322  -0.092  -2.412  0.00  0.00    +0.013 A 
ATOM     15  C   UNL     1       8.681  -0.146  -2.494  0.00  0.00    +0.021 A 
ATOM     16  C   UNL     1       9.351  -1.368  -2.455  0.00  0.00    +0.043 A 
ATOM     17  C   UNL     1       8.667  -2.539  -2.324  0.00  0.00    +0.046 A 
ATOM     18 CL   UNL     1      11.083  -1.396  -2.563  0.00  0.00    -0.083 Cl
ATOM     19  N   UNL     1       6.607  -3.728  -2.126  0.00  0.00    -0.361 N 
ATOM     20  H   UNL     1       7.109  -4.623  -2.098  0.00  0.00    +0.165 HD
ENDBRANCH   6   9
BRANCH   1  27
ATOM     21  C   UNL     1      -0.647   1.322   2.317  0.00  0.00    +0.247 C 
ATOM     22  O   UNL     1       0.184   0.438   2.402  0.00  0.00    -0.270 OA
ATOM     23  N   UNL     1      -0.882   1.914   1.129  0.00  0.00    -0.297 N 
ATOM     24  C   UNL     1      -1.788   3.070   1.029  0.00  0.00    +0.108 C 
ATOM     25  C   UNL     1      -1.052   4.217   0.330  0.00  0.00    +0.020 C 
ATOM     26  C   UNL     1      -0.510   3.726  -1.014  0.00  0.00    +0.016 C 
ATOM     27  C   UNL     1       0.484   2.586  -0.780  0.00  0.00    +0.092 C 
ATOM     28  C   UNL     1      -0.235   1.420  -0.094  0.00  0.00    +0.120 C 
BRANCH  21  34
ATOM     29  C   UNL     1      -2.750   2.085   3.412  0.00  0.00    +0.014 A 
ATOM     30  C   UNL     1      -3.448   2.476   4.535  0.00  0.00    +0.021 A 
ATOM     31  C   UNL     1      -2.809   2.543   5.763  0.00  0.00    +0.041 A 
ATOM     32  C   UNL     1      -1.468   2.213   5.871  0.00  0.00    +0.021 A 
ATOM     33  C   UNL     1      -0.761   1.816   4.756  0.00  0.00    +0.014 A 
ATOM     34  C   UNL     1      -1.399   1.746   3.516  0.00  0.00    +0.037 A 
ATOM     35 CL   UNL     1      -3.693   3.042   7.171  0.00  0.00    -0.084 Cl
ENDBRANCH  21  34
ENDBRANCH   1  27
TORSDOF 3
