REMARK  Name = ZINC02265496
REMARK  8 active torsions:
REMARK  status: ('A' for Active; 'I' for Inactive)
REMARK    1  A    between atoms: C_6  and  C_7
REMARK    2  A    between atoms: C_10  and  S_13
REMARK    3  A    between atoms: N_11  and  N_12
REMARK    4  A    between atoms: S_13  and  C_14
REMARK    5  A    between atoms: C_14  and  C_15
REMARK    6  A    between atoms: N_17  and  C_18
REMARK    7  A    between atoms: C_21  and  S_24
REMARK    8  A    between atoms: S_24  and  N_27
REMARK                            x       y       z     vdW  Elec       q    Type
REMARK                         _______ _______ _______ _____ _____    ______ ____
ROOT
ATOM      1  C   UNL     1       0.143   0.267   0.464  0.00  0.00    +0.173 C 
ENDROOT
BRANCH   1   2
ATOM      2  C   UNL     1      -0.435   0.328   1.855  0.00  0.00    +0.227 C 
ATOM      3  O   UNL     1      -1.355   1.081   2.097  0.00  0.00    -0.275 OA
ATOM      4  N   UNL     1       0.070  -0.454   2.829  0.00  0.00    -0.285 N 
ATOM      5  H   UNL     1       0.854  -1.000   2.656  0.00  0.00    +0.155 HD
BRANCH   4   6
ATOM      6  C   UNL     1      -0.535  -0.480   4.090  0.00  0.00    +0.034 A 
ATOM      7  C   UNL     1       0.237  -0.668   5.229  0.00  0.00    +0.025 A 
ATOM      8  C   UNL     1      -0.362  -0.686   6.473  0.00  0.00    +0.030 A 
ATOM      9  C   UNL     1      -1.732  -0.529   6.585  0.00  0.00    +0.105 A 
ATOM     10  C   UNL     1      -2.504  -0.348   5.452  0.00  0.00    +0.030 A 
ATOM     11  C   UNL     1      -1.910  -0.323   4.206  0.00  0.00    +0.025 A 
BRANCH   9  12
ATOM     12  S   UNL     1      -2.494  -0.561   8.173  0.00  0.00    +0.056 S 
ATOM     13  O   UNL     1      -1.490  -0.199   9.112  0.00  0.00    -0.153 OA
ATOM     14  O   UNL     1      -3.716   0.153   8.051  0.00  0.00    -0.153 OA
BRANCH  12  15
ATOM     15  N   UNL     1      -2.895  -2.135   8.492  0.00  0.00    -0.204 NA
ATOM     16  H   UNL     1      -2.695  -2.828   7.844  0.00  0.00    +0.144 HD
ATOM     17  H   UNL     1      -3.330  -2.365   9.329  0.00  0.00    +0.144 HD
ENDBRANCH  12  15
ENDBRANCH   9  12
ENDBRANCH   4   6
ENDBRANCH   1   2
BRANCH   1  18
ATOM     18  S   UNL     1      -0.742   1.427  -0.608  0.00  0.00    -0.075 S 
BRANCH  18  22
ATOM     19  C   UNL     1       0.776   1.249  -4.204  0.00  0.00    +0.182 A 
ATOM     20  N   UNL     1       1.498   0.375  -3.542  0.00  0.00    -0.127 NA
ATOM     21  N   UNL     1       1.112   0.323  -2.318  0.00  0.00    -0.121 NA
ATOM     22  C   UNL     1       0.114   1.156  -2.124  0.00  0.00    +0.209 A 
ATOM     23  N   UNL     1      -0.133   1.776  -3.316  0.00  0.00    -0.224 N 
BRANCH  19  29
ATOM     24  C   UNL     1       1.622   0.762  -6.496  0.00  0.00    +0.014 A 
ATOM     25  C   UNL     1       1.744   1.093  -7.829  0.00  0.00    +0.039 A 
ATOM     26  C   UNL     1       1.173   2.261  -8.310  0.00  0.00    +0.123 A 
ATOM     27  C   UNL     1       0.474   3.099  -7.457  0.00  0.00    +0.039 A 
ATOM     28  C   UNL     1       0.342   2.776  -6.123  0.00  0.00    +0.014 A 
ATOM     29  C   UNL     1       0.914   1.601  -5.633  0.00  0.00    +0.021 A 
ATOM     30  F   UNL     1       1.300   2.583  -9.616  0.00  0.00    -0.205 F 
ENDBRANCH  19  29
BRANCH  23  31
ATOM     31  N   UNL     1      -1.084   2.723  -3.572  0.00  0.00    -0.295 N 
ATOM     32  H   UNL     1      -0.697   3.652  -3.503  0.00  0.00    +0.163 HD
ATOM     33  H   UNL     1      -1.508   2.574  -4.476  0.00  0.00    +0.163 HD
ENDBRANCH  23  31
ENDBRANCH  18  22
ENDBRANCH   1  18
TORSDOF 8
