REMARK  Name = ZINC03024979
REMARK  7 active torsions:
REMARK  status: ('A' for Active; 'I' for Inactive)
REMARK    1  A    between atoms: C_1  and  C_2
REMARK    2  A    between atoms: C_2  and  C_3
REMARK    3  A    between atoms: C_2  and  C_4
REMARK    4  A    between atoms: C_7  and  N_10
REMARK    5  A    between atoms: C_11  and  C_13
REMARK    6  A    between atoms: C_15  and  S_20
REMARK    7  A    between atoms: S_20  and  N_23
REMARK                            x       y       z     vdW  Elec       q    Type
REMARK                         _______ _______ _______ _____ _____    ______ ____
ROOT
ATOM      1  C   UNL     1      -2.542   4.126   0.249  0.00  0.00    +0.074 A 
ATOM      2  C   UNL     1      -3.742   3.412   0.251  0.00  0.00    +0.044 A 
ATOM      3  C   UNL     1      -4.941   4.084   0.365  0.00  0.00    +0.106 A 
ATOM      4  C   UNL     1      -4.958   5.464   0.478  0.00  0.00    +0.031 A 
ATOM      5  C   UNL     1      -3.775   6.179   0.477  0.00  0.00    +0.041 A 
ATOM      6  C   UNL     1      -2.565   5.519   0.369  0.00  0.00    +0.136 A 
ATOM      7  F   UNL     1      -1.408   6.218   0.373  0.00  0.00    -0.205 F 
ENDROOT
BRANCH   1   9
ATOM      8  N   UNL     1      -1.236   2.069   0.019  0.00  0.00    -0.281 N 
ATOM      9  C   UNL     1      -1.255   3.412   0.128  0.00  0.00    +0.251 C 
ATOM     10  O   UNL     1      -0.211   4.036   0.127  0.00  0.00    -0.270 OA
ATOM     11  H   UNL     1      -2.069   1.576  -0.048  0.00  0.00    +0.155 HD
BRANCH   8  15
ATOM     12  C   UNL     1       2.394   0.028  -0.041  0.00  0.00    -0.045 A 
ATOM     13  C   UNL     1       1.293  -0.540   0.573  0.00  0.00    +0.006 A 
ATOM     14  C   UNL     1       0.089   0.135   0.597  0.00  0.00    +0.023 A 
ATOM     15  C   UNL     1      -0.017   1.385   0.002  0.00  0.00    +0.034 A 
ATOM     16  C   UNL     1       1.091   1.953  -0.614  0.00  0.00    +0.023 A 
ATOM     17  C   UNL     1       2.293   1.273  -0.634  0.00  0.00    +0.006 A 
BRANCH  12  19
ATOM     18  C   UNL     1       4.130  -0.956  -1.514  0.00  0.00    +0.012 C 
ATOM     19  C   UNL     1       3.707  -0.711  -0.064  0.00  0.00    +0.013 C 
ATOM     20  C   UNL     1       4.776   0.125   0.644  0.00  0.00    +0.012 C 
ENDBRANCH  12  19
ENDBRANCH   8  15
ENDBRANCH   1   9
BRANCH   3  21
ATOM     21  S   UNL     1      -6.455   3.184   0.368  0.00  0.00    +0.061 S 
ATOM     22  O   UNL     1      -7.465   4.087  -0.062  0.00  0.00    -0.153 OA
ATOM     23  O   UNL     1      -6.199   1.955  -0.297  0.00  0.00    -0.153 OA
BRANCH  21  24
ATOM     24  N   UNL     1      -6.798   2.807   1.944  0.00  0.00    -0.176 NA
ATOM     25  C   UNL     1      -6.315   1.552   2.535  0.00  0.00    +0.114 C 
ATOM     26  C   UNL     1      -7.499   0.796   3.136  0.00  0.00    +0.082 C 
ATOM     27  C   UNL     1      -8.241   1.711   4.112  0.00  0.00    +0.173 C 
ATOM     28  C   UNL     1      -8.772   2.941   3.372  0.00  0.00    +0.082 C 
ATOM     29  C   UNL     1      -7.595   3.719   2.775  0.00  0.00    +0.114 C 
ATOM     30  O   UNL     1      -9.334   0.998   4.705  0.00  0.00    -0.346 OA
ATOM     31  C   UNL     1      -9.116   0.990   6.130  0.00  0.00    +0.191 C 
ATOM     32  C   UNL     1      -8.158   2.189   6.346  0.00  0.00    +0.191 C 
ATOM     33  O   UNL     1      -7.342   2.131   5.151  0.00  0.00    -0.346 OA
ENDBRANCH  21  24
ENDBRANCH   3  21
TORSDOF 5
