REMARK  Name = ZINC41649266
REMARK  11 active torsions:
REMARK  status: ('A' for Active; 'I' for Inactive)
REMARK    1  A    between atoms: C_1  and  N_2
REMARK    2  A    between atoms: C_3  and  C_5
REMARK    3  A    between atoms: C_5  and  C_6
REMARK    4  A    between atoms: C_11  and  N_12
REMARK    5  A    between atoms: C_13  and  C_15
REMARK    6  A    between atoms: N_17  and  C_18
REMARK    7  A    between atoms: C_18  and  C_19
REMARK    8  A    between atoms: C_19  and  C_21
REMARK    9  A    between atoms: C_19  and  N_26
REMARK   10  A    between atoms: N_26  and  C_27
REMARK   11  A    between atoms: N_26  and  C_28
REMARK                            x       y       z     vdW  Elec       q    Type
REMARK                         _______ _______ _______ _____ _____    ______ ____
ROOT
ATOM      1  N   UNL     1       3.457  -2.808  -1.147  0.00  0.00    -0.277 N 
ATOM      2  C   UNL     1       4.794  -2.970  -1.110  0.00  0.00    +0.303 C 
ATOM      3  O   UNL     1       5.376  -3.434  -2.068  0.00  0.00    -0.265 OA
ATOM      4  H   UNL     1       3.000  -2.374  -0.409  0.00  0.00    +0.155 HD
ENDROOT
BRANCH   1  10
ATOM      5  C   UNL     1       1.446  -3.772  -2.072  0.00  0.00    -0.017 A 
ATOM      6  C   UNL     1       0.726  -4.217  -3.164  0.00  0.00    +0.006 A 
ATOM      7  C   UNL     1       1.282  -4.166  -4.429  0.00  0.00    +0.000 A 
ATOM      8  C   UNL     1       2.561  -3.668  -4.606  0.00  0.00    +0.002 A 
ATOM      9  C   UNL     1       3.286  -3.221  -3.519  0.00  0.00    +0.023 A 
ATOM     10  C   UNL     1       2.728  -3.265  -2.248  0.00  0.00    +0.037 A 
BRANCH   5  11
ATOM     11  C   UNL     1       0.839  -3.828  -0.694  0.00  0.00    +0.132 C 
BRANCH  11  14
ATOM     12  C   UNL     1      -1.024  -1.027   1.133  0.00  0.00    +0.128 C 
ATOM     13  N   UNL     1      -0.406  -2.317   0.818  0.00  0.00    -0.318 N 
ATOM     14  C   UNL     1       0.203  -2.501  -0.370  0.00  0.00    +0.217 C 
ATOM     15  O   UNL     1       0.239  -1.598  -1.179  0.00  0.00    -0.275 OA
ATOM     16  H   UNL     1      -0.434  -3.040   1.465  0.00  0.00    +0.148 HD
ENDBRANCH  11  14
ENDBRANCH   5  11
ENDBRANCH   1  10
BRANCH   2  17
ATOM     17  C   UNL     1       5.560  -2.579   0.111  0.00  0.00    +0.299 C 
ATOM     18  O   UNL     1       4.978  -2.115   1.070  0.00  0.00    -0.265 OA
ATOM     19  N   UNL     1       6.897  -2.741   0.148  0.00  0.00    -0.309 N 
ATOM     20  H   UNL     1       7.363  -3.112  -0.618  0.00  0.00    +0.149 HD
BRANCH  19  21
ATOM     21  C   UNL     1       7.649  -2.357   1.346  0.00  0.00    +0.094 C 
BRANCH  21  22
ATOM     22  C   UNL     1       9.147  -2.527   1.085  0.00  0.00    -0.020 C 
BRANCH  22  23
ATOM     23  C   UNL     1       9.452  -3.982   0.838  0.00  0.00    -0.052 A 
ATOM     24  C   UNL     1       9.617  -4.456  -0.450  0.00  0.00    +0.009 A 
ATOM     25  C   UNL     1       9.890  -5.770  -0.636  0.00  0.00    +0.045 A 
ATOM     26  S   UNL     1       9.923  -6.383   1.040  0.00  0.00    -0.105 S 
ATOM     27  C   UNL     1       9.575  -4.844   1.877  0.00  0.00    +0.047 A 
ENDBRANCH  22  23
BRANCH  22  28
ATOM     28  N   UNL     1       9.904  -2.059   2.253  0.00  0.00    +0.382 N 
ATOM     29  C   UNL     1      11.343  -2.133   1.966  0.00  0.00    -0.096 C 
ATOM     30  C   UNL     1       9.535  -0.668   2.550  0.00  0.00    -0.096 C 
ATOM     31  H   UNL     1       9.689  -2.641   3.049  0.00  0.00    -0.082 HD
ENDBRANCH  22  28
ENDBRANCH  21  22
ENDBRANCH  19  21
ENDBRANCH   2  17
TORSDOF 8
