REMARK  Name = ZINC06967149
REMARK  4 active torsions:
REMARK  status: ('A' for Active; 'I' for Inactive)
REMARK    1  A    between atoms: C_1  and  C_2
REMARK    2  A    between atoms: C_7  and  C_8
REMARK    3  A    between atoms: C_10  and  C_19
REMARK    4  A    between atoms: C_24  and  N_25
REMARK                            x       y       z     vdW  Elec       q    Type
REMARK                         _______ _______ _______ _____ _____    ______ ____
ROOT
ATOM      1  C   UNL     1      -0.196   1.240   0.066  0.00  0.00    +0.044 C 
ATOM      2  C   UNL     1      -0.861   1.785   1.303  0.00  0.00    -0.046 A 
ATOM      3  C   UNL     1      -2.240   1.879   1.365  0.00  0.00    +0.004 A 
ATOM      4  C   UNL     1      -2.848   2.372   2.501  0.00  0.00    +0.006 A 
ATOM      5  C   UNL     1      -2.088   2.788   3.587  0.00  0.00    -0.019 A 
ATOM      6  C   UNL     1      -0.708   2.702   3.522  0.00  0.00    +0.035 A 
ATOM      7  C   UNL     1      -0.098   2.197   2.375  0.00  0.00    -0.026 A 
ATOM      8  C   UNL     1       1.404   2.100   2.306  0.00  0.00    +0.046 C 
ATOM      9  N   UNL     1       0.112   3.111   4.573  0.00  0.00    -0.336 N 
ATOM     10  C   UNL     1      -0.569   3.041   5.867  0.00  0.00    +0.107 C 
ATOM     11  C   UNL     1      -1.830   3.908   5.825  0.00  0.00    +0.029 C 
ATOM     12  C   UNL     1      -2.811   3.314   4.792  0.00  0.00    +0.049 C 
ATOM     13  C   UNL     1      -3.494   2.191   5.537  0.00  0.00    -0.023 C 
ATOM     14  C   UNL     1      -3.392   2.369   6.830  0.00  0.00    -0.030 C 
ATOM     15  C   UNL     1      -2.630   3.645   7.132  0.00  0.00    +0.033 C 
ATOM     16  H   UNL     1       0.971   2.582   4.588  0.00  0.00    +0.147 HD
ENDROOT
BRANCH  10  17
ATOM     17  C   UNL     1       0.352   3.545   6.947  0.00  0.00    +0.003 A 
ATOM     18  C   UNL     1       0.194   4.824   7.450  0.00  0.00    +0.008 A 
ATOM     19  C   UNL     1       1.036   5.284   8.445  0.00  0.00    +0.000 A 
ATOM     20  C   UNL     1       2.043   4.470   8.929  0.00  0.00    +0.002 A 
ATOM     21  C   UNL     1       2.205   3.194   8.423  0.00  0.00    +0.033 A 
ATOM     22  C   UNL     1       1.359   2.732   7.432  0.00  0.00    +0.131 A 
BRANCH  22  23
ATOM     23  N   UNL     1       1.532   1.366   6.889  0.00  0.00    +0.057 N 
ATOM     24  O   UNL     1       2.354   0.614   7.383  0.00  0.00    -0.126 OA
ATOM     25  O   UNL     1       0.853   0.993   5.949  0.00  0.00    -0.126 OA
ENDBRANCH  22  23
ENDBRANCH  10  17
TORSDOF 2
