REMARK  Name = ZINC03272925
REMARK  2 active torsions:
REMARK  status: ('A' for Active; 'I' for Inactive)
REMARK    1  A    between atoms: C_1  and  C_2
REMARK    2  A    between atoms: C_2  and  C_17
REMARK                            x       y       z     vdW  Elec       q    Type
REMARK                         _______ _______ _______ _____ _____    ______ ____
ROOT
ATOM      1  C   UNL     1      -3.035   4.104  -1.389  0.00  0.00    +0.063 C 
ATOM      2  C   UNL     1      -2.553   3.868   0.044  0.00  0.00    +0.152 C 
ATOM      3  N   UNL     1      -2.249   5.160   0.692  0.00  0.00    -0.240 N 
ATOM      4  N   UNL     1      -1.949   5.120   2.071  0.00  0.00    -0.189 NA
ATOM      5  C   UNL     1      -2.615   4.276   2.816  0.00  0.00    +0.176 C 
ATOM      6  C   UNL     1      -3.642   3.425   2.198  0.00  0.00    +0.159 A 
ATOM      7  N   UNL     1      -3.616   3.230   0.834  0.00  0.00    -0.264 N 
ATOM      8  C   UNL     1      -4.545   2.465   0.225  0.00  0.00    +0.264 A 
ATOM      9  O   UNL     1      -4.531   2.295  -0.981  0.00  0.00    -0.267 OA
ATOM     10  C   UNL     1      -5.576   1.844   1.070  0.00  0.00    +0.065 A 
ATOM     11  C   UNL     1      -6.577   1.036   0.536  0.00  0.00    +0.015 A 
ATOM     12  C   UNL     1      -7.517   0.479   1.376  0.00  0.00    +0.001 A 
ATOM     13  C   UNL     1      -7.472   0.718   2.744  0.00  0.00    +0.002 A 
ATOM     14  C   UNL     1      -6.500   1.508   3.288  0.00  0.00    +0.028 A 
ATOM     15  C   UNL     1      -5.531   2.088   2.462  0.00  0.00    +0.079 A 
ATOM     16  N   UNL     1      -4.560   2.873   2.963  0.00  0.00    -0.228 NA
ATOM     17  H   UNL     1      -2.256   5.993   0.196  0.00  0.00    +0.171 HD
ENDROOT
BRANCH   2  18
ATOM     18  C   UNL     1      -1.324   2.996   0.036  0.00  0.00    -0.003 A 
ATOM     19  C   UNL     1      -1.454   1.620   0.075  0.00  0.00    +0.009 A 
ATOM     20  C   UNL     1      -0.327   0.819   0.071  0.00  0.00    +0.015 A 
ATOM     21  C   UNL     1       0.930   1.395   0.019  0.00  0.00    +0.018 A 
ATOM     22  C   UNL     1       1.059   2.771  -0.025  0.00  0.00    +0.015 A 
ATOM     23  C   UNL     1      -0.068   3.571  -0.016  0.00  0.00    +0.009 A 
ATOM     24 BR   UNL     1       2.472   0.300   0.007  0.00  0.00    -0.050 Br
ENDBRANCH   2  18
TORSDOF 1
