REMARK  Name = ZINC19863003
REMARK  6 active torsions:
REMARK  status: ('A' for Active; 'I' for Inactive)
REMARK    1  A    between atoms: C_1  and  C_2
REMARK    2  A    between atoms: C_2  and  C_26
REMARK    3  A    between atoms: N_3  and  N_4
REMARK    4  A    between atoms: C_5  and  C_7
REMARK    5  A    between atoms: C_7  and  N_8
REMARK    6  A    between atoms: C_17  and  C_19
REMARK                            x       y       z     vdW  Elec       q    Type
REMARK                         _______ _______ _______ _____ _____    ______ ____
ROOT
ATOM      1  N   UNL     1      -2.429  -3.203  -0.040  0.00  0.00    -0.219 N 
ATOM      2  C   UNL     1      -3.130  -2.955  -1.165  0.00  0.00    +0.275 A 
ATOM      3  O   UNL     1      -2.556  -2.765  -2.222  0.00  0.00    -0.266 OA
ATOM      4  C   UNL     1      -4.597  -2.922  -1.096  0.00  0.00    +0.050 A 
ATOM      5  C   UNL     1      -5.382  -2.676  -2.221  0.00  0.00    +0.014 A 
ATOM      6  C   UNL     1      -6.754  -2.652  -2.100  0.00  0.00    +0.001 A 
ATOM      7  C   UNL     1      -7.361  -2.870  -0.870  0.00  0.00    +0.001 A 
ATOM      8  C   UNL     1      -6.604  -3.114   0.254  0.00  0.00    +0.011 A 
ATOM      9  C   UNL     1      -5.213  -3.144   0.155  0.00  0.00    +0.015 A 
ATOM     10  C   UNL     1      -4.359  -3.401   1.323  0.00  0.00    +0.099 A 
ATOM     11  N   UNL     1      -3.058  -3.420   1.187  0.00  0.00    -0.167 NA
ENDROOT
BRANCH  10  12
ATOM     12  C   UNL     1      -4.970  -3.638   2.653  0.00  0.00    +0.003 A 
ATOM     13  C   UNL     1      -6.062  -2.876   3.066  0.00  0.00    +0.011 A 
ATOM     14  C   UNL     1      -6.630  -3.104   4.303  0.00  0.00    +0.020 A 
ATOM     15  C   UNL     1      -6.111  -4.080   5.137  0.00  0.00    +0.041 A 
ATOM     16  C   UNL     1      -5.023  -4.835   4.733  0.00  0.00    +0.020 A 
ATOM     17  C   UNL     1      -4.450  -4.619   3.497  0.00  0.00    +0.011 A 
ATOM     18 CL   UNL     1      -6.825  -4.356   6.694  0.00  0.00    -0.084 Cl
ENDBRANCH  10  12
BRANCH   1  19
ATOM     19  C   UNL     1      -0.966  -3.241  -0.106  0.00  0.00    +0.244 C 
BRANCH  19  21
ATOM     20  N   UNL     1       0.915  -1.652   0.128  0.00  0.00    -0.205 N 
ATOM     21  C   UNL     1      -0.416  -1.860   0.141  0.00  0.00    +0.254 C 
ATOM     22  O   UNL     1      -1.172  -0.935   0.353  0.00  0.00    -0.272 OA
ATOM     23  H   UNL     1       1.601  -2.491  -0.064  0.00  0.00    +0.177 HD
BRANCH  20  26
ATOM     24  C   UNL     1       3.648  -1.317   0.083  0.00  0.00    +0.068 C 
ATOM     25  C   UNL     1       2.708  -0.169   0.346  0.00  0.00    +0.063 C 
ATOM     26  N   UNL     1       1.426  -0.368   0.359  0.00  0.00    -0.185 NA
BRANCH  25  27
ATOM     27  C   UNL     1       3.247   1.183   0.588  0.00  0.00    -0.002 A 
ATOM     28  C   UNL     1       4.627   1.400   0.581  0.00  0.00    +0.011 A 
ATOM     29  C   UNL     1       5.123   2.668   0.802  0.00  0.00    +0.016 A 
ATOM     30  C   UNL     1       4.257   3.721   1.044  0.00  0.00    +0.018 A 
ATOM     31  C   UNL     1       2.889   3.511   1.058  0.00  0.00    +0.016 A 
ATOM     32  C   UNL     1       2.379   2.250   0.832  0.00  0.00    +0.011 A 
ATOM     33 BR   UNL     1       4.947   5.455   1.353  0.00  0.00    -0.050 Br
ENDBRANCH  25  27
ENDBRANCH  20  26
ENDBRANCH  19  21
ENDBRANCH   1  19
TORSDOF 5
