REMARK  Name = ZINC41585007
REMARK  10 active torsions:
REMARK  status: ('A' for Active; 'I' for Inactive)
REMARK    1  A    between atoms: C_1  and  C_2
REMARK    2  A    between atoms: C_4  and  O_39
REMARK    3  A    between atoms: C_5  and  C_22
REMARK    4  A    between atoms: C_11  and  C_12
REMARK    5  A    between atoms: C_15  and  N_18
REMARK    6  A    between atoms: N_18  and  C_19
REMARK    7  A    between atoms: N_18  and  C_20
REMARK    8  A    between atoms: C_22  and  N_23
REMARK    9  A    between atoms: N_26  and  C_29
REMARK   10  A    between atoms: C_29  and  C_30
REMARK                            x       y       z     vdW  Elec       q    Type
REMARK                         _______ _______ _______ _____ _____    ______ ____
ROOT
ATOM      1  C   UNL     1      -0.079   1.511   0.018  0.00  0.00    +0.045 C 
ATOM      2  C   UNL     1      -0.068   0.004   0.007  0.00  0.00    -0.033 A 
ATOM      3  C   UNL     1      -0.090  -0.672  -1.180  0.00  0.00    +0.050 A 
ATOM      4  C   UNL     1      -0.081  -2.064  -1.192  0.00  0.00    +0.122 A 
ATOM      5  C   UNL     1      -0.047  -2.780  -0.006  0.00  0.00    +0.020 A 
ATOM      6  C   UNL     1      -0.024  -2.108   1.210  0.00  0.00    +0.145 A 
ATOM      7  C   UNL     1      -0.029  -0.703   1.209  0.00  0.00    +0.071 A 
ATOM      8  C   UNL     1       0.006  -0.288   2.623  0.00  0.00    +0.232 C 
ATOM      9  O   UNL     1       0.009   0.848   3.067  0.00  0.00    -0.283 OA
ATOM     10  C   UNL     1       0.037  -1.548   3.378  0.00  0.00    +0.176 C 
ATOM     11  C   UNL     1       0.075  -1.673   4.730  0.00  0.00    +0.058 C 
ATOM     12  O   UNL     1       0.009  -2.562   2.481  0.00  0.00    -0.451 OA
ENDROOT
BRANCH  11  13
ATOM     13  C   UNL     1      -0.014  -3.002   5.346  0.00  0.00    -0.021 A 
ATOM     14  C   UNL     1      -0.110  -3.125   6.739  0.00  0.00    +0.010 A 
ATOM     15  C   UNL     1      -0.193  -4.364   7.308  0.00  0.00    +0.023 A 
ATOM     16  C   UNL     1      -0.181  -5.503   6.507  0.00  0.00    +0.029 A 
ATOM     17  C   UNL     1      -0.085  -5.386   5.123  0.00  0.00    +0.023 A 
ATOM     18  C   UNL     1      -0.008  -4.151   4.544  0.00  0.00    +0.010 A 
BRANCH  16  19
ATOM     19  N   UNL     1      -0.265  -6.763   7.092  0.00  0.00    -0.336 N 
ATOM     20  C   UNL     1      -0.478  -6.887   8.536  0.00  0.00    +0.129 C 
ATOM     21  C   UNL     1      -0.140  -7.965   6.263  0.00  0.00    +0.129 C 
ENDBRANCH  16  19
ENDBRANCH  11  13
BRANCH   4  22
ATOM     22  O   UNL     1      -0.104  -2.727  -2.377  0.00  0.00    -0.506 OA
ATOM     23  H   UNL     1       0.772  -2.912  -2.741  0.00  0.00    +0.292 HD
ENDBRANCH   4  22
BRANCH   5  24
ATOM     24  C   UNL     1      -0.037  -4.286  -0.035  0.00  0.00    -0.035 C 
BRANCH  24  25
ATOM     25  N   UNL     1       1.350  -4.766  -0.077  0.00  0.00    +0.384 N 
ATOM     26  C   UNL     1       2.034  -4.395   1.169  0.00  0.00    -0.063 C 
ATOM     27  C   UNL     1       3.485  -4.878   1.118  0.00  0.00    +0.066 C 
ATOM     28  N   UNL     1       3.507  -6.337   0.943  0.00  0.00    -0.302 NA
ATOM     29  C   UNL     1       2.804  -6.726  -0.288  0.00  0.00    +0.066 C 
ATOM     30  C   UNL     1       1.358  -6.227  -0.225  0.00  0.00    -0.063 C 
ATOM     31  H   UNL     1       1.827  -4.346  -0.860  0.00  0.00    -0.081 HD
BRANCH  28  32
ATOM     32  C   UNL     1       4.884  -6.848   0.945  0.00  0.00    +0.119 C 
BRANCH  32  33
ATOM     33  C   UNL     1       4.862  -8.353   1.011  0.00  0.00    -0.030 A 
ATOM     34  C   UNL     1       4.863  -8.990   2.239  0.00  0.00    +0.009 A 
ATOM     35  C   UNL     1       4.843 -10.370   2.304  0.00  0.00    +0.050 A 
ATOM     36  C   UNL     1       4.821 -11.120   1.139  0.00  0.00    +0.166 A 
ATOM     37  C   UNL     1       4.820 -10.479  -0.097  0.00  0.00    +0.167 A 
ATOM     38  C   UNL     1       4.835  -9.094  -0.155  0.00  0.00    +0.054 A 
ATOM     39  O   UNL     1       4.798 -11.426  -1.080  0.00  0.00    -0.453 OA
ATOM     40  C   UNL     1       5.197 -12.652  -0.440  0.00  0.00    +0.466 C 
ATOM     41  O   UNL     1       4.799 -12.469   0.931  0.00  0.00    -0.453 OA
ENDBRANCH  32  33
ENDBRANCH  28  32
ENDBRANCH  24  25
ENDBRANCH   5  24
TORSDOF 7
