REMARK  Name = ZINC12468457
REMARK  9 active torsions:
REMARK  status: ('A' for Active; 'I' for Inactive)
REMARK    1  A    between atoms: C_1  and  C_2
REMARK    2  A    between atoms: C_4  and  C_32
REMARK    3  A    between atoms: C_5  and  C_9
REMARK    4  A    between atoms: C_6  and  O_8
REMARK    5  A    between atoms: C_11  and  C_15
REMARK    6  A    between atoms: N_17  and  C_18
REMARK    7  A    between atoms: C_19  and  C_31
REMARK    8  A    between atoms: N_20  and  C_30
REMARK    9  A    between atoms: N_21  and  C_24
REMARK                            x       y       z     vdW  Elec       q    Type
REMARK                         _______ _______ _______ _____ _____    ______ ____
ROOT
ATOM      1  C   UNL     1       0.688  -8.065   1.537  0.00  0.00    +0.269 C 
ATOM      2  O   UNL     1       1.363  -8.215   2.537  0.00  0.00    -0.268 OA
ATOM      3  N   UNL     1       0.412  -9.121   0.745  0.00  0.00    -0.274 N 
ATOM      4  H   UNL     1      -0.062  -8.989  -0.091  0.00  0.00    +0.155 HD
ENDROOT
BRANCH   3   5
ATOM      5  C   UNL     1       0.812 -10.415   1.132  0.00  0.00    +0.122 A 
ATOM      6  C   UNL     1       0.014 -11.499   1.253  0.00  0.00    +0.059 A 
ATOM      7  N   UNL     1       0.779 -12.564   1.649  0.00  0.00    -0.282 N 
ATOM      8  N   UNL     1       2.108 -12.148   1.786  0.00  0.00    -0.216 N 
ATOM      9  C   UNL     1       2.172 -10.838   1.472  0.00  0.00    +0.293 A 
ATOM     10  O   UNL     1       3.169 -10.139   1.474  0.00  0.00    -0.264 OA
ATOM     11  C   UNL     1       0.285 -13.921   1.891  0.00  0.00    +0.171 C 
ATOM     12  C   UNL     1      -1.471 -11.531   0.995  0.00  0.00    +0.067 C 
BRANCH   8  13
ATOM     13  C   UNL     1       3.184 -12.952   2.175  0.00  0.00    +0.067 A 
ATOM     14  C   UNL     1       4.050 -12.522   3.173  0.00  0.00    +0.028 A 
ATOM     15  C   UNL     1       5.112 -13.318   3.554  0.00  0.00    +0.002 A 
ATOM     16  C   UNL     1       5.314 -14.543   2.944  0.00  0.00    +0.000 A 
ATOM     17  C   UNL     1       4.454 -14.974   1.951  0.00  0.00    +0.002 A 
ATOM     18  C   UNL     1       3.387 -14.185   1.568  0.00  0.00    +0.028 A 
ENDBRANCH   8  13
ENDBRANCH   3   5
BRANCH   1  21
ATOM     19  C   UNL     1      -0.287  -4.563   1.221  0.00  0.00    +0.070 A 
ATOM     20  C   UNL     1       0.375  -5.535   1.918  0.00  0.00    +0.062 A 
ATOM     21  C   UNL     1       0.170  -6.726   1.189  0.00  0.00    +0.148 A 
ATOM     22  N   UNL     1      -0.570  -6.423   0.141  0.00  0.00    -0.169 NA
ATOM     23  N   UNL     1      -0.854  -5.170   0.140  0.00  0.00    -0.276 N 
ATOM     24  H   UNL     1      -1.390  -4.721  -0.533  0.00  0.00    +0.189 HD
BRANCH  19  29
ATOM     25  C   UNL     1      -0.640   1.018   2.600  0.00  0.00    +0.044 C 
ATOM     26  C   UNL     1      -0.545  -0.443   2.239  0.00  0.00    -0.047 A 
ATOM     27  C   UNL     1      -1.698  -1.169   1.998  0.00  0.00    +0.007 A 
ATOM     28  C   UNL     1      -1.620  -2.506   1.667  0.00  0.00    -0.038 A 
ATOM     29  C   UNL     1      -0.376  -3.129   1.575  0.00  0.00    +0.044 A 
ATOM     30  C   UNL     1       0.788  -2.391   1.819  0.00  0.00    +0.126 A 
ATOM     31  C   UNL     1       0.694  -1.048   2.145  0.00  0.00    +0.049 A 
ATOM     32  C   UNL     1      -2.879  -3.293   1.407  0.00  0.00    +0.044 C 
BRANCH  30  33
ATOM     33  O   UNL     1       2.005  -2.989   1.732  0.00  0.00    -0.506 OA
ATOM     34  H   UNL     1       2.401  -2.947   0.851  0.00  0.00    +0.292 HD
ENDBRANCH  30  33
ENDBRANCH  19  29
ENDBRANCH   1  21
TORSDOF 5
