REMARK  Name = ZINC35281671
REMARK  5 active torsions:
REMARK  status: ('A' for Active; 'I' for Inactive)
REMARK    1  A    between atoms: C_1  and  C_2
REMARK    2  A    between atoms: C_5  and  C_23
REMARK    3  A    between atoms: C_10  and  C_12
REMARK    4  A    between atoms: C_12  and  C_13
REMARK    5  A    between atoms: C_13  and  C_20
REMARK                            x       y       z     vdW  Elec       q    Type
REMARK                         _______ _______ _______ _____ _____    ______ ____
ROOT
ATOM      1  C   UNL     1       3.103  -2.090   1.470  0.00  0.00    +0.114 C 
ENDROOT
BRANCH   1   9
ATOM      2  C   UNL     1       0.434   1.492  -0.764  0.00  0.00    +0.009 C 
ATOM      3  C   UNL     1       0.463  -0.037  -0.753  0.00  0.00    +0.004 C 
ATOM      4  C   UNL     1      -0.927  -0.577  -1.097  0.00  0.00    +0.009 C 
ATOM      5  C   UNL     1      -0.891  -2.107  -1.118  0.00  0.00    +0.004 C 
ATOM      6  C   UNL     1      -0.502  -2.623   0.271  0.00  0.00    +0.111 C 
ATOM      7  N   UNL     1       0.764  -1.996   0.672  0.00  0.00    -0.301 N 
ATOM      8  C   UNL     1       0.868  -0.530   0.640  0.00  0.00    +0.111 C 
ATOM      9  C   UNL     1       1.811  -2.749   1.061  0.00  0.00    +0.217 C 
ATOM     10  O   UNL     1       1.714  -3.958   1.083  0.00  0.00    -0.276 OA
ATOM     11  C   UNL     1       0.139  -2.580  -2.146  0.00  0.00    +0.009 C 
ENDBRANCH   1   9
BRANCH   1  12
ATOM     12  C   UNL     1       4.169  -3.162   1.710  0.00  0.00    +0.080 C 
ATOM     13  C   UNL     1       5.544  -2.479   1.835  0.00  0.00    +0.019 C 
ATOM     14  C   UNL     1       5.775  -1.849   3.222  0.00  0.00    +0.001 C 
ATOM     15  C   UNL     1       4.554  -1.141   3.743  0.00  0.00    +0.000 C 
ATOM     16  C   UNL     1       3.763  -2.119   4.636  0.00  0.00    +0.000 C 
ATOM     17  C   UNL     1       2.951  -3.045   3.860  0.00  0.00    +0.001 C 
ATOM     18  C   UNL     1       3.801  -3.946   2.941  0.00  0.00    +0.019 C 
BRANCH  12  19
ATOM     19  C   UNL     1       4.196  -4.096   0.528  0.00  0.00    +0.362 C 
ATOM     20  O   UNL     1       4.447  -3.664  -0.584  0.00  0.00    -0.246 OA
ATOM     21  O   UNL     1       3.967  -5.283   0.683  0.00  0.00    -0.246 OA
ENDBRANCH  12  19
ENDBRANCH   1  12
TORSDOF 3
