REMARK  Name = ZINC16996580
REMARK  6 active torsions:
REMARK  status: ('A' for Active; 'I' for Inactive)
REMARK    1  A    between atoms: C_4  and  C_7
REMARK    2  A    between atoms: C_7  and  C_8
REMARK    3  A    between atoms: C_8  and  N_9
REMARK    4  A    between atoms: C_17  and  C_21
REMARK    5  A    between atoms: C_17  and  N_25
REMARK    6  A    between atoms: C_26  and  C_28
REMARK                            x       y       z     vdW  Elec       q    Type
REMARK                         _______ _______ _______ _____ _____    ______ ____
ROOT
ATOM      1  N   UNL     1       5.519  -1.675   1.649  0.00  0.00    -0.268 N 
ATOM      2  C   UNL     1       5.508  -3.051   1.540  0.00  0.00    +0.131 C 
ATOM      3  C   UNL     1       6.739  -3.717   1.447  0.00  0.00    +0.093 C 
ATOM      4  C   UNL     1       7.903  -3.015   1.465  0.00  0.00    +0.252 C 
ATOM      5  O   UNL     1       9.086  -3.658   1.375  0.00  0.00    -0.270 OA
ATOM      6  N   UNL     1       7.865  -1.649   1.576  0.00  0.00    -0.263 N 
ATOM      7  C   UNL     1       6.686  -1.006   1.659  0.00  0.00    +0.145 C 
ATOM      8  S   UNL     1       6.671   0.701   1.788  0.00  0.00    -0.018 S 
ATOM      9  C   UNL     1       6.398  -5.185   1.341  0.00  0.00    +0.242 C 
ATOM     10  C   UNL     1       4.882  -5.181   1.391  0.00  0.00    +0.275 C 
ATOM     11  O   UNL     1       4.154  -6.154   1.337  0.00  0.00    -0.271 OA
ATOM     12  N   UNL     1       4.502  -3.920   1.503  0.00  0.00    -0.162 NA
ATOM     13  H   UNL     1       8.692  -1.143   1.589  0.00  0.00    +0.157 HD
ENDROOT
BRANCH   9  14
ATOM     14  C   UNL     1       6.977  -5.963   2.524  0.00  0.00    +0.424 C 
ATOM     15  F   UNL     1       6.549  -5.378   3.721  0.00  0.00    -0.167 F 
ATOM     16  F   UNL     1       6.537  -7.289   2.471  0.00  0.00    -0.167 F 
ATOM     17  F   UNL     1       8.374  -5.932   2.463  0.00  0.00    -0.167 F 
ENDBRANCH   9  14
BRANCH   9  18
ATOM     18  N   UNL     1       6.874  -5.738   0.071  0.00  0.00    -0.287 N 
ATOM     19  C   UNL     1       6.474  -5.192  -1.095  0.00  0.00    +0.245 C 
ATOM     20  O   UNL     1       5.793  -4.186  -1.092  0.00  0.00    -0.270 OA
ATOM     21  H   UNL     1       7.477  -6.498   0.069  0.00  0.00    +0.151 HD
BRANCH  19  22
ATOM     22  C   UNL     1       6.864  -5.817  -2.375  0.00  0.00    +0.037 A 
ATOM     23  C   UNL     1       7.642  -6.976  -2.381  0.00  0.00    +0.016 A 
ATOM     24  C   UNL     1       8.003  -7.555  -3.579  0.00  0.00    +0.039 A 
ATOM     25  C   UNL     1       7.596  -6.988  -4.776  0.00  0.00    +0.123 A 
ATOM     26  C   UNL     1       6.823  -5.836  -4.776  0.00  0.00    +0.039 A 
ATOM     27  C   UNL     1       6.451  -5.253  -3.584  0.00  0.00    +0.016 A 
ATOM     28  F   UNL     1       7.953  -7.558  -5.948  0.00  0.00    -0.205 F 
ENDBRANCH  19  22
ENDBRANCH   9  18
BRANCH   1  29
ATOM     29  C   UNL     1       4.256  -0.940   1.748  0.00  0.00    +0.118 C 
BRANCH  29  30
ATOM     30  C   UNL     1       3.766  -0.576   0.345  0.00  0.00    +0.054 C 
BRANCH  30  34
ATOM     31  C   UNL     1       0.082   1.567   0.631  0.00  0.00    +0.000 A 
ATOM     32  C   UNL     1       1.282   2.252   0.643  0.00  0.00    +0.000 A 
ATOM     33  C   UNL     1       2.475   1.558   0.550  0.00  0.00    +0.004 A 
ATOM     34  C   UNL     1       2.466   0.180   0.447  0.00  0.00    -0.046 A 
ATOM     35  C   UNL     1       1.266  -0.505   0.436  0.00  0.00    +0.004 A 
ATOM     36  C   UNL     1       0.073   0.188   0.527  0.00  0.00    +0.000 A 
ENDBRANCH  30  34
ENDBRANCH  29  30
ENDBRANCH   1  29
TORSDOF 6
