REMARK  Name = ZINC32696826
REMARK  7 active torsions:
REMARK  status: ('A' for Active; 'I' for Inactive)
REMARK    1  A    between atoms: C_1  and  N_2
REMARK    2  A    between atoms: N_5  and  C_8
REMARK    3  A    between atoms: C_8  and  S_10
REMARK    4  A    between atoms: S_10  and  C_11
REMARK    5  A    between atoms: C_11  and  C_12
REMARK    6  A    between atoms: C_18  and  S_20
REMARK    7  A    between atoms: S_20  and  C_21
REMARK                            x       y       z     vdW  Elec       q    Type
REMARK                         _______ _______ _______ _____ _____    ______ ____
ROOT
ATOM      1  C   UNL     1       6.508   3.350  -0.042  0.00  0.00    +0.229 C 
ATOM      2  O   UNL     1       6.527   2.137  -0.049  0.00  0.00    -0.275 OA
ATOM      3  N   UNL     1       5.331   4.006  -0.028  0.00  0.00    -0.263 N 
ATOM      4  C   UNL     1       4.136   3.292  -0.020  0.00  0.00    +0.189 A 
ATOM      5  N   UNL     1       3.926   1.986  -0.025  0.00  0.00    -0.125 NA
ATOM      6  N   UNL     1       2.764   1.495  -0.010  0.00  0.00    -0.133 NA
ATOM      7  C   UNL     1       1.681   2.259  -0.002  0.00  0.00    +0.160 A 
ATOM      8  S   UNL     1       2.444   3.879  -0.000  0.00  0.00    -0.024 S 
ATOM      9  H   UNL     1       5.315   5.106  -0.022  0.00  0.00    +0.157 HD
ENDROOT
BRANCH   1  10
ATOM     10  C   UNL     1       7.802   4.123  -0.051  0.00  0.00    +0.172 C 
BRANCH  10  11
ATOM     11  S   UNL     1       9.195   2.967  -0.070  0.00  0.00    -0.093 S 
BRANCH  11  12
ATOM     12  C   UNL     1      10.538   4.108  -0.078  0.00  0.00    +0.110 C 
ATOM     13  S   UNL     1      10.232   5.792  -0.066  0.00  0.00    -0.028 S 
BRANCH  12  18
ATOM     14  C   UNL     1      15.286   2.414  -2.087  0.00  0.00    +0.105 C 
ATOM     15  N   UNL     1      14.249   2.783  -1.113  0.00  0.00    -0.302 NA
ATOM     16  C   UNL     1      13.887   4.200  -1.242  0.00  0.00    +0.103 C 
ATOM     17  C   UNL     1      12.943   4.588  -0.098  0.00  0.00    +0.121 C 
ATOM     18  N   UNL     1      11.807   3.654  -0.092  0.00  0.00    -0.317 N 
ATOM     19  C   UNL     1      12.093   2.211  -0.096  0.00  0.00    +0.121 C 
ATOM     20  C   UNL     1      13.070   1.917  -1.245  0.00  0.00    +0.103 C 
ENDBRANCH  12  18
ENDBRANCH  11  12
ENDBRANCH  10  11
ENDBRANCH   1  10
BRANCH   7  21
ATOM     21  S   UNL     1      -0.022   1.810   0.012  0.00  0.00    -0.094 S 
BRANCH  21  22
ATOM     22  C   UNL     1       0.002  -0.004   0.002  0.00  0.00    +0.053 C 
ATOM     23  C   UNL     1       0.606  -0.499  -1.314  0.00  0.00    +0.014 C 
ATOM     24  C   UNL     1       0.627  -2.029  -1.322  0.00  0.00    +0.001 C 
ATOM     25  C   UNL     1      -0.802  -2.559  -1.186  0.00  0.00    +0.000 C 
ATOM     26  C   UNL     1      -1.406  -2.064   0.130  0.00  0.00    +0.001 C 
ATOM     27  C   UNL     1      -1.427  -0.534   0.139  0.00  0.00    +0.014 C 
ENDBRANCH  21  22
ENDBRANCH   7  21
TORSDOF 6
