REMARK  Name = ZINC33057672
REMARK  6 active torsions:
REMARK  status: ('A' for Active; 'I' for Inactive)
REMARK    1  A    between atoms: C_1  and  C_2
REMARK    2  A    between atoms: C_2  and  C_4
REMARK    3  A    between atoms: C_2  and  N_17
REMARK    4  A    between atoms: N_6  and  C_7
REMARK    5  A    between atoms: C_12  and  C_13
REMARK    6  A    between atoms: C_24  and  C_27
REMARK                            x       y       z     vdW  Elec       q    Type
REMARK                         _______ _______ _______ _____ _____    ______ ____
ROOT
ATOM      1  N   UNL     1       3.944  -0.881  -0.052  0.00  0.00    -0.287 N 
ATOM      2  C   UNL     1       3.059  -1.907  -0.042  0.00  0.00    +0.206 A 
ATOM      3  N   UNL     1       1.767  -1.722  -0.030  0.00  0.00    -0.200 NA
ATOM      4  C   UNL     1       1.243  -0.491  -0.028  0.00  0.00    +0.265 A 
ATOM      5  C   UNL     1       2.110   0.613  -0.038  0.00  0.00    +0.133 A 
ATOM      6  C   UNL     1       3.501   0.399  -0.050  0.00  0.00    +0.268 A 
ATOM      7  O   UNL     1       4.281   1.335  -0.059  0.00  0.00    -0.267 OA
ATOM      8  C   UNL     1       1.196   1.758  -0.032  0.00  0.00    +0.128 A 
ATOM      9  N   UNL     1      -0.007   1.233  -0.020  0.00  0.00    -0.075 NA
ATOM     10  O   UNL     1       0.007   0.023  -0.018  0.00  0.00    -0.334 OA
ENDROOT
BRANCH   8  11
ATOM     11  C   UNL     1       1.551   3.198  -0.038  0.00  0.00    +0.005 A 
ATOM     12  C   UNL     1       2.681   3.642   0.647  0.00  0.00    +0.011 A 
ATOM     13  C   UNL     1       3.011   4.982   0.634  0.00  0.00    +0.020 A 
ATOM     14  C   UNL     1       2.216   5.886  -0.049  0.00  0.00    +0.041 A 
ATOM     15  C   UNL     1       1.089   5.451  -0.726  0.00  0.00    +0.020 A 
ATOM     16  C   UNL     1       0.754   4.113  -0.724  0.00  0.00    +0.011 A 
ATOM     17 CL   UNL     1       2.633   7.571  -0.056  0.00  0.00    -0.084 Cl
ENDBRANCH   8  11
BRANCH   1  19
ATOM     18  C   UNL     1       5.759  -1.959   1.183  0.00  0.00    +0.041 C 
ATOM     19  C   UNL     1       5.382  -1.157  -0.065  0.00  0.00    +0.174 C 
BRANCH  19  20
ATOM     20  C   UNL     1       5.731  -1.951  -1.297  0.00  0.00    +0.240 C 
ATOM     21  O   UNL     1       4.863  -2.257  -2.087  0.00  0.00    -0.273 OA
ATOM     22  N   UNL     1       7.007  -2.321  -1.521  0.00  0.00    -0.283 N 
ATOM     23  H   UNL     1       7.806  -1.982  -0.845  0.00  0.00    +0.155 HD
BRANCH  22  24
ATOM     24  C   UNL     1       7.317  -3.138  -2.614  0.00  0.00    +0.045 A 
ATOM     25  C   UNL     1       6.610  -3.008  -3.803  0.00  0.00    +0.024 A 
ATOM     26  C   UNL     1       6.921  -3.812  -4.881  0.00  0.00    +0.002 A 
ATOM     27  C   UNL     1       7.929  -4.753  -4.776  0.00  0.00    +0.001 A 
ATOM     28  C   UNL     1       8.631  -4.889  -3.592  0.00  0.00    +0.014 A 
ATOM     29  C   UNL     1       8.328  -4.085  -2.511  0.00  0.00    +0.076 A 
BRANCH  29  30
ATOM     30  C   UNL     1       9.093  -4.234  -1.222  0.00  0.00    +0.419 C 
ATOM     31  F   UNL     1      10.052  -5.243  -1.363  0.00  0.00    -0.166 F 
ATOM     32  F   UNL     1       9.729  -3.026  -0.914  0.00  0.00    -0.166 F 
ATOM     33  F   UNL     1       8.209  -4.571  -0.191  0.00  0.00    -0.166 F 
ENDBRANCH  29  30
ENDBRANCH  22  24
ENDBRANCH  19  20
ENDBRANCH   1  19
TORSDOF 5
