REMARK  Name = ZINC39634321
REMARK  6 active torsions:
REMARK  status: ('A' for Active; 'I' for Inactive)
REMARK    1  A    between atoms: C_1  and  C_2
REMARK    2  A    between atoms: C_5  and  C_8
REMARK    3  A    between atoms: C_8  and  N_9
REMARK    4  A    between atoms: C_10  and  C_12
REMARK    5  A    between atoms: C_23  and  C_25
REMARK    6  A    between atoms: C_29  and  C_31
REMARK                            x       y       z     vdW  Elec       q    Type
REMARK                         _______ _______ _______ _____ _____    ______ ____
ROOT
ATOM      1  C   UNL     1       2.760  -6.568  -0.641  0.00  0.00    +0.100 C 
ATOM      2  C   UNL     1       3.727  -6.156  -1.774  0.00  0.00    +0.121 C 
ATOM      3  N   UNL     1       4.596  -7.339  -1.973  0.00  0.00    -0.296 N 
ATOM      4  C   UNL     1       3.680  -8.497  -1.836  0.00  0.00    +0.115 C 
ATOM      5  C   UNL     1       2.732  -8.105  -0.686  0.00  0.00    -0.004 C 
ATOM      6  C   UNL     1       3.236  -8.681   0.634  0.00  0.00    -0.010 C 
ATOM      7  C   UNL     1       3.145 -10.209   0.586  0.00  0.00    -0.082 C 
ATOM      8  N   UNL     1       1.753 -10.611   0.354  0.00  0.00    +0.379 N 
ATOM      9  C   UNL     1       1.305 -10.131  -0.959  0.00  0.00    -0.082 C 
ATOM     10  C   UNL     1       1.318  -8.599  -0.977  0.00  0.00    -0.010 C 
ATOM     11  C   UNL     1       5.921  -7.359  -2.222  0.00  0.00    +0.247 C 
ATOM     12  O   UNL     1       6.563  -6.327  -2.179  0.00  0.00    -0.270 OA
ATOM     13  H   UNL     1       1.685 -11.617   0.384  0.00  0.00    -0.086 HD
ATOM     14  H   UNL     1       1.166 -10.215   1.073  0.00  0.00    -0.086 HD
ENDROOT
BRANCH  11  15
ATOM     15  C   UNL     1       6.593  -8.634  -2.548  0.00  0.00    +0.037 A 
ATOM     16  C   UNL     1       5.849  -9.718  -3.020  0.00  0.00    +0.014 A 
ATOM     17  C   UNL     1       6.482 -10.905  -3.322  0.00  0.00    +0.016 A 
ATOM     18  C   UNL     1       7.852 -11.024  -3.158  0.00  0.00    +0.021 A 
ATOM     19  C   UNL     1       8.595  -9.954  -2.691  0.00  0.00    -0.036 A 
ATOM     20  C   UNL     1       7.974  -8.759  -2.391  0.00  0.00    +0.017 A 
ATOM     21  C   UNL     1      10.085 -10.092  -2.515  0.00  0.00    +0.045 C 
ATOM     22 BR   UNL     1       8.711 -12.657  -3.574  0.00  0.00    -0.050 Br
ENDBRANCH  11  15
BRANCH   1  24
ATOM     23  N   UNL     1       0.577  -5.704   0.138  0.00  0.00    -0.311 N 
ATOM     24  C   UNL     1       1.384  -6.010  -0.898  0.00  0.00    +0.218 C 
ATOM     25  O   UNL     1       1.002  -5.837  -2.036  0.00  0.00    -0.275 OA
ATOM     26  H   UNL     1       0.883  -5.842   1.048  0.00  0.00    +0.149 HD
BRANCH  23  27
ATOM     27  C   UNL     1      -0.761  -5.162  -0.112  0.00  0.00    +0.139 C 
BRANCH  27  32
ATOM     28  C   UNL     1      -3.415  -4.182   4.927  0.00  0.00    +0.044 C 
ATOM     29  C   UNL     1      -2.723  -4.438   3.613  0.00  0.00    -0.050 A 
ATOM     30  C   UNL     1      -1.958  -3.444   3.030  0.00  0.00    +0.003 A 
ATOM     31  C   UNL     1      -1.323  -3.679   1.825  0.00  0.00    +0.005 A 
ATOM     32  C   UNL     1      -1.452  -4.906   1.203  0.00  0.00    -0.030 A 
ATOM     33  C   UNL     1      -2.216  -5.900   1.786  0.00  0.00    +0.005 A 
ATOM     34  C   UNL     1      -2.848  -5.667   2.994  0.00  0.00    +0.003 A 
ENDBRANCH  27  32
ENDBRANCH  23  27
ENDBRANCH   1  24
TORSDOF 4
