REMARK  Name = ZINC13641295
REMARK  3 active torsions:
REMARK  status: ('A' for Active; 'I' for Inactive)
REMARK    1  A    between atoms: C_1  and  C_2
REMARK    2  A    between atoms: C_4  and  C_20
REMARK    3  A    between atoms: C_6  and  C_11
REMARK                            x       y       z     vdW  Elec       q    Type
REMARK                         _______ _______ _______ _____ _____    ______ ____
ROOT
ATOM      1  C   UNL     1      -1.297  -0.721  -0.737  0.00  0.00    +0.066 C 
ATOM      2  C   UNL     1       0.001   0.037  -0.635  0.00  0.00    +0.043 A 
ATOM      3  C   UNL     1       1.197  -0.647  -0.782  0.00  0.00    +0.037 A 
ATOM      4  C   UNL     1       2.398   0.055  -0.688  0.00  0.00    +0.053 A 
ATOM      5  C   UNL     1       2.332   1.439  -0.446  0.00  0.00    +0.081 A 
ATOM      6  C   UNL     1       3.339   2.497  -0.285  0.00  0.00    +0.124 A 
ATOM      7  N   UNL     1       2.693   3.614  -0.076  0.00  0.00    -0.075 NA
ATOM      8  O   UNL     1       1.302   3.366  -0.087  0.00  0.00    -0.334 OA
ATOM      9  C   UNL     1       1.078   2.055  -0.310  0.00  0.00    +0.260 A 
ATOM     10  N   UNL     1      -0.029   1.333  -0.410  0.00  0.00    -0.215 NA
ENDROOT
BRANCH   4  11
ATOM     11  C   UNL     1       3.700  -0.633  -0.838  0.00  0.00    +0.247 C 
ATOM     12  O   UNL     1       4.472  -0.289  -1.711  0.00  0.00    -0.270 OA
ATOM     13  N   UNL     1       4.029  -1.641  -0.006  0.00  0.00    -0.301 N 
ATOM     14  C   UNL     1       3.064  -2.121   0.992  0.00  0.00    +0.089 C 
ATOM     15  C   UNL     1       3.005  -3.662   0.954  0.00  0.00    -0.059 C 
ATOM     16  C   UNL     1       4.537  -5.610   1.178  0.00  0.00    -0.078 C 
ATOM     17  C   UNL     1       5.915  -5.937   0.555  0.00  0.00    -0.020 C 
ATOM     18  C   UNL     1       6.439  -4.582   0.006  0.00  0.00    -0.016 C 
ATOM     19  C   UNL     1       5.139  -3.775  -0.159  0.00  0.00    -0.051 C 
ATOM     20  C   UNL     1       5.364  -2.266  -0.087  0.00  0.00    +0.093 C 
ATOM     21  N   UNL     1       4.426  -4.148   1.048  0.00  0.00    +0.384 N 
ATOM     22  H   UNL     1       4.868  -3.708   1.863  0.00  0.00    -0.081 HD
ENDBRANCH   4  11
BRANCH   6  23
ATOM     23  C   UNL     1       4.810   2.329  -0.348  0.00  0.00    +0.008 A 
ATOM     24  C   UNL     1       5.422   1.270   0.322  0.00  0.00    +0.014 A 
ATOM     25  C   UNL     1       6.791   1.111   0.259  0.00  0.00    +0.050 A 
ATOM     26  C   UNL     1       7.564   2.010  -0.462  0.00  0.00    +0.166 A 
ATOM     27  C   UNL     1       6.958   3.073  -1.130  0.00  0.00    +0.167 A 
ATOM     28  C   UNL     1       5.586   3.233  -1.073  0.00  0.00    +0.059 A 
ATOM     29  O   UNL     1       7.927   3.803  -1.757  0.00  0.00    -0.453 OA
ATOM     30  C   UNL     1       9.083   2.945  -1.806  0.00  0.00    +0.466 C 
ATOM     31  O   UNL     1       8.911   2.074  -0.672  0.00  0.00    -0.453 OA
ENDBRANCH   6  23
TORSDOF 2
