REMARK  Name = ZINC13570782
REMARK  6 active torsions:
REMARK  status: ('A' for Active; 'I' for Inactive)
REMARK    1  A    between atoms: C_1  and  C_2
REMARK    2  A    between atoms: C_12  and  C_13
REMARK    3  A    between atoms: C_13  and  C_14
REMARK    4  A    between atoms: N_16  and  C_17
REMARK    5  A    between atoms: C_17  and  C_18
REMARK    6  A    between atoms: C_18  and  C_19
REMARK                            x       y       z     vdW  Elec       q    Type
REMARK                         _______ _______ _______ _____ _____    ______ ____
ROOT
ATOM      1  C   UNL     1       0.012   1.492   0.252  0.00  0.00    +0.045 C 
ATOM      2  C   UNL     1       0.016  -0.009   0.116  0.00  0.00    -0.029 A 
ATOM      3  C   UNL     1      -1.224  -0.781   0.221  0.00  0.00    +0.021 A 
ATOM      4  C   UNL     1      -2.450  -0.148   0.447  0.00  0.00    +0.019 A 
ATOM      5  C   UNL     1      -3.599  -0.886   0.531  0.00  0.00    -0.005 A 
ATOM      6  C   UNL     1      -3.555  -2.270   0.396  0.00  0.00    +0.128 A 
ATOM      7  C   UNL     1      -2.343  -2.914   0.180  0.00  0.00    +0.093 A 
ATOM      8  C   UNL     1      -1.169  -2.181   0.092  0.00  0.00    +0.143 A 
ATOM      9  O   UNL     1       0.011  -2.800  -0.116  0.00  0.00    -0.422 OA
ATOM     10  C   UNL     1       1.142  -2.093  -0.230  0.00  0.00    +0.341 A 
ATOM     11  O   UNL     1       2.184  -2.685  -0.445  0.00  0.00    -0.245 OA
ATOM     12  C   UNL     1       1.170  -0.689  -0.114  0.00  0.00    +0.049 A 
ATOM     13  O   UNL     1      -4.680  -3.028   0.460  0.00  0.00    -0.485 OA
ATOM     14  C   UNL     1      -5.847  -2.444   1.036  0.00  0.00    +0.111 C 
ATOM     15  C   UNL     1      -5.653  -2.279   2.544  0.00  0.00    +0.048 C 
ATOM     16  C   UNL     1      -5.431  -3.651   3.184  0.00  0.00    +0.004 C 
ATOM     17  C   UNL     1      -6.648  -4.540   2.919  0.00  0.00    +0.000 C 
ATOM     18  C   UNL     1      -6.837  -4.707   1.410  0.00  0.00    +0.004 C 
ATOM     19  C   UNL     1      -7.059  -3.336   0.768  0.00  0.00    +0.048 C 
ATOM     20  C   UNL     1      -6.073  -1.069   0.397  0.00  0.00    +0.053 C 
ATOM     21  C   UNL     1      -4.900  -0.163   0.777  0.00  0.00    +0.043 C 
ENDROOT
BRANCH  12  22
ATOM     22  C   UNL     1       2.474   0.055  -0.241  0.00  0.00    +0.138 C 
BRANCH  22  23
ATOM     23  C   UNL     1       3.168   0.086   1.097  0.00  0.00    +0.218 C 
ATOM     24  O   UNL     1       2.653  -0.444   2.058  0.00  0.00    -0.275 OA
ATOM     25  N   UNL     1       4.359   0.702   1.224  0.00  0.00    -0.315 N 
ATOM     26  H   UNL     1       4.771   1.126   0.455  0.00  0.00    +0.149 HD
BRANCH  25  27
ATOM     27  C   UNL     1       5.033   0.732   2.525  0.00  0.00    +0.110 C 
BRANCH  27  28
ATOM     28  C   UNL     1       6.357   1.487   2.396  0.00  0.00    +0.073 C 
BRANCH  28  29
ATOM     29  C   UNL     1       7.051   1.518   3.733  0.00  0.00    +0.035 A 
ATOM     30  C   UNL     1       6.832   2.411   4.717  0.00  0.00    +0.105 A 
ATOM     31  N   UNL     1       7.666   2.075   5.749  0.00  0.00    -0.352 N 
ATOM     32  H   UNL     1       7.741   2.533   6.601  0.00  0.00    +0.166 HD
ATOM     33  C   UNL     1       8.366   0.988   5.360  0.00  0.00    +0.171 A 
ATOM     34  N   UNL     1       7.989   0.657   4.155  0.00  0.00    -0.350 N 
ATOM     35  H   UNL     1       8.334  -0.091   3.644  0.00  0.00    +0.166 HD
ENDBRANCH  28  29
ENDBRANCH  27  28
ENDBRANCH  25  27
ENDBRANCH  22  23
ENDBRANCH  12  22
TORSDOF 5
