REMARK  Name = ZINC13564995
REMARK  5 active torsions:
REMARK  status: ('A' for Active; 'I' for Inactive)
REMARK    1  A    between atoms: C_1  and  C_2
REMARK    2  A    between atoms: C_3  and  C_21
REMARK    3  A    between atoms: C_8  and  C_10
REMARK    4  A    between atoms: C_10  and  N_11
REMARK    5  A    between atoms: C_30  and  C_32
REMARK                            x       y       z     vdW  Elec       q    Type
REMARK                         _______ _______ _______ _____ _____    ______ ____
ROOT
ATOM      1  C   UNL     1      -0.020   1.639  -0.076  0.00  0.00    +0.054 C 
ATOM      2  C   UNL     1       0.034   0.136   0.014  0.00  0.00    +0.016 A 
ATOM      3  C   UNL     1      -0.980  -0.766   0.177  0.00  0.00    +0.083 A 
ATOM      4  N   UNL     1      -0.698  -2.059   0.230  0.00  0.00    -0.224 NA
ATOM      5  C   UNL     1       0.544  -2.494   0.129  0.00  0.00    +0.165 A 
ATOM      6  S   UNL     1       1.443  -0.962  -0.070  0.00  0.00    -0.057 S 
ATOM      7  N   UNL     1       1.024  -3.797   0.162  0.00  0.00    -0.264 N 
ATOM      8  C   UNL     1       2.346  -4.032   0.040  0.00  0.00    +0.233 C 
ATOM      9  O   UNL     1       3.116  -3.105  -0.100  0.00  0.00    -0.274 OA
ATOM     10  H   UNL     1       0.408  -4.539   0.273  0.00  0.00    +0.157 HD
ENDROOT
BRANCH   3  11
ATOM     11  C   UNL     1      -2.384  -0.300   0.294  0.00  0.00    +0.002 A 
ATOM     12  C   UNL     1      -2.869   0.687  -0.562  0.00  0.00    +0.012 A 
ATOM     13  C   UNL     1      -4.171   1.117  -0.452  0.00  0.00    +0.024 A 
ATOM     14  C   UNL     1      -5.018   0.570   0.517  0.00  0.00    +0.040 A 
ATOM     15  C   UNL     1      -4.531  -0.412   1.366  0.00  0.00    -0.024 A 
ATOM     16  C   UNL     1      -3.228  -0.852   1.256  0.00  0.00    +0.015 A 
ATOM     17  C   UNL     1      -5.639  -0.827   2.307  0.00  0.00    +0.056 C 
ATOM     18  C   UNL     1      -6.840   0.041   1.898  0.00  0.00    +0.119 C 
ATOM     19  N   UNL     1      -6.357   0.867   0.789  0.00  0.00    -0.267 N 
ATOM     20  C   UNL     1      -7.096   1.779   0.126  0.00  0.00    +0.254 C 
ATOM     21  O   UNL     1      -6.635   2.345  -0.846  0.00  0.00    -0.270 OA
BRANCH  20  22
ATOM     22  C   UNL     1      -8.465   2.092   0.582  0.00  0.00    +0.072 A 
ATOM     23  C   UNL     1      -9.059   1.334   1.593  0.00  0.00    +0.016 A 
ATOM     24  C   UNL     1     -10.337   1.631   2.014  0.00  0.00    +0.001 A 
ATOM     25  C   UNL     1     -11.035   2.679   1.437  0.00  0.00    +0.003 A 
ATOM     26  C   UNL     1     -10.456   3.435   0.436  0.00  0.00    +0.039 A 
ATOM     27  C   UNL     1      -9.172   3.153   0.007  0.00  0.00    +0.135 A 
ATOM     28  F   UNL     1      -8.604   3.896  -0.969  0.00  0.00    -0.205 F 
ENDBRANCH  20  22
ENDBRANCH   3  11
BRANCH   8  29
ATOM     29  C   UNL     1       2.867  -5.446   0.075  0.00  0.00    +0.181 C 
BRANCH  29  30
ATOM     30  N   UNL     1       4.328  -5.433  -0.077  0.00  0.00    -0.289 NA
ATOM     31  C   UNL     1       4.850  -6.796  -0.263  0.00  0.00    +0.090 C 
ATOM     32  C   UNL     1       6.287  -6.699  -0.775  0.00  0.00    +0.051 C 
ATOM     33  C   UNL     1       7.084  -5.765   0.099  0.00  0.00    -0.042 A 
ATOM     34  C   UNL     1       8.468  -5.813   0.029  0.00  0.00    +0.004 A 
ATOM     35  C   UNL     1       9.235  -4.972   0.810  0.00  0.00    +0.000 A 
ATOM     36  C   UNL     1       8.620  -4.076   1.665  0.00  0.00    +0.000 A 
ATOM     37  C   UNL     1       7.243  -4.029   1.736  0.00  0.00    +0.005 A 
ATOM     38  C   UNL     1       6.470  -4.876   0.955  0.00  0.00    -0.030 A 
ATOM     39  C   UNL     1       4.971  -4.795   1.075  0.00  0.00    +0.120 C 
ENDBRANCH  29  30
ENDBRANCH   8  29
TORSDOF 4
