REMARK  Name = ZINC22854059
REMARK  5 active torsions:
REMARK  status: ('A' for Active; 'I' for Inactive)
REMARK    1  A    between atoms: C_1  and  C_2
REMARK    2  A    between atoms: C_2  and  C_3
REMARK    3  A    between atoms: C_9  and  C_11
REMARK    4  A    between atoms: C_11  and  C_13
REMARK    5  A    between atoms: C_11  and  N_20
REMARK                            x       y       z     vdW  Elec       q    Type
REMARK                         _______ _______ _______ _____ _____    ______ ____
ROOT
ATOM      1  C   UNL     1       2.490   1.047  -0.016  0.00  0.00    +0.006 C 
ENDROOT
BRANCH   1   2
ATOM      2  N   UNL     1       3.444   1.729   0.869  0.00  0.00    +0.388 N 
ATOM      3  C   UNL     1       2.856   1.967   2.194  0.00  0.00    -0.072 C 
ATOM      4  C   UNL     1       3.817   2.808   3.036  0.00  0.00    +0.046 C 
ATOM      5  C   UNL     1       5.151   2.070   3.168  0.00  0.00    +0.167 C 
ATOM      6  C   UNL     1       5.719   1.785   1.776  0.00  0.00    +0.046 C 
ATOM      7  C   UNL     1       4.699   0.975   0.972  0.00  0.00    -0.072 C 
ATOM      8  O   UNL     1       6.078   2.882   3.906  0.00  0.00    -0.346 OA
ATOM      9  C   UNL     1       5.975   2.411   5.272  0.00  0.00    +0.191 C 
ATOM     10  C   UNL     1       5.756   0.891   5.066  0.00  0.00    +0.191 C 
ATOM     11  O   UNL     1       4.952   0.837   3.869  0.00  0.00    -0.346 OA
ATOM     12  H   UNL     1       3.678   2.709   0.427  0.00  0.00    -0.080 HD
ENDBRANCH   1   2
BRANCH   1  19
ATOM     13  C   UNL     1       4.429   0.211  -5.592  0.00  0.00    +0.152 A 
ATOM     14  N   UNL     1       4.588   1.420  -5.058  0.00  0.00    -0.205 NA
ATOM     15  C   UNL     1       4.111   1.421  -3.843  0.00  0.00    +0.199 A 
ATOM     16  N   UNL     1       3.617   0.188  -3.545  0.00  0.00    -0.170 N 
ATOM     17  N   UNL     1       3.848  -0.571  -4.722  0.00  0.00    -0.146 NA
ATOM     18  C   UNL     1       3.077   0.011  -2.294  0.00  0.00    +0.282 A 
ATOM     19  C   UNL     1       3.036   1.024  -1.420  0.00  0.00    +0.050 A 
ATOM     20  S   UNL     1       3.805   2.339  -2.353  0.00  0.00    -0.050 S 
ATOM     21  O   UNL     1       2.576  -1.203  -1.942  0.00  0.00    -0.265 OA
BRANCH  13  23
ATOM     22  C   UNL     1       3.705   0.067  -7.959  0.00  0.00    +0.012 C 
ATOM     23  C   UNL     1       4.853  -0.191  -6.981  0.00  0.00    +0.075 C 
ENDBRANCH  13  23
ENDBRANCH   1  19
BRANCH   1  24
ATOM     24  C   UNL     1       1.175   1.783   0.000  0.00  0.00    -0.056 A 
ATOM     25  C   UNL     1      -0.013   1.076   0.008  0.00  0.00    +0.003 A 
ATOM     26  C   UNL     1      -1.219   1.750   0.017  0.00  0.00    +0.015 A 
ATOM     27  C   UNL     1      -1.238   3.134   0.029  0.00  0.00    +0.018 A 
ATOM     28  C   UNL     1      -0.049   3.841   0.021  0.00  0.00    +0.015 A 
ATOM     29  C   UNL     1       1.157   3.165   0.007  0.00  0.00    +0.003 A 
ATOM     30 BR   UNL     1      -2.888   4.057   0.049  0.00  0.00    -0.050 Br
ENDBRANCH   1  24
TORSDOF 4
