REMARK  Name = ZINC14175994
REMARK  4 active torsions:
REMARK  status: ('A' for Active; 'I' for Inactive)
REMARK    1  A    between atoms: C_3  and  C_9
REMARK    2  A    between atoms: C_5  and  C_7
REMARK    3  A    between atoms: C_10  and  C_11
REMARK    4  A    between atoms: C_11  and  C_13
REMARK                            x       y       z     vdW  Elec       q    Type
REMARK                         _______ _______ _______ _____ _____    ______ ____
ROOT
ATOM      1  C   UNL     1       3.651   2.178  -0.022  0.00  0.00    +0.012 C 
ATOM      2  C   UNL     1       3.624   3.528  -0.015  0.00  0.00    +0.052 C 
ENDROOT
BRANCH   1   5
ATOM      3  C   UNL     1      -0.017   1.377   0.010  0.00  0.00    +0.002 A 
ATOM      4  C   UNL     1       1.165   2.090   0.002  0.00  0.00    +0.008 A 
ATOM      5  C   UNL     1       2.392   1.417  -0.013  0.00  0.00    -0.024 A 
ATOM      6  C   UNL     1       2.417   0.020  -0.021  0.00  0.00    +0.026 A 
ATOM      7  C   UNL     1       1.220  -0.691  -0.013  0.00  0.00    +0.052 A 
ATOM      8  C   UNL     1       0.002  -0.004   0.002  0.00  0.00    +0.019 A 
BRANCH   7   9
ATOM      9  C   UNL     1       1.236  -2.123  -0.022  0.00  0.00    +0.099 C 
ATOM     10  N   UNL     1       1.248  -3.259  -0.028  0.00  0.00    -0.191 NA
ENDBRANCH   7   9
ENDBRANCH   1   5
BRANCH   2  11
ATOM     11  C   UNL     1       4.876   4.284  -0.023  0.00  0.00    +0.186 C 
ATOM     12  O   UNL     1       5.942   3.697  -0.036  0.00  0.00    -0.287 OA
BRANCH  11  13
ATOM     13  C   UNL     1       4.846   5.763  -0.015  0.00  0.00    +0.023 A 
ATOM     14  C   UNL     1       3.625   6.439   0.006  0.00  0.00    +0.013 A 
ATOM     15  C   UNL     1       3.603   7.818   0.014  0.00  0.00    +0.022 A 
ATOM     16  C   UNL     1       4.790   8.532  -0.000  0.00  0.00    +0.059 A 
ATOM     17  C   UNL     1       6.005   7.867  -0.021  0.00  0.00    +0.060 A 
ATOM     18  C   UNL     1       6.040   6.487  -0.023  0.00  0.00    +0.033 A 
ATOM     19 CL   UNL     1       7.488   8.771  -0.039  0.00  0.00    -0.082 Cl
ATOM     20 CL   UNL     1       4.754  10.268   0.009  0.00  0.00    -0.082 Cl
ENDBRANCH  11  13
ENDBRANCH   2  11
TORSDOF 4
