REMARK  Name = ZINC41070530
REMARK  4 active torsions:
REMARK  status: ('A' for Active; 'I' for Inactive)
REMARK    1  A    between atoms: C_1  and  C_2
REMARK    2  A    between atoms: C_7  and  C_10
REMARK    3  A    between atoms: C_11  and  C_13
REMARK    4  A    between atoms: N_16  and  C_18
REMARK                            x       y       z     vdW  Elec       q    Type
REMARK                         _______ _______ _______ _____ _____    ______ ____
ROOT
ATOM      1  C   UNL     1      -1.922  -4.282  -0.494  0.00  0.00    +0.153 A 
ATOM      2  C   UNL     1      -2.476  -5.264  -1.346  0.00  0.00    +0.027 A 
ATOM      3  C   UNL     1      -2.076  -6.454  -0.857  0.00  0.00    +0.052 A 
ATOM      4  N   UNL     1      -1.321  -6.190   0.246  0.00  0.00    -0.233 N 
ATOM      5  N   UNL     1      -1.239  -4.922   0.435  0.00  0.00    -0.161 NA
ATOM      6  C   UNL     1      -2.373  -7.828  -1.393  0.00  0.00    +0.078 C 
ATOM      7  C   UNL     1      -3.593  -7.805  -2.312  0.00  0.00    +0.172 C 
ATOM      8  S   UNL     1      -3.356  -6.516  -3.574  0.00  0.00    -0.026 S 
ATOM      9  O   UNL     1      -4.501  -6.486  -4.413  0.00  0.00    -0.174 OA
ATOM     10  O   UNL     1      -2.071  -6.683  -4.157  0.00  0.00    -0.174 OA
ATOM     11  C   UNL     1      -3.342  -5.011  -2.553  0.00  0.00    +0.205 C 
ENDROOT
BRANCH   1  20
ATOM     12  C   UNL     1      -0.050   1.538   0.010  0.00  0.00    +0.039 C 
ATOM     13  C   UNL     1      -0.017   0.008  -0.008  0.00  0.00    +0.133 C 
ATOM     14  C   UNL     1      -1.450  -0.535   0.024  0.00  0.00    +0.139 C 
ATOM     15  N   UNL     1      -1.390  -1.995   0.195  0.00  0.00    -0.291 N 
ATOM     16  C   UNL     1      -0.558  -2.530   1.285  0.00  0.00    +0.139 C 
ATOM     17  C   UNL     1       0.832  -1.890   1.192  0.00  0.00    +0.133 C 
ATOM     18  O   UNL     1       0.693  -0.468   1.138  0.00  0.00    -0.371 OA
ATOM     19  C   UNL     1       1.657  -2.277   2.420  0.00  0.00    +0.039 C 
ATOM     20  C   UNL     1      -2.075  -2.819  -0.623  0.00  0.00    +0.267 C 
ATOM     21  O   UNL     1      -2.819  -2.357  -1.466  0.00  0.00    -0.268 OA
ENDBRANCH   1  20
BRANCH   4  22
ATOM     22  C   UNL     1      -0.717  -7.162   1.056  0.00  0.00    +0.101 A 
ATOM     23  C   UNL     1       0.049  -8.168   0.481  0.00  0.00    +0.031 A 
ATOM     24  C   UNL     1       0.644  -9.124   1.281  0.00  0.00    +0.002 A 
ATOM     25  C   UNL     1       0.477  -9.082   2.654  0.00  0.00    +0.003 A 
ATOM     26  C   UNL     1      -0.284  -8.082   3.231  0.00  0.00    +0.040 A 
ATOM     27  C   UNL     1      -0.878  -7.118   2.436  0.00  0.00    +0.149 A 
ATOM     28  F   UNL     1      -1.617  -6.138   3.000  0.00  0.00    -0.203 F 
ENDBRANCH   4  22
TORSDOF 2
