REMARK  Name = ZINC35851756
REMARK  6 active torsions:
REMARK  status: ('A' for Active; 'I' for Inactive)
REMARK    1  A    between atoms: C_1  and  C_2
REMARK    2  A    between atoms: C_2  and  C_3
REMARK    3  A    between atoms: N_25  and  C_28
REMARK    4  A    between atoms: C_30  and  C_37
REMARK    5  A    between atoms: C_33  and  O_34
REMARK    6  A    between atoms: O_34  and  C_35
REMARK                            x       y       z     vdW  Elec       q    Type
REMARK                         _______ _______ _______ _____ _____    ______ ____
ROOT
ATOM      1  C   UNL     1       0.707  -0.490  -1.238  0.00  0.00    -0.026 A 
ATOM      2  C   UNL     1      -0.023  -0.816  -2.362  0.00  0.00    +0.005 A 
ATOM      3  C   UNL     1       0.614  -1.264  -3.504  0.00  0.00    +0.001 A 
ATOM      4  C   UNL     1       1.993  -1.383  -3.521  0.00  0.00    +0.008 A 
ATOM      5  C   UNL     1       2.726  -1.058  -2.402  0.00  0.00    +0.004 A 
ATOM      6  C   UNL     1       2.095  -0.603  -1.248  0.00  0.00    +0.042 A 
ATOM      7  N   UNL     1       3.040  -0.336  -0.254  0.00  0.00    -0.283 N 
ATOM      8  C   UNL     1       4.298  -0.577  -0.671  0.00  0.00    +0.243 C 
ATOM      9  O   UNL     1       5.314  -0.435  -0.025  0.00  0.00    -0.273 OA
ATOM     10  C   UNL     1       4.197  -1.069  -2.090  0.00  0.00    +0.138 C 
ATOM     11  C   UNL     1       4.974  -0.149  -3.039  0.00  0.00    +0.123 C 
ATOM     12  C   UNL     1       5.567  -1.101  -4.113  0.00  0.00    +0.107 C 
ATOM     13  C   UNL     1       5.106  -2.511  -3.700  0.00  0.00    +0.071 C 
ATOM     14  N   UNL     1       4.775  -2.413  -2.251  0.00  0.00    -0.281 NA
ATOM     15  C   UNL     1       6.093  -2.477  -1.575  0.00  0.00    +0.086 C 
ATOM     16  C   UNL     1       6.921  -3.485  -2.397  0.00  0.00    +0.017 C 
ATOM     17  C   UNL     1       6.289  -3.489  -3.816  0.00  0.00    +0.021 C 
ATOM     18  C   UNL     1       4.862  -0.679  -5.382  0.00  0.00    +0.232 C 
ATOM     19  O   UNL     1       5.030  -1.175  -6.475  0.00  0.00    -0.274 OA
ATOM     20  N   UNL     1       4.022   0.327  -5.110  0.00  0.00    -0.206 N 
ATOM     21  C   UNL     1       4.007   0.717  -3.815  0.00  0.00    +0.233 C 
ATOM     22  O   UNL     1       3.333   1.608  -3.345  0.00  0.00    -0.274 OA
ATOM     23  H   UNL     1       2.816  -0.014   0.633  0.00  0.00    +0.155 HD
ENDROOT
BRANCH  20  24
ATOM     24  C   UNL     1       3.223   0.935  -6.091  0.00  0.00    +0.086 A 
ATOM     25  C   UNL     1       1.950   0.450  -6.350  0.00  0.00    +0.032 A 
ATOM     26  C   UNL     1       1.165   1.050  -7.316  0.00  0.00    -0.030 A 
ATOM     27  C   UNL     1       1.646   2.135  -8.027  0.00  0.00    +0.047 A 
ATOM     28  C   UNL     1       2.915   2.624  -7.774  0.00  0.00    +0.067 A 
ATOM     29  C   UNL     1       3.705   2.031  -6.802  0.00  0.00    +0.143 A 
ATOM     30 CL   UNL     1       0.655   2.884  -9.240  0.00  0.00    -0.083 Cl
ATOM     31  C   UNL     1      -0.218   0.520  -7.596  0.00  0.00    +0.045 C 
BRANCH  29  32
ATOM     32  O   UNL     1       4.950   2.515  -6.548  0.00  0.00    -0.493 OA
ATOM     33  C   UNL     1       5.378   3.641  -7.316  0.00  0.00    +0.277 C 
ENDBRANCH  29  32
ENDBRANCH  20  24
BRANCH   1  35
ATOM     34  C   UNL     1      -0.019   1.526   0.010  0.00  0.00    +0.009 C 
ATOM     35  C   UNL     1       0.002  -0.004   0.002  0.00  0.00    +0.033 C 
ENDBRANCH   1  35
TORSDOF 3
