REMARK  Name = ZINC50681705
REMARK  16 active torsions:
REMARK  status: ('A' for Active; 'I' for Inactive)
REMARK    1  A    between atoms: C_1  and  C_2
REMARK    2  A    between atoms: C_2  and  C_3
REMARK    3  A    between atoms: C_2  and  C_4
REMARK    4  A    between atoms: C_2  and  O_5
REMARK    5  A    between atoms: O_5  and  C_6
REMARK    6  A    between atoms: N_8  and  C_9
REMARK    7  A    between atoms: C_9  and  C_10
REMARK    8  A    between atoms: C_10  and  C_11
REMARK    9  A    between atoms: C_11  and  C_12
REMARK   10  A    between atoms: C_12  and  C_13
REMARK   11  A    between atoms: C_13  and  C_14
REMARK   12  A    between atoms: C_14  and  C_15
REMARK   13  A    between atoms: N_17  and  C_18
REMARK   14  A    between atoms: N_17  and  C_19
REMARK   15  A    between atoms: C_19  and  C_20
REMARK   16  A    between atoms: C_19  and  C_23
REMARK                            x       y       z     vdW  Elec       q    Type
REMARK                         _______ _______ _______ _____ _____    ______ ____
ROOT
ATOM      1  C   UNL     1       6.445  -1.039  -5.636  0.00  0.00    +0.001 C 
ENDROOT
BRANCH   1   2
ATOM      2  C   UNL     1       5.814  -0.521  -4.342  0.00  0.00    +0.002 C 
BRANCH   2   3
ATOM      3  C   UNL     1       4.363  -0.999  -4.255  0.00  0.00    +0.019 C 
BRANCH   3   4
ATOM      4  C   UNL     1       3.733  -0.482  -2.960  0.00  0.00    +0.107 C 
BRANCH   4   7
ATOM      5  C   UNL     1       1.586  -0.602  -1.814  0.00  0.00    +0.401 C 
ATOM      6  O   UNL     1       2.055   0.081  -0.926  0.00  0.00    -0.226 OA
ATOM      7  N   UNL     1       2.344  -0.939  -2.877  0.00  0.00    -0.281 N 
ATOM      8  H   UNL     1       1.969  -1.485  -3.586  0.00  0.00    +0.152 HD
BRANCH   5   9
ATOM      9  O   UNL     1       0.309  -1.023  -1.737  0.00  0.00    -0.445 OA
BRANCH   9  11
ATOM     10  C   UNL     1      -0.501   0.899  -0.516  0.00  0.00    +0.055 C 
ATOM     11  C   UNL     1      -0.435  -0.628  -0.584  0.00  0.00    +0.107 C 
ATOM     12  C   UNL     1       0.251  -1.165   0.674  0.00  0.00    +0.055 C 
ATOM     13  C   UNL     1      -1.853  -1.196  -0.673  0.00  0.00    +0.055 C 
ENDBRANCH   9  11
ENDBRANCH   5   9
ENDBRANCH   4   7
ENDBRANCH   3   4
ENDBRANCH   2   3
ENDBRANCH   1   2
BRANCH   1  14
ATOM     14  C   UNL     1       7.896  -0.561  -5.724  0.00  0.00    +0.009 C 
BRANCH  14  15
ATOM     15  C   UNL     1       8.526  -1.078  -7.018  0.00  0.00    +0.096 C 
BRANCH  15  16
ATOM     16  C   UNL     1       9.955  -0.607  -7.104  0.00  0.00    +0.216 C 
ATOM     17  O   UNL     1      10.423   0.075  -6.217  0.00  0.00    -0.276 OA
ATOM     18  N   UNL     1      10.713  -0.945  -8.167  0.00  0.00    -0.301 N 
ATOM     19  C   UNL     1      10.147  -1.769  -9.238  0.00  0.00    +0.132 C 
BRANCH  18  20
ATOM     20  C   UNL     1      12.102  -0.487  -8.250  0.00  0.00    +0.082 C 
BRANCH  20  21
ATOM     21  C   UNL     1      13.029  -1.695  -8.400  0.00  0.00    +0.010 C 
ATOM     22  C   UNL     1      13.870  -2.095  -7.187  0.00  0.00    +0.006 C 
ATOM     23  C   UNL     1      14.536  -1.434  -8.395  0.00  0.00    +0.006 C 
ENDBRANCH  20  21
BRANCH  20  24
ATOM     24  C   UNL     1      12.264   0.433  -9.462  0.00  0.00    +0.010 C 
ATOM     25  C   UNL     1      12.919   1.797  -9.231  0.00  0.00    +0.006 C 
ATOM     26  C   UNL     1      11.416   1.706  -9.500  0.00  0.00    +0.006 C 
ENDBRANCH  20  24
ENDBRANCH  18  20
ENDBRANCH  15  16
ENDBRANCH  14  15
ENDBRANCH   1  14
TORSDOF 12
