REMARK  Name = ZINC57530996
REMARK  6 active torsions:
REMARK  status: ('A' for Active; 'I' for Inactive)
REMARK    1  A    between atoms: C_1  and  C_2
REMARK    2  A    between atoms: C_5  and  S_8
REMARK    3  A    between atoms: S_8  and  N_11
REMARK    4  A    between atoms: C_12  and  C_14
REMARK    5  A    between atoms: C_16  and  C_21
REMARK    6  A    between atoms: C_18  and  C_20
REMARK                            x       y       z     vdW  Elec       q    Type
REMARK                         _______ _______ _______ _____ _____    ______ ____
ROOT
ATOM      1  N   UNL     1       1.651  -4.999  -0.034  0.00  0.00    -0.086 NA
ATOM      2  C   UNL     1       1.955  -6.263  -0.043  0.00  0.00    +0.295 C 
ATOM      3  O   UNL     1       0.975  -7.195  -0.042  0.00  0.00    -0.264 OA
ENDROOT
BRANCH   2   4
ATOM      4  C   UNL     1       3.374  -6.682  -0.053  0.00  0.00    +0.043 A 
ATOM      5  C   UNL     1       4.388  -5.724  -0.048  0.00  0.00    +0.016 A 
ATOM      6  C   UNL     1       5.709  -6.121  -0.057  0.00  0.00    -0.049 A 
ATOM      7  C   UNL     1       6.030  -7.467  -0.072  0.00  0.00    +0.006 A 
ATOM      8  C   UNL     1       5.029  -8.422  -0.078  0.00  0.00    -0.049 A 
ATOM      9  C   UNL     1       3.704  -8.038  -0.062  0.00  0.00    +0.016 A 
ATOM     10  C   UNL     1       5.388  -9.886  -0.095  0.00  0.00    +0.044 C 
ATOM     11  C   UNL     1       6.806  -5.087  -0.051  0.00  0.00    +0.044 C 
ENDBRANCH   2   4
BRANCH   1  12
ATOM     12  S   UNL     1       0.063  -4.530  -0.023  0.00  0.00    +0.102 S 
ATOM     13  O   UNL     1      -0.476  -4.950   1.223  0.00  0.00    -0.146 OA
ATOM     14  O   UNL     1      -0.490  -4.937  -1.267  0.00  0.00    -0.146 OA
BRANCH  12  19
ATOM     15  C   UNL     1      -0.018   1.503   0.010  0.00  0.00    +0.044 C 
ATOM     16  C   UNL     1       0.002  -0.004   0.002  0.00  0.00    -0.050 A 
ATOM     17  C   UNL     1       0.006  -0.689  -1.199  0.00  0.00    +0.005 A 
ATOM     18  C   UNL     1       0.025  -2.071  -1.206  0.00  0.00    +0.029 A 
ATOM     19  C   UNL     1       0.040  -2.768  -0.013  0.00  0.00    +0.113 A 
ATOM     20  C   UNL     1       0.037  -2.084   1.188  0.00  0.00    +0.029 A 
ATOM     21  C   UNL     1       0.023  -0.702   1.195  0.00  0.00    +0.005 A 
ENDBRANCH  12  19
ENDBRANCH   1  12
TORSDOF 3
