REMARK  Name = ZINC44094142
REMARK  3 active torsions:
REMARK  status: ('A' for Active; 'I' for Inactive)
REMARK    1  A    between atoms: C_1  and  C_2
REMARK    2  A    between atoms: C_4  and  C_7
REMARK    3  A    between atoms: C_19  and  C_21
REMARK                            x       y       z     vdW  Elec       q    Type
REMARK                         _______ _______ _______ _____ _____    ______ ____
ROOT
ATOM      1  C   UNL     1      -1.643  -3.192   0.002  0.00  0.00    +0.038 A 
ATOM      2  C   UNL     1      -1.018  -4.444   0.031  0.00  0.00    +0.016 A 
ATOM      3  C   UNL     1      -1.811  -5.574   0.029  0.00  0.00    +0.042 A 
ATOM      4  C   UNL     1      -3.196  -5.433  -0.002  0.00  0.00    +0.099 A 
ATOM      5  N   UNL     1      -3.756  -4.233  -0.029  0.00  0.00    -0.349 N 
ATOM      6  C   UNL     1      -3.034  -3.130  -0.022  0.00  0.00    +0.095 A 
ATOM      7  N   UNL     1      -4.000  -6.564  -0.005  0.00  0.00    -0.314 N 
ATOM      8  C   UNL     1      -5.462  -6.443   0.077  0.00  0.00    +0.125 C 
ATOM      9  C   UNL     1      -6.083  -7.179  -1.116  0.00  0.00    +0.127 C 
ATOM     10  N   UNL     1      -5.488  -8.520  -1.203  0.00  0.00    -0.295 N 
ATOM     11  C   UNL     1      -4.026  -8.641  -1.286  0.00  0.00    +0.127 C 
ATOM     12  C   UNL     1      -3.405  -7.905  -0.098  0.00  0.00    +0.125 C 
ATOM     13  C   UNL     1      -6.269  -9.618  -1.206  0.00  0.00    +0.248 C 
ATOM     14  O   UNL     1      -7.479  -9.504  -1.210  0.00  0.00    -0.270 OA
ATOM     15  H   UNL     1      -4.723  -4.163  -0.051  0.00  0.00    +0.167 HD
ENDROOT
BRANCH  13  16
ATOM     16  C   UNL     1      -5.653 -10.962  -1.204  0.00  0.00    +0.056 A 
ATOM     17  C   UNL     1      -4.730 -11.312  -2.191  0.00  0.00    +0.029 A 
ATOM     18  C   UNL     1      -4.159 -12.568  -2.183  0.00  0.00    +0.019 A 
ATOM     19  C   UNL     1      -4.501 -13.482  -1.200  0.00  0.00    +0.017 A 
ATOM     20  C   UNL     1      -5.415 -13.142  -0.220  0.00  0.00    +0.022 A 
ATOM     21  C   UNL     1      -5.989 -11.886  -0.212  0.00  0.00    +0.053 A 
ATOM     22 CL   UNL     1      -7.131 -11.459   1.024  0.00  0.00    -0.083 Cl
ATOM     23 BR   UNL     1      -2.908 -13.043  -3.519  0.00  0.00    -0.050 Br
ENDBRANCH  13  16
BRANCH   1  27
ATOM     24  C   UNL     1       2.325  -0.165   0.039  0.00  0.00    +0.112 C 
ATOM     25  C   UNL     1       0.896  -0.641   0.019  0.00  0.00    +0.225 A 
ATOM     26  N   UNL     1       0.508  -1.885   0.026  0.00  0.00    -0.192 NA
ATOM     27  C   UNL     1      -0.836  -1.948   0.004  0.00  0.00    +0.203 A 
ATOM     28  N   UNL     1      -1.312  -0.727  -0.017  0.00  0.00    -0.056 NA
ATOM     29  O   UNL     1      -0.190   0.142  -0.001  0.00  0.00    -0.338 OA
ENDBRANCH   1  27
TORSDOF 2
