REMARK  Name = ZINC10475137
REMARK  10 active torsions:
REMARK  status: ('A' for Active; 'I' for Inactive)
REMARK    1  A    between atoms: C_1  and  C_2
REMARK    2  A    between atoms: C_2  and  O_3
REMARK    3  A    between atoms: O_3  and  C_4
REMARK    4  A    between atoms: C_7  and  C_11
REMARK    5  A    between atoms: C_11  and  N_44
REMARK    6  A    between atoms: C_12  and  C_13
REMARK    7  A    between atoms: C_12  and  N_44
REMARK    8  A    between atoms: C_13  and  C_14
REMARK    9  A    between atoms: C_17  and  S_20
REMARK   10  A    between atoms: S_20  and  N_23
REMARK                            x       y       z     vdW  Elec       q    Type
REMARK                         _______ _______ _______ _____ _____    ______ ____
ROOT
ATOM      1  C   UNL     1      -4.279   4.826  -1.358  0.00  0.00    -0.077 C 
ENDROOT
BRANCH   1   2
ATOM      2  N   UNL     1      -2.990   4.108  -1.343  0.00  0.00    +0.382 N 
ATOM      3  H   UNL     1      -3.098   3.209  -1.826  0.00  0.00    -0.085 HD
ATOM      4  H   UNL     1      -2.282   4.674  -1.826  0.00  0.00    -0.085 HD
BRANCH   2   5
ATOM      5  C   UNL     1      -2.555   3.866   0.046  0.00  0.00    -0.047 C 
BRANCH   5   9
ATOM      6  C   UNL     1       1.179   1.786   0.000  0.00  0.00    +0.139 A 
ATOM      7  C   UNL     1      -0.013   1.076   0.008  0.00  0.00    +0.047 A 
ATOM      8  C   UNL     1      -1.218   1.751   0.017  0.00  0.00    +0.005 A 
ATOM      9  C   UNL     1      -1.238   3.133   0.030  0.00  0.00    -0.063 A 
ATOM     10  C   UNL     1      -0.052   3.844   0.022  0.00  0.00    +0.025 A 
ATOM     11  C   UNL     1       1.157   3.174   0.008  0.00  0.00    +0.083 A 
ATOM     12 CL   UNL     1       2.645   4.067  -0.001  0.00  0.00    -0.080 Cl
BRANCH   6  13
ATOM     13  O   UNL     1       2.366   1.124  -0.015  0.00  0.00    -0.491 OA
BRANCH  13  15
ATOM     14  C   UNL     1       3.735  -0.867  -0.038  0.00  0.00    +0.048 C 
ATOM     15  C   UNL     1       2.313  -0.304  -0.022  0.00  0.00    +0.226 C 
ENDBRANCH  13  15
ENDBRANCH   6  13
ENDBRANCH   5   9
ENDBRANCH   2   5
ENDBRANCH   1   2
BRANCH   1  16
ATOM     16  C   UNL     1      -4.704   5.062  -2.808  0.00  0.00    +0.016 C 
BRANCH  16  17
ATOM     17  C   UNL     1      -6.021   5.795  -2.832  0.00  0.00    -0.049 A 
ATOM     18  C   UNL     1      -7.207   5.086  -2.849  0.00  0.00    +0.005 A 
ATOM     19  C   UNL     1      -8.414   5.758  -2.867  0.00  0.00    +0.029 A 
ATOM     20  C   UNL     1      -8.436   7.140  -2.877  0.00  0.00    +0.105 A 
ATOM     21  C   UNL     1      -7.250   7.850  -2.866  0.00  0.00    +0.029 A 
ATOM     22  C   UNL     1      -6.042   7.178  -2.844  0.00  0.00    +0.005 A 
BRANCH  20  23
ATOM     23  S   UNL     1      -9.975   7.997  -2.904  0.00  0.00    +0.056 S 
ATOM     24  O   UNL     1     -10.943   7.110  -2.361  0.00  0.00    -0.153 OA
ATOM     25  O   UNL     1      -9.732   9.287  -2.359  0.00  0.00    -0.153 OA
BRANCH  23  26
ATOM     26  N   UNL     1     -10.381   8.224  -4.494  0.00  0.00    -0.204 NA
ATOM     27  H   UNL     1      -9.796   7.899  -5.195  0.00  0.00    +0.144 HD
ATOM     28  H   UNL     1     -11.205   8.683  -4.723  0.00  0.00    +0.144 HD
ENDBRANCH  23  26
ENDBRANCH  20  23
ENDBRANCH  16  17
ENDBRANCH   1  16
TORSDOF 9
