REMARK  Name = ZINC23128957
REMARK  8 active torsions:
REMARK  status: ('A' for Active; 'I' for Inactive)
REMARK    1  A    between atoms: C_1  and  C_2
REMARK    2  A    between atoms: C_2  and  C_3
REMARK    3  A    between atoms: C_6  and  C_10
REMARK    4  A    between atoms: C_7  and  C_9
REMARK    5  A    between atoms: C_10  and  N_11
REMARK    6  A    between atoms: C_18  and  C_22
REMARK    7  A    between atoms: C_22  and  C_24
REMARK    8  A    between atoms: C_22  and  O_30
REMARK                            x       y       z     vdW  Elec       q    Type
REMARK                         _______ _______ _______ _____ _____    ______ ____
ROOT
ATOM      1  N   UNL     1       1.075  -3.195  -4.697  0.00  0.00    -0.289 NA
ATOM      2  C   UNL     1       2.343  -3.657  -4.140  0.00  0.00    +0.126 C 
ATOM      3  C   UNL     1       2.362  -5.136  -3.820  0.00  0.00    +0.244 C 
ATOM      4  O   UNL     1       2.244  -5.916  -5.016  0.00  0.00    -0.490 OA
ATOM      5  C   UNL     1       0.971  -6.144  -5.440  0.00  0.00    +0.125 A 
ATOM      6  C   UNL     1       0.435  -7.423  -5.382  0.00  0.00    +0.046 A 
ATOM      7  C   UNL     1      -0.867  -7.638  -5.794  0.00  0.00    +0.010 A 
ATOM      8  C   UNL     1      -1.633  -6.585  -6.260  0.00  0.00    -0.018 A 
ATOM      9  C   UNL     1      -1.095  -5.311  -6.325  0.00  0.00    +0.014 A 
ATOM     10  C   UNL     1       0.208  -5.099  -5.925  0.00  0.00    +0.009 A 
ATOM     11  C   UNL     1       0.827  -3.720  -6.044  0.00  0.00    +0.123 C 
ENDROOT
BRANCH   1  12
ATOM     12  C   UNL     1       0.996  -1.728  -4.681  0.00  0.00    +0.139 C 
BRANCH  12  16
ATOM     13  C   UNL     1       1.327  -0.385  -1.297  0.00  0.00    +0.084 A 
ATOM     14  N   UNL     1       1.857  -0.656  -2.509  0.00  0.00    -0.346 N 
ATOM     15  H   UNL     1       2.764  -0.468  -2.796  0.00  0.00    +0.167 HD
ATOM     16  C   UNL     1       0.875  -1.247  -3.257  0.00  0.00    +0.051 A 
ATOM     17  C   UNL     1      -0.221  -1.316  -2.477  0.00  0.00    +0.035 A 
ATOM     18  N   UNL     1       0.086  -0.787  -1.284  0.00  0.00    -0.347 N 
ATOM     19  C   UNL     1      -1.556  -1.892  -2.874  0.00  0.00    +0.065 C 
ATOM     20  H   UNL     1      -0.520  -0.713  -0.530  0.00  0.00    +0.167 HD
BRANCH  13  22
ATOM     21  C   UNL     1       2.721  -0.805   0.710  0.00  0.00    +0.012 C 
ATOM     22  C   UNL     1       2.051   0.270  -0.149  0.00  0.00    +0.069 C 
ENDBRANCH  13  22
ENDBRANCH  12  16
ENDBRANCH   1  12
BRANCH   8  23
ATOM     23  C   UNL     1      -3.055  -6.824  -6.696  0.00  0.00    +0.148 C 
BRANCH  23  24
ATOM     24  C   UNL     1      -3.979  -6.766  -5.478  0.00  0.00    +0.022 C 
ATOM     25  C   UNL     1      -3.566  -7.843  -4.473  0.00  0.00    +0.006 C 
ATOM     26  C   UNL     1      -4.490  -7.785  -3.254  0.00  0.00    +0.000 C 
ATOM     27  C   UNL     1      -5.934  -8.029  -3.697  0.00  0.00    +0.000 C 
ATOM     28  C   UNL     1      -6.347  -6.952  -4.703  0.00  0.00    +0.000 C 
ATOM     29  C   UNL     1      -5.423  -7.010  -5.921  0.00  0.00    +0.006 C 
ENDBRANCH  23  24
BRANCH  23  30
ATOM     30  O   UNL     1      -3.155  -8.112  -7.309  0.00  0.00    -0.387 OA
ATOM     31  H   UNL     1      -2.908  -8.844  -6.728  0.00  0.00    +0.210 HD
ENDBRANCH  23  30
ENDBRANCH   8  23
TORSDOF 6
