REMARK  Name = ZINC12784306
REMARK  11 active torsions:
REMARK  status: ('A' for Active; 'I' for Inactive)
REMARK    1  A    between atoms: C_1  and  C_2
REMARK    2  A    between atoms: C_2  and  N_3
REMARK    3  A    between atoms: N_3  and  C_4
REMARK    4  A    between atoms: N_3  and  S_6
REMARK    5  A    between atoms: C_4  and  C_5
REMARK    6  A    between atoms: S_6  and  C_9
REMARK    7  A    between atoms: C_13  and  C_15
REMARK    8  A    between atoms: C_20  and  C_23
REMARK    9  A    between atoms: C_23  and  N_63
REMARK   10  A    between atoms: C_25  and  C_32
REMARK   11  A    between atoms: C_28  and  C_31
REMARK                            x       y       z     vdW  Elec       q    Type
REMARK                         _______ _______ _______ _____ _____    ______ ____
ROOT
ATOM      1  C   UNL     1      -0.014   1.212   0.009  0.00  0.00    +0.251 C 
ATOM      2  O   UNL     1       0.002  -0.004   0.002  0.00  0.00    -0.270 OA
ATOM      3  N   UNL     1      -1.191   1.869   0.018  0.00  0.00    -0.261 N 
ATOM      4  C   UNL     1      -2.384   1.159   0.020  0.00  0.00    +0.165 A 
ATOM      5  N   UNL     1      -3.621   1.616   0.028  0.00  0.00    -0.231 NA
ATOM      6  C   UNL     1      -4.653   0.795   0.029  0.00  0.00    +0.034 A 
ATOM      7  C   UNL     1      -4.417  -0.539   0.020  0.00  0.00    +0.070 A 
ATOM      8  S   UNL     1      -2.630  -0.560   0.004  0.00  0.00    -0.060 S 
ATOM      9  H   UNL     1      -1.204   2.839   0.023  0.00  0.00    +0.157 HD
ENDROOT
BRANCH   1  14
ATOM     10  C   UNL     1       2.428   4.063   0.001  0.00  0.00    +0.106 A 
ATOM     11  C   UNL     1       3.635   3.385  -0.013  0.00  0.00    +0.030 A 
ATOM     12  C   UNL     1       3.659   2.003  -0.021  0.00  0.00    +0.022 A 
ATOM     13  C   UNL     1       2.476   1.289  -0.009  0.00  0.00    +0.053 A 
ATOM     14  C   UNL     1       1.255   1.968   0.001  0.00  0.00    +0.057 A 
ATOM     15  C   UNL     1       1.240   3.364   0.008  0.00  0.00    +0.043 A 
ATOM     16 CL   UNL     1       2.507  -0.447  -0.012  0.00  0.00    -0.083 Cl
BRANCH  10  17
ATOM     17  S   UNL     1       2.410   5.825   0.011  0.00  0.00    +0.061 S 
ATOM     18  O   UNL     1       3.646   6.247  -0.549  0.00  0.00    -0.153 OA
ATOM     19  O   UNL     1       1.156   6.222  -0.526  0.00  0.00    -0.153 OA
BRANCH  17  20
ATOM     20  N   UNL     1       2.420   6.306   1.595  0.00  0.00    -0.177 NA
BRANCH  20  22
ATOM     21  C   UNL     1       4.056   8.017   2.212  0.00  0.00    +0.022 C 
ATOM     22  C   UNL     1       3.693   6.532   2.285  0.00  0.00    +0.106 C 
ENDBRANCH  20  22
BRANCH  20  23
ATOM     23  C   UNL     1       1.155   6.506   2.308  0.00  0.00    +0.106 C 
ATOM     24  C   UNL     1       0.796   5.233   3.077  0.00  0.00    +0.022 C 
ENDBRANCH  20  23
ENDBRANCH  17  20
ENDBRANCH  10  17
ENDBRANCH   1  14
BRANCH   6  25
ATOM     25  C   UNL     1      -6.062   1.329   0.038  0.00  0.00    -0.022 C 
BRANCH  25  33
ATOM     26  C   UNL     1      -5.416   2.329   2.146  0.00  0.00    -0.075 C 
ATOM     27  C   UNL     1      -5.814   2.473   3.617  0.00  0.00    -0.031 C 
ATOM     28  C   UNL     1      -7.137   3.237   3.711  0.00  0.00    +0.003 C 
ATOM     29  C   UNL     1      -8.206   2.491   2.908  0.00  0.00    -0.031 C 
ATOM     30  C   UNL     1      -7.739   2.346   1.458  0.00  0.00    -0.075 C 
ATOM     31  C   UNL     1      -9.517   3.279   2.946  0.00  0.00    +0.005 C 
ATOM     32  C   UNL     1      -4.725   3.244   4.368  0.00  0.00    +0.005 C 
ATOM     33  N   UNL     1      -6.475   1.581   1.435  0.00  0.00    +0.384 N 
ATOM     34  H   UNL     1      -6.621   0.681   1.907  0.00  0.00    -0.081 HD
ENDBRANCH  25  33
ENDBRANCH   6  25
TORSDOF 7
