REMARK  Name = ZINC12906546
REMARK  10 active torsions:
REMARK  status: ('A' for Active; 'I' for Inactive)
REMARK    1  A    between atoms: C_1  and  C_2
REMARK    2  A    between atoms: C_3  and  C_16
REMARK    3  A    between atoms: C_5  and  C_7
REMARK    4  A    between atoms: C_7  and  O_8
REMARK    5  A    between atoms: O_8  and  C_9
REMARK    6  A    between atoms: N_18  and  C_19
REMARK    7  A    between atoms: N_18  and  C_20
REMARK    8  A    between atoms: C_20  and  C_21
REMARK    9  A    between atoms: C_24  and  C_27
REMARK   10  A    between atoms: N_29  and  C_30
REMARK                            x       y       z     vdW  Elec       q    Type
REMARK                         _______ _______ _______ _____ _____    ______ ____
ROOT
ATOM      1  C   UNL     1       2.578  -1.481  -0.256  0.00  0.00    +0.255 C 
ATOM      2  O   UNL     1       3.793  -1.422  -0.305  0.00  0.00    -0.269 OA
ATOM      3  N   UNL     1       1.973  -2.640   0.070  0.00  0.00    -0.296 N 
ATOM      4  C   UNL     1       0.510  -2.724   0.084  0.00  0.00    +0.132 C 
ENDROOT
BRANCH   1   7
ATOM      5  C   UNL     1       3.626   1.399  -0.697  0.00  0.00    +0.067 C 
ATOM      6  C   UNL     1       2.171   1.012  -0.757  0.00  0.00    +0.058 A 
ATOM      7  C   UNL     1       1.774  -0.290  -0.551  0.00  0.00    +0.097 A 
ATOM      8  S   UNL     1       0.004  -0.126  -0.742  0.00  0.00    -0.064 S 
ATOM      9  C   UNL     1      -0.029   1.580  -1.063  0.00  0.00    +0.117 A 
ATOM     10  N   UNL     1       1.246   1.903  -1.008  0.00  0.00    -0.245 NA
BRANCH   9  11
ATOM     11  C   UNL     1      -1.217   2.466  -1.342  0.00  0.00    +0.291 C 
BRANCH  11  12
ATOM     12  O   UNL     1      -1.466   2.500  -2.748  0.00  0.00    -0.485 OA
BRANCH  12  13
ATOM     13  C   UNL     1      -2.511   3.259  -3.171  0.00  0.00    +0.121 A 
ATOM     14  C   UNL     1      -3.284   3.952  -2.251  0.00  0.00    +0.047 A 
ATOM     15  C   UNL     1      -4.342   4.727  -2.684  0.00  0.00    +0.023 A 
ATOM     16  C   UNL     1      -4.639   4.804  -4.033  0.00  0.00    +0.041 A 
ATOM     17  C   UNL     1      -3.872   4.109  -4.952  0.00  0.00    +0.023 A 
ATOM     18  C   UNL     1      -2.810   3.337  -4.524  0.00  0.00    +0.047 A 
ATOM     19 CL   UNL     1      -5.973   5.773  -4.574  0.00  0.00    -0.084 Cl
ENDBRANCH  12  13
ENDBRANCH  11  12
ENDBRANCH   9  11
ENDBRANCH   1   7
BRANCH   3  20
ATOM     20  C   UNL     1       2.777  -3.816   0.411  0.00  0.00    +0.142 C 
BRANCH  20  21
ATOM     21  C   UNL     1       3.043  -3.830   1.895  0.00  0.00    -0.030 A 
ATOM     22  C   UNL     1       4.170  -3.206   2.398  0.00  0.00    +0.006 A 
ATOM     23  C   UNL     1       4.417  -3.211   3.756  0.00  0.00    +0.013 A 
ATOM     24  C   UNL     1       3.532  -3.856   4.620  0.00  0.00    +0.037 A 
ATOM     25  C   UNL     1       2.399  -4.489   4.105  0.00  0.00    +0.013 A 
ATOM     26  C   UNL     1       2.161  -4.472   2.746  0.00  0.00    +0.006 A 
BRANCH  24  27
ATOM     27  C   UNL     1       3.792  -3.870   6.075  0.00  0.00    +0.244 C 
ATOM     28  O   UNL     1       3.020  -4.433   6.826  0.00  0.00    -0.270 OA
ATOM     29  N   UNL     1       4.887  -3.258   6.570  0.00  0.00    -0.314 N 
ATOM     30  C   UNL     1       5.145  -3.272   8.012  0.00  0.00    +0.128 C 
ATOM     31  H   UNL     1       5.504  -2.809   5.971  0.00  0.00    +0.149 HD
ENDBRANCH  24  27
ENDBRANCH  20  21
ENDBRANCH   3  20
TORSDOF 7
