REMARK  Name = ZINC43761873
REMARK  3 active torsions:
REMARK  status: ('A' for Active; 'I' for Inactive)
REMARK    1  A    between atoms: C_6  and  C_15
REMARK    2  A    between atoms: C_6  and  O_30
REMARK    3  A    between atoms: C_15  and  O_29
REMARK                            x       y       z     vdW  Elec       q    Type
REMARK                         _______ _______ _______ _____ _____    ______ ____
ROOT
ATOM      1  C   UNL     1       0.369   1.773   0.594  0.00  0.00    +0.004 C 
ATOM      2  C   UNL     1       1.919   1.956   0.477  0.00  0.00    +0.004 C 
ATOM      3  C   UNL     1       2.483   0.577   0.038  0.00  0.00    -0.004 C 
ATOM      4  C   UNL     1       2.664  -0.329   1.275  0.00  0.00    +0.041 C 
ATOM      5  C   UNL     1       2.226  -1.745   0.844  0.00  0.00    +0.098 C 
ATOM      6  C   UNL     1       1.305  -1.608  -0.392  0.00  0.00    +0.027 C 
ATOM      7  C   UNL     1       1.266  -0.074  -0.656  0.00  0.00    +0.001 C 
ATOM      8  C   UNL     1       0.195   0.316   0.423  0.00  0.00    -0.007 C 
ATOM      9  C   UNL     1      -0.930  -0.597   0.108  0.00  0.00    +0.004 C 
ATOM     10  C   UNL     1      -0.148  -1.990   0.022  0.00  0.00    +0.007 C 
ENDROOT
BRANCH   5  11
ATOM     11  C   UNL     1       3.457  -2.578   0.481  0.00  0.00    +0.098 C 
ATOM     12  C   UNL     1       4.254  -1.872  -0.636  0.00  0.00    +0.041 C 
ATOM     13  C   UNL     1       5.409  -1.120   0.063  0.00  0.00    -0.004 C 
ATOM     14  C   UNL     1       6.697  -1.226  -0.802  0.00  0.00    +0.004 C 
ATOM     15  C   UNL     1       7.321  -2.624  -0.480  0.00  0.00    +0.004 C 
ATOM     16  C   UNL     1       6.266  -3.273   0.334  0.00  0.00    -0.007 C 
ATOM     17  C   UNL     1       5.698  -2.081   1.238  0.00  0.00    +0.001 C 
ATOM     18  C   UNL     1       4.378  -2.718   1.719  0.00  0.00    +0.027 C 
ATOM     19  C   UNL     1       4.739  -4.225   1.901  0.00  0.00    +0.007 C 
ATOM     20  C   UNL     1       6.237  -4.404   1.300  0.00  0.00    +0.004 C 
BRANCH  11  21
ATOM     21  O   UNL     1       3.048  -3.873   0.035  0.00  0.00    -0.385 OA
ATOM     22  H   UNL     1       2.549  -3.865  -0.793  0.00  0.00    +0.210 HD
ENDBRANCH  11  21
ENDBRANCH   5  11
BRANCH   5  23
ATOM     23  O   UNL     1       1.514  -2.376   1.910  0.00  0.00    -0.385 OA
ATOM     24  H   UNL     1       1.997  -2.396   2.748  0.00  0.00    +0.210 HD
ENDBRANCH   5  23
TORSDOF 3
