REMARK  Name = ZINC63104828
REMARK  3 active torsions:
REMARK  status: ('A' for Active; 'I' for Inactive)
REMARK    1  A    between atoms: C_6  and  N_7
REMARK    2  A    between atoms: C_9  and  O_11
REMARK    3  A    between atoms: O_11  and  C_12
REMARK                            x       y       z     vdW  Elec       q    Type
REMARK                         _______ _______ _______ _____ _____    ______ ____
ROOT
ATOM      1  C   UNL     1       0.023   1.327  -0.700  0.00  0.00    +0.025 A 
ATOM      2  C   UNL     1       1.182   2.057  -0.698  0.00  0.00    +0.031 A 
ATOM      3  C   UNL     1       2.425   1.442  -0.425  0.00  0.00    +0.082 A 
ATOM      4  C   UNL     1       2.393   0.054  -0.160  0.00  0.00    +0.044 A 
ATOM      5  C   UNL     1       1.231  -0.675  -0.163  0.00  0.00    +0.040 A 
ATOM      6  C   UNL     1       0.025  -0.041  -0.434  0.00  0.00    +0.026 A 
ATOM      7  S   UNL     1       4.107  -0.317   0.124  0.00  0.00    -0.029 S 
ATOM      8  C   UNL     1       4.738   1.338  -0.119  0.00  0.00    +0.263 A 
ATOM      9  N   UNL     1       3.649   2.017  -0.385  0.00  0.00    -0.206 NA
ENDROOT
BRANCH   6  10
ATOM     10  N   UNL     1      -1.171  -0.766  -0.441  0.00  0.00    -0.358 N 
ATOM     11  H   UNL     1      -2.010  -0.317  -0.631  0.00  0.00    +0.142 HD
ATOM     12  H   UNL     1      -1.162  -1.718  -0.255  0.00  0.00    +0.142 HD
ENDBRANCH   6  10
BRANCH   8  13
ATOM     13  O   UNL     1       6.016   1.778  -0.046  0.00  0.00    -0.431 OA
BRANCH  13  14
ATOM     14  C   UNL     1       6.237   3.116  -0.146  0.00  0.00    +0.145 A 
ATOM     15  C   UNL     1       5.168   3.999  -0.129  0.00  0.00    +0.050 A 
ATOM     16  C   UNL     1       5.394   5.358  -0.231  0.00  0.00    +0.042 A 
ATOM     17  C   UNL     1       6.687   5.839  -0.349  0.00  0.00    +0.125 A 
ATOM     18  C   UNL     1       7.756   4.959  -0.366  0.00  0.00    +0.057 A 
ATOM     19  C   UNL     1       7.533   3.599  -0.259  0.00  0.00    +0.063 A 
ATOM     20 BR   UNL     1       8.993   2.398  -0.274  0.00  0.00    -0.046 Br
ATOM     21  F   UNL     1       6.906   7.169  -0.449  0.00  0.00    -0.205 F 
ENDBRANCH  13  14
ENDBRANCH   8  13
TORSDOF 3
