REMARK  Name = ZINC29014970
REMARK  6 active torsions:
REMARK  status: ('A' for Active; 'I' for Inactive)
REMARK    1  A    between atoms: C_1  and  C_2
REMARK    2  A    between atoms: C_2  and  C_4
REMARK    3  A    between atoms: C_2  and  N_21
REMARK    4  A    between atoms: N_6  and  C_7
REMARK    5  A    between atoms: C_7  and  C_9
REMARK    6  A    between atoms: C_7  and  C_16
REMARK                            x       y       z     vdW  Elec       q    Type
REMARK                         _______ _______ _______ _____ _____    ______ ____
ROOT
ATOM      1  C   UNL     1       2.969   9.026  -0.579  0.00  0.00    +0.234 C 
ATOM      2  O   UNL     1       1.955   9.576  -0.955  0.00  0.00    -0.274 OA
ATOM      3  N   UNL     1       4.157   9.652  -0.691  0.00  0.00    -0.302 N 
ATOM      4  H   UNL     1       5.076   9.153  -0.349  0.00  0.00    +0.150 HD
ENDROOT
BRANCH   1   6
ATOM      5  C   UNL     1       3.436   7.674   1.446  0.00  0.00    +0.038 C 
ATOM      6  C   UNL     1       2.898   7.642   0.015  0.00  0.00    +0.155 C 
BRANCH   6   7
ATOM      7  N   UNL     1       1.507   7.186   0.025  0.00  0.00    -0.312 N 
ATOM      8  C   UNL     1       1.224   5.835   0.020  0.00  0.00    +0.160 A 
ATOM      9  N   UNL     1       0.053   5.238   0.028  0.00  0.00    -0.225 NA
ATOM     10  C   UNL     1      -0.075   3.893   0.023  0.00  0.00    +0.080 A 
ATOM     11  C   UNL     1      -1.265   3.130   0.030  0.00  0.00    +0.029 A 
ATOM     12  C   UNL     1      -1.219   1.760   0.017  0.00  0.00    +0.002 A 
ATOM     13  C   UNL     1      -0.013   1.076   0.008  0.00  0.00    +0.001 A 
ATOM     14  C   UNL     1       1.171   1.791   0.001  0.00  0.00    +0.017 A 
ATOM     15  C   UNL     1       1.135   3.162   0.008  0.00  0.00    +0.041 A 
ATOM     16  S   UNL     1       2.356   4.452   0.003  0.00  0.00    -0.052 S 
ATOM     17  H   UNL     1       0.687   7.919   0.037  0.00  0.00    +0.149 HD
ENDBRANCH   6   7
ENDBRANCH   1   6
BRANCH   3  18
ATOM     18  C   UNL     1       4.225  10.997  -1.268  0.00  0.00    +0.140 C 
BRANCH  18  19
ATOM     19  C   UNL     1       5.451  11.704  -0.750  0.00  0.00    -0.022 A 
ATOM     20  C   UNL     1       6.638  11.011  -0.605  0.00  0.00    +0.008 A 
ATOM     21  C   UNL     1       7.764  11.660  -0.135  0.00  0.00    +0.038 A 
ATOM     22  C   UNL     1       7.700  13.002   0.201  0.00  0.00    +0.123 A 
ATOM     23  C   UNL     1       6.509  13.693   0.060  0.00  0.00    +0.038 A 
ATOM     24  C   UNL     1       5.386  13.044  -0.415  0.00  0.00    +0.008 A 
ATOM     25  F   UNL     1       8.799  13.636   0.665  0.00  0.00    -0.205 F 
ENDBRANCH  18  19
BRANCH  18  26
ATOM     26  C   UNL     1       4.299  10.896  -2.769  0.00  0.00    +0.014 A 
ATOM     27  C   UNL     1       3.692  11.663  -3.707  0.00  0.00    +0.013 A 
ATOM     28  C   UNL     1       3.908  11.384  -5.044  0.00  0.00    +0.008 A 
ATOM     29  C   UNL     1       4.722  10.353  -5.377  0.00  0.00    +0.045 A 
ATOM     30  S   UNL     1       5.218   9.741  -3.775  0.00  0.00    -0.099 S 
ENDBRANCH  18  26
ENDBRANCH   3  18
TORSDOF 5
