REMARK  Name = ZINC18055390
REMARK  6 active torsions:
REMARK  status: ('A' for Active; 'I' for Inactive)
REMARK    1  A    between atoms: C_3  and  C_13
REMARK    2  A    between atoms: C_4  and  N_10
REMARK    3  A    between atoms: C_6  and  C_7
REMARK    4  A    between atoms: C_13  and  O_14
REMARK    5  A    between atoms: O_14  and  C_15
REMARK    6  A    between atoms: C_15  and  C_17
REMARK                            x       y       z     vdW  Elec       q    Type
REMARK                         _______ _______ _______ _____ _____    ______ ____
ROOT
ATOM      1  C   UNL     1       1.220  -2.189  -0.022  0.00  0.00    +0.269 C 
ENDROOT
BRANCH   1   4
ATOM      2  C   UNL     1      -0.017   1.376   0.010  0.00  0.00    +0.013 A 
ATOM      3  C   UNL     1       0.002  -0.004   0.002  0.00  0.00    +0.010 A 
ATOM      4  C   UNL     1       1.208  -0.682  -0.013  0.00  0.00    +0.020 A 
ATOM      5  C   UNL     1       2.402   0.017  -0.021  0.00  0.00    +0.133 A 
ATOM      6  C   UNL     1       2.397   1.396  -0.014  0.00  0.00    +0.046 A 
ATOM      7  C   UNL     1       1.184   2.087   0.002  0.00  0.00    +0.039 A 
BRANCH   7   8
ATOM      8  C   UNL     1       1.172   3.565   0.009  0.00  0.00    +0.242 C 
ATOM      9  O   UNL     1       2.219   4.182   0.003  0.00  0.00    -0.270 OA
ATOM     10  N   UNL     1      -0.001   4.229   0.024  0.00  0.00    -0.325 N 
ATOM     11  H   UNL     1      -0.011   5.329   0.029  0.00  0.00    +0.145 HD
ATOM     12  H   UNL     1      -0.949   3.671   0.030  0.00  0.00    +0.145 HD
ENDBRANCH   7   8
BRANCH   5  13
ATOM     13  N   UNL     1       3.687  -0.717  -0.037  0.00  0.00    +0.057 N 
ATOM     14  O   UNL     1       4.739  -0.103  -0.044  0.00  0.00    -0.126 OA
ATOM     15  O   UNL     1       3.693  -1.935  -0.044  0.00  0.00    -0.126 OA
ENDBRANCH   5  13
ENDBRANCH   1   4
BRANCH   1  16
ATOM     16  O   UNL     1      -0.144  -2.685  -0.012  0.00  0.00    -0.459 OA
BRANCH  16  17
ATOM     17  C   UNL     1      -0.309  -4.017  -0.018  0.00  0.00    +0.314 C 
ATOM     18  O   UNL     1       0.655  -4.745  -0.031  0.00  0.00    -0.250 OA
BRANCH  17  19
ATOM     19  C   UNL     1      -1.696  -4.605  -0.008  0.00  0.00    +0.070 C 
ATOM     20  C   UNL     1      -2.436  -4.147   1.250  0.00  0.00    +0.021 C 
ATOM     21  C   UNL     1      -3.845  -4.744   1.260  0.00  0.00    -0.008 C 
ATOM     22  C   UNL     1      -4.607  -4.271   0.021  0.00  0.00    +0.007 C 
ATOM     23  C   UNL     1      -3.868  -4.729  -1.238  0.00  0.00    -0.008 C 
ATOM     24  C   UNL     1      -2.459  -4.133  -1.248  0.00  0.00    +0.021 C 
ATOM     25  C   UNL     1      -3.775  -6.257  -1.248  0.00  0.00    +0.026 C 
ATOM     26  C   UNL     1      -3.012  -6.729  -0.008  0.00  0.00    +0.047 C 
ATOM     27  C   UNL     1      -3.752  -6.271   1.251  0.00  0.00    +0.026 C 
ATOM     28  C   UNL     1      -1.603  -6.132  -0.018  0.00  0.00    +0.041 C 
ATOM     29 CL   UNL     1      -2.903  -8.529  -0.019  0.00  0.00    -0.118 Cl
ENDBRANCH  17  19
ENDBRANCH  16  17
ENDBRANCH   1  16
TORSDOF 6
