REMARK  Name = ZINC08411694
REMARK  7 active torsions:
REMARK  status: ('A' for Active; 'I' for Inactive)
REMARK    1  A    between atoms: C_1  and  C_2
REMARK    2  A    between atoms: C_2  and  C_3
REMARK    3  A    between atoms: C_3  and  N_47
REMARK    4  A    between atoms: C_10  and  C_22
REMARK    5  A    between atoms: C_12  and  C_18
REMARK    6  A    between atoms: C_12  and  C_20
REMARK    7  A    between atoms: C_14  and  C_15
REMARK                            x       y       z     vdW  Elec       q    Type
REMARK                         _______ _______ _______ _____ _____    ______ ____
ROOT
ATOM      1  C   UNL     1       0.126  -1.689  -3.737  0.00  0.00    -0.051 C 
ATOM      2  C   UNL     1       0.466  -2.552  -2.547  0.00  0.00    -0.044 C 
ATOM      3  C   UNL     1      -0.232  -2.443  -1.446  0.00  0.00    -0.051 C 
ATOM      4  C   UNL     1      -1.433  -1.554  -1.299  0.00  0.00    +0.010 C 
ATOM      5  C   UNL     1      -1.641  -0.634  -2.482  0.00  0.00    -0.070 C 
ATOM      6  C   UNL     1      -1.293  -0.775   0.010  0.00  0.00    +0.064 C 
ATOM      7  C   UNL     1      -1.293  -1.763   1.177  0.00  0.00    +0.188 C 
ATOM      8  C   UNL     1      -0.304  -2.870   0.968  0.00  0.00    +0.065 C 
ATOM      9  C   UNL     1       0.194  -3.209  -0.248  0.00  0.00    +0.163 C 
ATOM     10  N   UNL     1       0.119  -3.574   2.060  0.00  0.00    -0.304 NA
ATOM     11  H   UNL     1       0.759  -4.296   1.954  0.00  0.00    +0.186 HD
ATOM     12  N   UNL     1      -0.383  -0.406  -3.210  0.00  0.00    +0.382 N 
ATOM     13  H   UNL     1       0.311  -0.009  -2.565  0.00  0.00    -0.081 HD
ENDROOT
BRANCH   6  14
ATOM     14  C   UNL     1       0.002  -0.004   0.002  0.00  0.00    -0.040 A 
ATOM     15  C   UNL     1       1.151  -0.576   0.517  0.00  0.00    +0.004 A 
ATOM     16  C   UNL     1       2.339   0.130   0.510  0.00  0.00    +0.001 A 
ATOM     17  C   UNL     1       2.379   1.410  -0.013  0.00  0.00    +0.015 A 
ATOM     18  C   UNL     1       1.230   1.982  -0.528  0.00  0.00    +0.018 A 
ATOM     19  C   UNL     1       0.042   1.274  -0.521  0.00  0.00    +0.019 A 
ATOM     20 BR   UNL     1       1.285   3.732  -1.243  0.00  0.00    -0.050 Br
ENDBRANCH   6  14
BRANCH   9  21
ATOM     21  C   UNL     1       1.118  -4.295  -0.375  0.00  0.00    +0.076 C 
ATOM     22  N   UNL     1       1.851  -5.157  -0.475  0.00  0.00    -0.196 NA
ENDBRANCH   9  21
BRANCH   7  23
ATOM     23  C   UNL     1      -0.953  -1.043   2.415  0.00  0.00    +0.091 C 
ATOM     24  N   UNL     1      -0.690  -0.487   3.371  0.00  0.00    -0.195 NA
ENDBRANCH   7  23
BRANCH   7  25
ATOM     25  C   UNL     1      -2.639  -2.342   1.315  0.00  0.00    +0.091 C 
ATOM     26  N   UNL     1      -3.678  -2.789   1.422  0.00  0.00    -0.195 NA
ENDBRANCH   7  25
BRANCH  12  27
ATOM     27  C   UNL     1      -0.608   0.547  -4.322  0.00  0.00    -0.079 C 
BRANCH  27  29
ATOM     28  C   UNL     1       0.411   1.565  -6.364  0.00  0.00    +0.002 C 
ATOM     29  C   UNL     1       0.628   0.568  -5.223  0.00  0.00    -0.022 C 
ENDBRANCH  27  29
ENDBRANCH  12  27
TORSDOF 6
