REMARK  Name = ZINC53536989
REMARK  8 active torsions:
REMARK  status: ('A' for Active; 'I' for Inactive)
REMARK    1  A    between atoms: C_3  and  C_11
REMARK    2  A    between atoms: C_5  and  C_7
REMARK    3  A    between atoms: C_11  and  N_12
REMARK    4  A    between atoms: N_12  and  C_13
REMARK    5  A    between atoms: C_13  and  C_14
REMARK    6  A    between atoms: C_14  and  C_15
REMARK    7  A    between atoms: N_21  and  C_22
REMARK    8  A    between atoms: C_22  and  C_23
REMARK                            x       y       z     vdW  Elec       q    Type
REMARK                         _______ _______ _______ _____ _____    ______ ____
ROOT
ATOM      1  C   UNL     1       7.129   4.306   2.617  0.00  0.00    +0.075 C 
ATOM      2  C   UNL     1       7.670   4.608   4.032  0.00  0.00    +0.031 C 
ATOM      3  C   UNL     1       9.194   4.451   3.827  0.00  0.00    +0.098 C 
ATOM      4  C   UNL     1       9.315   3.523   2.639  0.00  0.00    +0.216 C 
ATOM      5  O   UNL     1      10.323   2.925   2.324  0.00  0.00    -0.276 OA
ATOM      6  N   UNL     1       8.143   3.457   1.981  0.00  0.00    -0.291 N 
ENDROOT
BRANCH   1   7
ATOM      7  C   UNL     1       5.796   3.560   2.707  0.00  0.00    +0.003 C 
BRANCH   7   8
ATOM      8  C   UNL     1       4.725   4.498   3.269  0.00  0.00    -0.080 C 
BRANCH   8   9
ATOM      9  N   UNL     1       3.419   3.826   3.233  0.00  0.00    +0.382 N 
ATOM     10  H   UNL     1       3.458   2.986   3.792  0.00  0.00    -0.085 HD
ATOM     11  H   UNL     1       3.190   3.585   2.281  0.00  0.00    -0.085 HD
BRANCH   9  12
ATOM     12  C   UNL     1       2.390   4.725   3.772  0.00  0.00    -0.047 C 
BRANCH  12  15
ATOM     13  C   UNL     1      -0.598   2.653   4.785  0.00  0.00    +0.001 A 
ATOM     14  C   UNL     1       0.631   3.284   4.818  0.00  0.00    +0.002 A 
ATOM     15  C   UNL     1       1.051   4.036   3.736  0.00  0.00    -0.064 A 
ATOM     16  C   UNL     1       0.242   4.155   2.622  0.00  0.00    +0.014 A 
ATOM     17  C   UNL     1      -0.987   3.523   2.589  0.00  0.00    +0.055 A 
ATOM     18  C   UNL     1      -1.407   2.773   3.671  0.00  0.00    +0.012 A 
BRANCH  17  19
ATOM     19  C   UNL     1      -1.869   3.654   1.374  0.00  0.00    +0.417 C 
ATOM     20  F   UNL     1      -1.578   2.625   0.472  0.00  0.00    -0.166 F 
ATOM     21  F   UNL     1      -3.211   3.569   1.761  0.00  0.00    -0.166 F 
ATOM     22  F   UNL     1      -1.639   4.891   0.761  0.00  0.00    -0.166 F 
ENDBRANCH  17  19
ENDBRANCH  12  15
ENDBRANCH   9  12
ENDBRANCH   8   9
ENDBRANCH   7   8
ENDBRANCH   1   7
BRANCH   6  23
ATOM     23  C   UNL     1       7.909   2.643   0.786  0.00  0.00    +0.182 C 
BRANCH  23  24
ATOM     24  C   UNL     1       8.258   3.442  -0.443  0.00  0.00    +0.126 A 
ATOM     25  N   UNL     1       7.458   4.274  -1.043  0.00  0.00    -0.231 NA
ATOM     26  C   UNL     1       8.088   4.822  -2.114  0.00  0.00    +0.091 A 
ATOM     27  C   UNL     1       7.706   5.752  -3.084  0.00  0.00    +0.050 A 
ATOM     28  C   UNL     1       8.595   6.116  -4.070  0.00  0.00    +0.043 A 
ATOM     29  C   UNL     1       9.870   5.566  -4.107  0.00  0.00    +0.022 A 
ATOM     30  C   UNL     1      10.262   4.647  -3.158  0.00  0.00    +0.029 A 
ATOM     31  C   UNL     1       9.379   4.268  -2.157  0.00  0.00    +0.066 A 
ATOM     32  N   UNL     1       9.458   3.403  -1.083  0.00  0.00    -0.341 N 
ATOM     33 CL   UNL     1       8.120   7.271  -5.276  0.00  0.00    -0.083 Cl
ATOM     34  H   UNL     1      10.225   2.866  -0.833  0.00  0.00    +0.167 HD
ENDBRANCH  23  24
ENDBRANCH   6  23
TORSDOF 8
