REMARK  Name = ZINC13398832
REMARK  6 active torsions:
REMARK  status: ('A' for Active; 'I' for Inactive)
REMARK    1  A    between atoms: C_1  and  C_2
REMARK    2  A    between atoms: C_5  and  C_26
REMARK    3  A    between atoms: C_5  and  O_28
REMARK    4  A    between atoms: C_17  and  C_25
REMARK    5  A    between atoms: C_22  and  C_23
REMARK    6  A    between atoms: C_22  and  O_24
REMARK                            x       y       z     vdW  Elec       q    Type
REMARK                         _______ _______ _______ _____ _____    ______ ____
ROOT
ATOM      1  C   UNL     1       1.263   4.044  -0.548  0.00  0.00    +0.012 C 
ATOM      2  C   UNL     1       1.656   3.005   0.498  0.00  0.00    -0.026 C 
ATOM      3  C   UNL     1       3.086   3.318   0.975  0.00  0.00    +0.011 C 
ATOM      4  C   UNL     1       3.164   4.723   1.558  0.00  0.00    +0.048 C 
ATOM      5  C   UNL     1       2.167   4.942   2.689  0.00  0.00    +0.126 C 
ATOM      6  C   UNL     1       0.756   4.520   2.290  0.00  0.00    +0.052 C 
ATOM      7  C   UNL     1       0.743   3.110   1.719  0.00  0.00    -0.001 C 
ATOM      8  C   UNL     1      -0.680   2.700   1.338  0.00  0.00    +0.004 C 
ATOM      9  C   UNL     1      -0.654   1.216   0.974  0.00  0.00    +0.004 C 
ATOM     10  C   UNL     1       0.255   0.972  -0.228  0.00  0.00    -0.004 C 
ATOM     11  C   UNL     1       1.633   1.593  -0.071  0.00  0.00    -0.001 C 
ATOM     12  C   UNL     1       2.493   1.483  -1.322  0.00  0.00    +0.005 C 
ATOM     13  C   UNL     1       1.782   1.751  -2.646  0.00  0.00    +0.010 C 
ATOM     14  C   UNL     1       0.474   0.999  -2.711  0.00  0.00    -0.000 C 
ATOM     15  C   UNL     1      -0.398   1.423  -1.507  0.00  0.00    +0.001 C 
ATOM     16  C   UNL     1      -1.748   0.780  -1.857  0.00  0.00    +0.007 C 
ATOM     17  C   UNL     1      -1.872   1.055  -3.381  0.00  0.00    +0.035 C 
ATOM     18  C   UNL     1      -0.439   1.339  -3.896  0.00  0.00    +0.069 C 
ATOM     19  C   UNL     1      -0.110   0.440  -5.087  0.00  0.00    +0.042 C 
ATOM     20  C   UNL     1       0.735  -0.507  -2.726  0.00  0.00    +0.014 C 
ENDROOT
BRANCH  18  21
ATOM     21  O   UNL     1      -0.299   2.714  -4.250  0.00  0.00    -0.388 OA
ATOM     22  H   UNL     1      -0.853   2.987  -4.994  0.00  0.00    +0.210 HD
ENDBRANCH  18  21
BRANCH   5  23
ATOM     23  C   UNL     1       2.594   4.203   3.890  0.00  0.00    -0.071 C 
ATOM     24  C   UNL     1       2.934   3.614   4.846  0.00  0.00    +0.007 C 
ENDBRANCH   5  23
BRANCH   5  25
ATOM     25  O   UNL     1       2.147   6.344   3.012  0.00  0.00    -0.377 OA
ATOM     26  H   UNL     1       3.006   6.699   3.278  0.00  0.00    +0.211 HD
ENDBRANCH   5  25
TORSDOF 3
