REMARK  Name = ZINC01085007
REMARK  5 active torsions:
REMARK  status: ('A' for Active; 'I' for Inactive)
REMARK    1  A    between atoms: C_6  and  C_7
REMARK    2  A    between atoms: C_16  and  C_24
REMARK    3  A    between atoms: C_17  and  N_23
REMARK    4  A    between atoms: C_18  and  C_19
REMARK    5  A    between atoms: C_18  and  C_21
REMARK                            x       y       z     vdW  Elec       q    Type
REMARK                         _______ _______ _______ _____ _____    ______ ____
ROOT
ATOM      1  C   UNL     1      -0.082   6.158   0.034  0.00  0.00    +0.066 C 
ATOM      2  C   UNL     1      -0.716   6.668  -1.261  0.00  0.00    +0.030 C 
ATOM      3  C   UNL     1      -0.118   6.015  -2.484  0.00  0.00    +0.009 C 
ATOM      4  C   UNL     1       0.905   6.916  -3.172  0.00  0.00    +0.005 C 
ATOM      5  C   UNL     1       0.210   8.229  -3.560  0.00  0.00    +0.027 C 
ATOM      6  C   UNL     1      -0.269   8.888  -2.290  0.00  0.00    -0.022 C 
ATOM      7  C   UNL     1      -0.657   8.167  -1.256  0.00  0.00    -0.029 C 
ATOM      8  C   UNL     1      -1.059   8.851   0.001  0.00  0.00    +0.074 C 
ATOM      9  C   UNL     1      -1.159   8.130   1.146  0.00  0.00    +0.054 C 
ATOM     10  C   UNL     1      -0.909   6.654   1.221  0.00  0.00    +0.188 C 
ENDROOT
BRANCH   1  16
ATOM     11  C   UNL     1       1.075   3.974   0.427  0.00  0.00    +0.005 A 
ATOM     12  C   UNL     1       1.095   2.592   0.420  0.00  0.00    +0.015 A 
ATOM     13  C   UNL     1      -0.023   1.887   0.013  0.00  0.00    +0.018 A 
ATOM     14  C   UNL     1      -1.159   2.565  -0.393  0.00  0.00    +0.015 A 
ATOM     15  C   UNL     1      -1.179   3.947  -0.381  0.00  0.00    +0.005 A 
ATOM     16  C   UNL     1      -0.061   4.652   0.027  0.00  0.00    -0.041 A 
ATOM     17 BR   UNL     1       0.003  -0.004   0.002  0.00  0.00    -0.050 Br
ENDBRANCH   1  16
BRANCH   9  18
ATOM     18  N   UNL     1      -1.508   8.784   2.293  0.00  0.00    -0.358 N 
ATOM     19  H   UNL     1      -1.597   8.229   3.238  0.00  0.00    +0.142 HD
ATOM     20  H   UNL     1      -1.699   9.868   2.272  0.00  0.00    +0.142 HD
ENDBRANCH   9  18
BRANCH  10  21
ATOM     21  C   UNL     1      -2.200   5.948   1.234  0.00  0.00    +0.091 C 
ATOM     22  N   UNL     1      -3.197   5.403   1.243  0.00  0.00    -0.194 NA
ENDBRANCH  10  21
BRANCH  10  23
ATOM     23  C   UNL     1      -0.186   6.354   2.468  0.00  0.00    +0.091 C 
ATOM     24  N   UNL     1       0.371   6.123   3.430  0.00  0.00    -0.194 NA
ENDBRANCH  10  23
BRANCH   8  25
ATOM     25  C   UNL     1      -1.338  10.256   0.003  0.00  0.00    +0.101 C 
ATOM     26  N   UNL     1      -1.559  11.370   0.005  0.00  0.00    -0.191 NA
ENDBRANCH   8  25
TORSDOF 5
