REMARK  Name = ZINC09065208
REMARK  17 active torsions:
REMARK  status: ('A' for Active; 'I' for Inactive)
REMARK    1  A    between atoms: C_1  and  C_2
REMARK    2  A    between atoms: C_2  and  N_76
REMARK    3  A    between atoms: C_3  and  C_4
REMARK    4  A    between atoms: C_3  and  N_76
REMARK    5  A    between atoms: C_5  and  C_6
REMARK    6  A    between atoms: C_5  and  N_76
REMARK    7  A    between atoms: C_6  and  C_7
REMARK    8  A    between atoms: C_7  and  N_8
REMARK    9  A    between atoms: C_9  and  C_29
REMARK   10  A    between atoms: C_12  and  C_13
REMARK   11  A    between atoms: C_12  and  O_24
REMARK   12  A    between atoms: C_19  and  O_22
REMARK   13  A    between atoms: O_22  and  C_23
REMARK   14  A    between atoms: C_32  and  C_35
REMARK   15  A    between atoms: C_35  and  C_36
REMARK   16  A    between atoms: C_35  and  C_37
REMARK   17  A    between atoms: C_35  and  C_38
REMARK                            x       y       z     vdW  Elec       q    Type
REMARK                         _______ _______ _______ _____ _____    ______ ____
ROOT
ATOM      1  N   UNL     1      -5.859   5.315   4.349  0.00  0.00    -0.284 N 
ATOM      2  C   UNL     1      -5.164   4.721   5.495  0.00  0.00    +0.145 C 
ATOM      3  C   UNL     1      -4.108   3.799   4.929  0.00  0.00    +0.074 C 
ATOM      4  C   UNL     1      -3.210   3.024   5.644  0.00  0.00    +0.168 C 
ATOM      5  C   UNL     1      -4.217   3.890   3.535  0.00  0.00    +0.249 C 
ATOM      6  O   UNL     1      -3.530   3.295   2.725  0.00  0.00    -0.282 OA
ATOM      7  C   UNL     1      -5.318   4.837   3.216  0.00  0.00    +0.288 C 
ATOM      8  O   UNL     1      -5.674   5.137   2.095  0.00  0.00    -0.266 OA
ENDROOT
BRANCH   4   9
ATOM      9  C   UNL     1      -2.165   2.280   4.942  0.00  0.00    +0.171 A 
ATOM     10  C   UNL     1      -0.843   2.276   5.273  0.00  0.00    +0.061 A 
ATOM     11  C   UNL     1      -0.189   1.432   4.342  0.00  0.00    +0.025 A 
ATOM     12  C   UNL     1       1.143   1.035   4.163  0.00  0.00    +0.012 A 
ATOM     13  C   UNL     1       1.470   0.189   3.143  0.00  0.00    +0.004 A 
ATOM     14  C   UNL     1       0.492  -0.285   2.279  0.00  0.00    +0.049 A 
ATOM     15  C   UNL     1      -0.829   0.093   2.435  0.00  0.00    +0.163 A 
ATOM     16  C   UNL     1      -1.183   0.961   3.466  0.00  0.00    +0.177 A 
ATOM     17  O   UNL     1      -2.359   1.490   3.864  0.00  0.00    -0.448 OA
BRANCH  15  18
ATOM     18  O   UNL     1      -1.778  -0.375   1.581  0.00  0.00    -0.491 OA
ATOM     19  C   UNL     1      -1.340  -1.256   0.544  0.00  0.00    +0.277 C 
ENDBRANCH  15  18
ENDBRANCH   4   9
BRANCH   2  20
ATOM     20  C   UNL     1      -4.516   5.800   6.323  0.00  0.00    -0.022 A 
ATOM     21  C   UNL     1      -3.916   6.881   5.703  0.00  0.00    +0.006 A 
ATOM     22  C   UNL     1      -3.326   7.873   6.463  0.00  0.00    +0.004 A 
ATOM     23  C   UNL     1      -3.327   7.781   7.842  0.00  0.00    -0.042 A 
ATOM     24  C   UNL     1      -3.922   6.698   8.462  0.00  0.00    +0.004 A 
ATOM     25  C   UNL     1      -4.516   5.707   7.702  0.00  0.00    +0.006 A 
BRANCH  23  26
ATOM     26  C   UNL     1      -2.680   8.861   8.670  0.00  0.00    -0.013 C 
ATOM     27  C   UNL     1      -1.556   8.254   9.512  0.00  0.00    +0.015 C 
ATOM     28  C   UNL     1      -2.102   9.935   7.746  0.00  0.00    +0.015 C 
ATOM     29  C   UNL     1      -3.725   9.492   9.592  0.00  0.00    +0.015 C 
ENDBRANCH  23  26
ENDBRANCH   2  20
BRANCH   4  30
ATOM     30  O   UNL     1      -3.300   2.956   6.991  0.00  0.00    -0.503 OA
ATOM     31  H   UNL     1      -2.580   2.357   7.343  0.00  0.00    +0.292 HD
ENDBRANCH   4  30
BRANCH   1  32
ATOM     32  C   UNL     1      -6.963   6.275   4.427  0.00  0.00    +0.107 C 
BRANCH  32  33
ATOM     33  C   UNL     1      -6.401   7.698   4.446  0.00  0.00    +0.000 C 
BRANCH  33  34
ATOM     34  C   UNL     1      -7.554   8.700   4.528  0.00  0.00    -0.077 C 
BRANCH  34  35
ATOM     35  N   UNL     1      -6.995  10.068   4.566  0.00  0.00    +0.379 N 
ATOM     36  H   UNL     1      -6.286  10.118   5.307  0.00  0.00    -0.082 HD
BRANCH  35  38
ATOM     37  C   UNL     1      -7.399  10.386   2.148  0.00  0.00    -0.017 C 
ATOM     38  C   UNL     1      -6.360  10.391   3.272  0.00  0.00    -0.082 C 
ENDBRANCH  35  38
BRANCH  35  39
ATOM     39  C   UNL     1      -8.066  11.043   4.860  0.00  0.00    -0.082 C 
ATOM     40  C   UNL     1      -7.424  12.379   5.240  0.00  0.00    -0.017 C 
ENDBRANCH  35  39
ENDBRANCH  34  35
ENDBRANCH  33  34
ENDBRANCH  32  33
ENDBRANCH   1  32
TORSDOF 11
