REMARK  Name = ZINC00697981
REMARK  8 active torsions:
REMARK  status: ('A' for Active; 'I' for Inactive)
REMARK    1  A    between atoms: C_1  and  C_2
REMARK    2  A    between atoms: C_2  and  C_3
REMARK    3  A    between atoms: C_4  and  C_26
REMARK    4  A    between atoms: C_5  and  N_10
REMARK    5  A    between atoms: C_7  and  C_9
REMARK    6  A    between atoms: N_18  and  C_19
REMARK    7  A    between atoms: C_26  and  C_27
REMARK    8  A    between atoms: C_30  and  C_33
REMARK                            x       y       z     vdW  Elec       q    Type
REMARK                         _______ _______ _______ _____ _____    ______ ____
ROOT
ATOM      1  C   UNL     1       0.762  -1.115   0.588  0.00  0.00    +0.050 A 
ATOM      2  C   UNL     1       2.108  -1.269   0.322  0.00  0.00    +0.018 A 
ATOM      3  C   UNL     1       3.002  -1.255   1.395  0.00  0.00    +0.129 A 
ATOM      4  N   UNL     1       2.526  -1.095   2.626  0.00  0.00    -0.217 NA
ATOM      5  C   UNL     1       1.233  -0.952   2.834  0.00  0.00    +0.128 A 
ATOM      6  N   UNL     1       0.365  -0.956   1.842  0.00  0.00    -0.237 NA
ATOM      7  C   UNL     1       0.733  -0.774   4.244  0.00  0.00    +0.088 C 
ENDROOT
BRANCH   3   8
ATOM      8  N   UNL     1       4.362  -1.406   1.180  0.00  0.00    -0.312 N 
ATOM      9  C   UNL     1       5.172  -0.279   0.697  0.00  0.00    +0.125 C 
ATOM     10  C   UNL     1       6.332  -0.054   1.675  0.00  0.00    +0.128 C 
ATOM     11  N   UNL     1       6.991  -1.344   1.927  0.00  0.00    -0.282 N 
ATOM     12  C   UNL     1       6.180  -2.471   2.410  0.00  0.00    +0.128 C 
ATOM     13  C   UNL     1       5.022  -2.694   1.437  0.00  0.00    +0.125 C 
ATOM     14  C   UNL     1       8.314  -1.490   1.718  0.00  0.00    +0.307 C 
ATOM     15  O   UNL     1       8.991  -0.528   1.412  0.00  0.00    -0.252 OA
ATOM     16  N   UNL     1       8.886  -2.704   1.849  0.00  0.00    -0.269 N 
ATOM     17  H   UNL     1       8.337  -3.482   2.030  0.00  0.00    +0.156 HD
BRANCH  16  18
ATOM     18  C   UNL     1      10.274  -2.840   1.724  0.00  0.00    +0.036 A 
ATOM     19  C   UNL     1      11.115  -1.830   2.171  0.00  0.00    +0.023 A 
ATOM     20  C   UNL     1      12.484  -1.967   2.047  0.00  0.00    +0.003 A 
ATOM     21  C   UNL     1      13.017  -3.108   1.477  0.00  0.00    +0.015 A 
ATOM     22  C   UNL     1      12.182  -4.116   1.030  0.00  0.00    +0.020 A 
ATOM     23  C   UNL     1      10.811  -3.987   1.157  0.00  0.00    +0.038 A 
ATOM     24 BR   UNL     1      12.916  -5.675   0.250  0.00  0.00    -0.050 Br
ENDBRANCH  16  18
ENDBRANCH   3   8
BRANCH   1  26
ATOM     25  C   UNL     1      -0.339   0.278  -1.143  0.00  0.00    +0.010 C 
ATOM     26  C   UNL     1      -0.243  -1.123  -0.535  0.00  0.00    +0.052 C 
ENDBRANCH   1  26
BRANCH   2  27
ATOM     27  C   UNL     1       2.601  -1.448  -1.091  0.00  0.00    +0.075 C 
BRANCH  27  28
ATOM     28  C   UNL     1       2.456  -2.893  -1.495  0.00  0.00    -0.043 A 
ATOM     29  C   UNL     1       3.397  -3.821  -1.090  0.00  0.00    +0.004 A 
ATOM     30  C   UNL     1       3.264  -5.146  -1.461  0.00  0.00    +0.003 A 
ATOM     31  C   UNL     1       2.190  -5.543  -2.235  0.00  0.00    -0.050 A 
ATOM     32  C   UNL     1       1.248  -4.615  -2.639  0.00  0.00    +0.003 A 
ATOM     33  C   UNL     1       1.379  -3.290  -2.265  0.00  0.00    +0.004 A 
ATOM     34  C   UNL     1       2.045  -6.987  -2.639  0.00  0.00    +0.044 C 
ENDBRANCH  27  28
ENDBRANCH   2  27
TORSDOF 5
