REMARK  Name = ZINC13570050
REMARK  4 active torsions:
REMARK  status: ('A' for Active; 'I' for Inactive)
REMARK    1  A    between atoms: C_3  and  O_29
REMARK    2  A    between atoms: C_6  and  N_7
REMARK    3  A    between atoms: C_11  and  C_12
REMARK    4  A    between atoms: C_21  and  O_22
REMARK                            x       y       z     vdW  Elec       q    Type
REMARK                         _______ _______ _______ _____ _____    ______ ____
ROOT
ATOM      1  N   UNL     1       0.733   2.525  -1.154  0.00  0.00    -0.224 N 
ATOM      2  C   UNL     1       0.608   3.818  -0.906  0.00  0.00    +0.263 C 
ATOM      3  O   UNL     1       1.481   4.613  -1.201  0.00  0.00    -0.269 OA
ATOM      4  C   UNL     1      -0.645   4.249  -0.255  0.00  0.00    +0.078 C 
ATOM      5  C   UNL     1      -1.045   5.493   0.115  0.00  0.00    +0.033 C 
ATOM      6  S   UNL     1      -1.493   2.684  -0.093  0.00  0.00    -0.061 S 
ATOM      7  C   UNL     1      -0.238   1.648  -0.827  0.00  0.00    +0.125 C 
ATOM      8  S   UNL     1      -0.263  -0.048  -1.064  0.00  0.00    -0.027 S 
ENDROOT
BRANCH   5   9
ATOM      9  C   UNL     1      -0.107   6.618   0.038  0.00  0.00    +0.038 A 
ATOM     10  C   UNL     1       1.219   6.457   0.434  0.00  0.00    +0.023 A 
ATOM     11  C   UNL     1       2.076   7.565   0.341  0.00  0.00    +0.005 A 
ATOM     12  C   UNL     1       3.425   7.470   0.727  0.00  0.00    +0.059 A 
ATOM     13  C   UNL     1       4.240   8.559   0.628  0.00  0.00    +0.167 A 
ATOM     14  C   UNL     1       3.744   9.781   0.141  0.00  0.00    +0.168 A 
ATOM     15  C   UNL     1       2.428   9.900  -0.243  0.00  0.00    +0.078 A 
ATOM     16  C   UNL     1       1.568   8.795  -0.149  0.00  0.00    +0.079 A 
ATOM     17  N   UNL     1       0.284   8.898  -0.516  0.00  0.00    -0.212 NA
ATOM     18  C   UNL     1      -0.538   7.877  -0.444  0.00  0.00    +0.220 A 
ATOM     19  O   UNL     1       4.761  10.691   0.147  0.00  0.00    -0.453 OA
ATOM     20  C   UNL     1       5.765  10.143   1.021  0.00  0.00    +0.466 C 
ATOM     21  O   UNL     1       5.562   8.721   0.933  0.00  0.00    -0.453 OA
BRANCH  18  22
ATOM     22  O   UNL     1      -1.826   8.033  -0.834  0.00  0.00    -0.492 OA
ATOM     23  H   UNL     1      -2.420   8.318  -0.125  0.00  0.00    +0.294 HD
ENDBRANCH  18  22
ENDBRANCH   5   9
BRANCH   1  29
ATOM     24  C   UNL     1       2.779   1.240  -1.070  0.00  0.00    +0.027 A 
ATOM     25  C   UNL     1       3.926   0.774  -1.680  0.00  0.00    +0.047 A 
ATOM     26  C   UNL     1       4.208   1.129  -2.991  0.00  0.00    +0.117 A 
ATOM     27  C   UNL     1       3.335   1.949  -3.691  0.00  0.00    +0.047 A 
ATOM     28  C   UNL     1       2.184   2.411  -3.084  0.00  0.00    +0.027 A 
ATOM     29  C   UNL     1       1.901   2.055  -1.772  0.00  0.00    +0.043 A 
BRANCH  26  30
ATOM     30  O   UNL     1       5.340   0.674  -3.590  0.00  0.00    -0.507 OA
ATOM     31  H   UNL     1       6.106   1.254  -3.477  0.00  0.00    +0.292 HD
ENDBRANCH  26  30
ENDBRANCH   1  29
TORSDOF 4
