REMARK  Name = ZINC30735392
REMARK  7 active torsions:
REMARK  status: ('A' for Active; 'I' for Inactive)
REMARK    1  A    between atoms: C_1  and  C_2
REMARK    2  A    between atoms: C_5  and  S_8
REMARK    3  A    between atoms: S_8  and  N_11
REMARK    4  A    between atoms: N_14  and  C_17
REMARK    5  A    between atoms: C_17  and  C_18
REMARK    6  A    between atoms: N_20  and  N_21
REMARK    7  A    between atoms: C_22  and  C_23
REMARK                            x       y       z     vdW  Elec       q    Type
REMARK                         _______ _______ _______ _____ _____    ______ ____
ROOT
ATOM      1  N   UNL     1       9.604  -4.150  -0.306  0.00  0.00    -0.180 NA
ATOM      2  C   UNL     1       9.499  -3.084  -1.314  0.00  0.00    +0.091 C 
ATOM      3  C   UNL     1       8.404  -2.106  -0.875  0.00  0.00    -0.061 C 
ATOM      4  N   UNL     1       7.161  -2.848  -0.624  0.00  0.00    +0.387 N 
ATOM      5  C   UNL     1       7.324  -3.801   0.482  0.00  0.00    -0.061 C 
ATOM      6  C   UNL     1       8.374  -4.848   0.099  0.00  0.00    +0.091 C 
ATOM      7  H   UNL     1       6.927  -3.424  -1.531  0.00  0.00    -0.081 HD
ENDROOT
BRANCH   1   8
ATOM      8  S   UNL     1      11.068  -4.554   0.354  0.00  0.00    +0.061 S 
ATOM      9  O   UNL     1      10.950  -5.894   0.813  0.00  0.00    -0.153 OA
ATOM     10  O   UNL     1      12.060  -4.153  -0.580  0.00  0.00    -0.153 OA
BRANCH   8  15
ATOM     11  C   UNL     1      11.823  -1.115   5.254  0.00  0.00    +0.044 C 
ATOM     12  C   UNL     1      11.635  -1.974   4.030  0.00  0.00    -0.050 A 
ATOM     13  C   UNL     1      11.014  -3.204   4.139  0.00  0.00    +0.005 A 
ATOM     14  C   UNL     1      10.841  -3.993   3.016  0.00  0.00    +0.029 A 
ATOM     15  C   UNL     1      11.288  -3.550   1.785  0.00  0.00    +0.105 A 
ATOM     16  C   UNL     1      11.913  -2.321   1.678  0.00  0.00    +0.029 A 
ATOM     17  C   UNL     1      12.082  -1.531   2.799  0.00  0.00    +0.005 A 
ENDBRANCH   8  15
ENDBRANCH   1   8
BRANCH   4  18
ATOM     18  C   UNL     1       6.043  -1.930  -0.368  0.00  0.00    +0.020 C 
BRANCH  18  19
ATOM     19  C   UNL     1       4.750  -2.704  -0.359  0.00  0.00    +0.216 C 
ATOM     20  O   UNL     1       4.759  -3.902  -0.547  0.00  0.00    -0.276 OA
ATOM     21  N   UNL     1       3.583  -2.064  -0.141  0.00  0.00    -0.209 N 
ATOM     22  H   UNL     1       3.575  -0.978   0.029  0.00  0.00    +0.177 HD
BRANCH  21  23
ATOM     23  N   UNL     1       2.381  -2.784  -0.133  0.00  0.00    -0.188 NA
ATOM     24  C   UNL     1       1.250  -2.155  -0.047  0.00  0.00    +0.141 C 
BRANCH  24  25
ATOM     25  C   UNL     1       1.163  -0.735  -0.434  0.00  0.00    +0.031 A 
ATOM     26  C   UNL     1       2.088  -0.195  -1.331  0.00  0.00    +0.027 A 
ATOM     27  C   UNL     1       2.001   1.134  -1.690  0.00  0.00    +0.019 A 
ATOM     28  C   UNL     1       1.001   1.934  -1.163  0.00  0.00    +0.018 A 
ATOM     29  C   UNL     1       0.081   1.408  -0.274  0.00  0.00    +0.040 A 
ATOM     30  C   UNL     1       0.155   0.078   0.094  0.00  0.00    +0.132 A 
ATOM     31  F   UNL     1      -0.743  -0.435   0.963  0.00  0.00    -0.205 F 
ATOM     32 BR   UNL     1       3.257   1.869  -2.898  0.00  0.00    -0.050 Br
ENDBRANCH  24  25
ENDBRANCH  21  23
ENDBRANCH  18  19
ENDBRANCH   4  18
TORSDOF 6
