REMARK  Name = ZINC22132674
REMARK  6 active torsions:
REMARK  status: ('A' for Active; 'I' for Inactive)
REMARK    1  A    between atoms: C_1  and  C_2
REMARK    2  A    between atoms: C_11  and  N_27
REMARK    3  A    between atoms: C_13  and  S_15
REMARK    4  A    between atoms: S_15  and  C_16
REMARK    5  A    between atoms: C_16  and  C_17
REMARK    6  A    between atoms: C_23  and  C_26
REMARK                            x       y       z     vdW  Elec       q    Type
REMARK                         _______ _______ _______ _____ _____    ______ ____
ROOT
ATOM      1  C   UNL     1       0.699   0.800  -1.861  0.00  0.00    +0.008 C 
ATOM      2  C   UNL     1       0.579  -0.662  -1.426  0.00  0.00    -0.009 C 
ATOM      3  C   UNL     1       1.180  -0.833  -0.027  0.00  0.00    +0.008 C 
ATOM      4  C   UNL     1       1.290  -2.320   0.311  0.00  0.00    +0.037 C 
ATOM      5  C   UNL     1      -0.071  -2.978   0.097  0.00  0.00    -0.025 A 
ATOM      6  C   UNL     1      -1.012  -2.378  -0.664  0.00  0.00    -0.004 A 
ATOM      7  S   UNL     1      -2.407  -3.477  -0.637  0.00  0.00    -0.073 S 
ATOM      8  C   UNL     1      -1.728  -4.739   0.391  0.00  0.00    +0.115 A 
ATOM      9  C   UNL     1      -0.426  -4.261   0.684  0.00  0.00    +0.051 A 
ATOM     10  C   UNL     1       0.391  -5.080   1.515  0.00  0.00    +0.129 A 
ATOM     11  N   UNL     1      -0.158  -6.218   1.932  0.00  0.00    -0.207 NA
ATOM     12  C   UNL     1      -1.386  -6.604   1.619  0.00  0.00    +0.191 A 
ATOM     13  N   UNL     1      -2.201  -5.882   0.846  0.00  0.00    -0.214 NA
ATOM     14  C   UNL     1      -0.901  -1.065  -1.377  0.00  0.00    +0.046 C 
ENDROOT
BRANCH  10  15
ATOM     15  N   UNL     1       1.678  -4.715   1.867  0.00  0.00    -0.343 N 
ATOM     16  H   UNL     1       2.280  -5.373   2.511  0.00  0.00    +0.144 HD
ATOM     17  H   UNL     1       2.099  -3.767   1.503  0.00  0.00    +0.144 HD
ENDBRANCH  10  15
BRANCH  12  18
ATOM     18  S   UNL     1      -1.971  -8.141   2.251  0.00  0.00    -0.077 S 
BRANCH  18  19
ATOM     19  C   UNL     1      -0.517  -8.668   3.192  0.00  0.00    +0.173 C 
BRANCH  19  20
ATOM     20  C   UNL     1      -0.794 -10.000   3.840  0.00  0.00    +0.226 C 
ATOM     21  O   UNL     1      -1.869 -10.540   3.682  0.00  0.00    -0.275 OA
ATOM     22  N   UNL     1       0.153 -10.591   4.596  0.00  0.00    -0.296 N 
ATOM     23  C   UNL     1       1.466  -9.959   4.796  0.00  0.00    +0.136 C 
ATOM     24  C   UNL     1       1.761  -9.935   6.305  0.00  0.00    +0.179 C 
ATOM     25  O   UNL     1       1.604 -11.254   6.834  0.00  0.00    -0.374 OA
ATOM     26  C   UNL     1       0.278 -11.776   6.721  0.00  0.00    +0.132 C 
ATOM     27  C   UNL     1      -0.094 -11.891   5.239  0.00  0.00    +0.139 C 
ATOM     28  C   UNL     1       0.215 -13.159   7.373  0.00  0.00    +0.039 C 
ENDBRANCH  19  20
ENDBRANCH  18  19
ENDBRANCH  12  18
TORSDOF 4
