REMARK  Name = ZINC16571079
REMARK  7 active torsions:
REMARK  status: ('A' for Active; 'I' for Inactive)
REMARK    1  A    between atoms: C_1  and  C_2
REMARK    2  A    between atoms: N_5  and  C_8
REMARK    3  A    between atoms: C_9  and  C_22
REMARK    4  A    between atoms: N_12  and  C_15
REMARK    5  A    between atoms: C_23  and  C_35
REMARK    6  A    between atoms: N_25  and  C_28
REMARK    7  A    between atoms: C_26  and  O_27
REMARK                            x       y       z     vdW  Elec       q    Type
REMARK                         _______ _______ _______ _____ _____    ______ ____
ROOT
ATOM      1  C   UNL     1       1.062  -0.119  -3.337  0.00  0.00    +0.122 C 
ATOM      2  C   UNL     1      -0.030  -0.388  -2.526  0.00  0.00    +0.080 C 
ATOM      3  C   UNL     1      -1.232  -0.138  -3.360  0.00  0.00    +0.261 C 
ATOM      4  O   UNL     1      -2.384  -0.260  -3.000  0.00  0.00    -0.269 OA
ATOM      5  N   UNL     1      -0.827   0.247  -4.583  0.00  0.00    -0.198 N 
ATOM      6  C   UNL     1       0.514   0.279  -4.647  0.00  0.00    +0.275 C 
ATOM      7  O   UNL     1       1.169   0.589  -5.623  0.00  0.00    -0.268 OA
ENDROOT
BRANCH   1  12
ATOM      8  C   UNL     1       6.484  -0.482  -1.923  0.00  0.00    +0.044 C 
ATOM      9  C   UNL     1       5.029  -0.385  -2.302  0.00  0.00    -0.048 A 
ATOM     10  C   UNL     1       4.491  -1.224  -3.268  0.00  0.00    +0.021 A 
ATOM     11  C   UNL     1       3.155  -1.110  -3.592  0.00  0.00    +0.091 A 
ATOM     12  N   UNL     1       2.387  -0.208  -2.992  0.00  0.00    -0.318 N 
ATOM     13  C   UNL     1       2.873   0.613  -2.068  0.00  0.00    +0.091 A 
ATOM     14  C   UNL     1       4.199   0.546  -1.694  0.00  0.00    +0.021 A 
ENDBRANCH   1  12
BRANCH   5  15
ATOM     15  C   UNL     1      -1.686   0.571  -5.643  0.00  0.00    +0.080 A 
ATOM     16  C   UNL     1      -2.122   1.878  -5.811  0.00  0.00    +0.027 A 
ATOM     17  C   UNL     1      -2.967   2.194  -6.857  0.00  0.00    +0.002 A 
ATOM     18  C   UNL     1      -3.380   1.211  -7.737  0.00  0.00    +0.003 A 
ATOM     19  C   UNL     1      -2.949  -0.092  -7.574  0.00  0.00    +0.040 A 
ATOM     20  C   UNL     1      -2.098  -0.415  -6.532  0.00  0.00    +0.145 A 
ATOM     21  F   UNL     1      -1.672  -1.688  -6.376  0.00  0.00    -0.204 F 
ENDBRANCH   5  15
BRANCH   2  22
ATOM     22  C   UNL     1      -0.003  -0.826  -1.123  0.00  0.00    +0.073 A 
ATOM     23  C   UNL     1       0.025  -2.162  -0.659  0.00  0.00    +0.072 A 
ATOM     24  N   UNL     1       0.037  -2.141   0.645  0.00  0.00    -0.168 NA
ATOM     25  N   UNL     1       0.023  -0.813   1.084  0.00  0.00    -0.200 N 
ATOM     26  C   UNL     1       0.002  -0.004   0.002  0.00  0.00    +0.224 A 
ATOM     27  C   UNL     1       0.035  -3.397  -1.522  0.00  0.00    +0.068 C 
BRANCH  25  28
ATOM     28  C   UNL     1       0.029  -0.392   2.421  0.00  0.00    +0.069 A 
ATOM     29  C   UNL     1       0.711   0.762   2.784  0.00  0.00    +0.029 A 
ATOM     30  C   UNL     1       0.712   1.177   4.101  0.00  0.00    +0.022 A 
ATOM     31  C   UNL     1       0.042   0.438   5.061  0.00  0.00    +0.041 A 
ATOM     32  C   UNL     1      -0.634  -0.715   4.703  0.00  0.00    +0.022 A 
ATOM     33  C   UNL     1      -0.641  -1.132   3.386  0.00  0.00    +0.029 A 
ATOM     34 CL   UNL     1       0.050   0.959   6.717  0.00  0.00    -0.084 Cl
ENDBRANCH  25  28
BRANCH  26  35
ATOM     35  O   UNL     1      -0.016   1.350   0.009  0.00  0.00    -0.492 OA
ATOM     36  H   UNL     1       0.862   1.755   0.003  0.00  0.00    +0.294 HD
ENDBRANCH  26  35
ENDBRANCH   2  22
TORSDOF 5
