REMARK  Name = ZINC14538858
REMARK  8 active torsions:
REMARK  status: ('A' for Active; 'I' for Inactive)
REMARK    1  A    between atoms: C_1  and  C_2
REMARK    2  A    between atoms: C_2  and  N_3
REMARK    3  A    between atoms: C_6  and  C_8
REMARK    4  A    between atoms: N_13  and  C_16
REMARK    5  A    between atoms: C_18  and  N_22
REMARK    6  A    between atoms: N_22  and  C_23
REMARK    7  A    between atoms: C_23  and  C_24
REMARK    8  A    between atoms: C_24  and  C_29
REMARK                            x       y       z     vdW  Elec       q    Type
REMARK                         _______ _______ _______ _____ _____    ______ ____
ROOT
ATOM      1  N   UNL     1      -1.298   0.239  -0.069  0.00  0.00    -0.268 N 
ATOM      2  C   UNL     1      -2.101  -0.188   0.920  0.00  0.00    +0.043 A 
ATOM      3  C   UNL     1      -3.326  -0.399   0.379  0.00  0.00    +0.004 A 
ATOM      4  C   UNL     1      -3.207  -0.077  -0.984  0.00  0.00    +0.151 A 
ATOM      5  N   UNL     1      -1.956   0.305  -1.175  0.00  0.00    -0.166 NA
ATOM      6  C   UNL     1      -4.527  -0.880   1.145  0.00  0.00    +0.023 C 
ATOM      7  C   UNL     1      -4.249  -0.694   2.643  0.00  0.00    -0.067 C 
ATOM      8  C   UNL     1      -2.879  -1.286   2.986  0.00  0.00    -0.009 C 
ATOM      9  C   UNL     1      -1.774  -0.416   2.373  0.00  0.00    +0.054 C 
ENDROOT
BRANCH   4  10
ATOM     10  C   UNL     1      -4.274  -0.146  -2.003  0.00  0.00    +0.267 C 
ATOM     11  O   UNL     1      -5.361  -0.608  -1.715  0.00  0.00    -0.268 OA
ATOM     12  N   UNL     1      -4.042   0.302  -3.252  0.00  0.00    -0.294 N 
ATOM     13  C   UNL     1      -5.120   0.343  -4.252  0.00  0.00    +0.123 C 
ATOM     14  C   UNL     1      -5.160   1.745  -4.869  0.00  0.00    +0.103 C 
ATOM     15  N   UNL     1      -3.826   2.090  -5.379  0.00  0.00    -0.302 NA
ATOM     16  C   UNL     1      -2.839   2.150  -4.293  0.00  0.00    +0.103 C 
ATOM     17  C   UNL     1      -2.706   0.770  -3.651  0.00  0.00    +0.123 C 
ATOM     18  C   UNL     1      -3.861   3.352  -6.130  0.00  0.00    +0.105 C 
ENDBRANCH   4  10
BRANCH   7  19
ATOM     19  N   UNL     1      -5.287  -1.381   3.423  0.00  0.00    +0.382 N 
ATOM     20  H   UNL     1      -6.196  -1.048   3.138  0.00  0.00    -0.085 HD
ATOM     21  H   UNL     1      -5.227  -2.375   3.262  0.00  0.00    -0.085 HD
BRANCH  19  22
ATOM     22  C   UNL     1      -5.090  -1.103   4.852  0.00  0.00    -0.071 C 
BRANCH  22  23
ATOM     23  C   UNL     1      -6.131  -1.871   5.669  0.00  0.00    -0.019 C 
ATOM     24  C   UNL     1      -5.979  -3.383   5.430  0.00  0.00    +0.010 C 
ATOM     25  C   UNL     1      -7.313  -3.870   4.827  0.00  0.00    +0.001 C 
ATOM     26  C   UNL     1      -7.928  -2.599   4.189  0.00  0.00    +0.001 C 
ATOM     27  C   UNL     1      -7.552  -1.491   5.203  0.00  0.00    +0.010 C 
BRANCH  23  28
ATOM     28  C   UNL     1      -5.968  -1.560   7.135  0.00  0.00    -0.043 A 
ATOM     29  C   UNL     1      -5.059  -0.601   7.541  0.00  0.00    +0.004 A 
ATOM     30  C   UNL     1      -4.910  -0.316   8.885  0.00  0.00    +0.000 A 
ATOM     31  C   UNL     1      -5.670  -0.990   9.823  0.00  0.00    +0.000 A 
ATOM     32  C   UNL     1      -6.580  -1.948   9.417  0.00  0.00    +0.000 A 
ATOM     33  C   UNL     1      -6.732  -2.229   8.072  0.00  0.00    +0.004 A 
ENDBRANCH  23  28
ENDBRANCH  22  23
ENDBRANCH  19  22
ENDBRANCH   7  19
BRANCH   1  35
ATOM     34  C   UNL     1       0.242   2.069   0.442  0.00  0.00    +0.029 C 
ATOM     35  C   UNL     1       0.117   0.586   0.089  0.00  0.00    +0.140 C 
ENDBRANCH   1  35
TORSDOF 6
