REMARK  Name = ZINC09577560
REMARK  4 active torsions:
REMARK  status: ('A' for Active; 'I' for Inactive)
REMARK    1  A    between atoms: C_1  and  C_2
REMARK    2  A    between atoms: C_4  and  N_25
REMARK    3  A    between atoms: C_5  and  C_18
REMARK    4  A    between atoms: C_9  and  C_11
REMARK                            x       y       z     vdW  Elec       q    Type
REMARK                         _______ _______ _______ _____ _____    ______ ____
ROOT
ATOM      1  C   UNL     1       0.700   2.563  -0.061  0.00  0.00    +0.066 C 
ATOM      2  C   UNL     1      -0.074   2.907   1.185  0.00  0.00    +0.052 A 
ATOM      3  C   UNL     1       0.304   2.358   2.434  0.00  0.00    +0.050 A 
ATOM      4  C   UNL     1       1.392   1.449   2.749  0.00  0.00    +0.055 A 
ATOM      5  C   UNL     1       1.555   1.053   4.060  0.00  0.00    +0.097 A 
ATOM      6  S   UNL     1       0.239   1.899   4.914  0.00  0.00    -0.062 S 
ATOM      7  C   UNL     1      -0.492   2.748   3.540  0.00  0.00    +0.115 A 
ATOM      8  N   UNL     1      -1.510   3.568   3.395  0.00  0.00    -0.220 NA
ATOM      9  C   UNL     1      -1.814   4.050   2.196  0.00  0.00    +0.161 A 
ATOM     10  N   UNL     1      -1.101   3.723   1.122  0.00  0.00    -0.232 NA
ENDROOT
BRANCH   9  11
ATOM     11  C   UNL     1      -2.964   4.973   2.053  0.00  0.00    +0.019 A 
ATOM     12  C   UNL     1      -3.292   5.493   0.802  0.00  0.00    +0.013 A 
ATOM     13  C   UNL     1      -4.368   6.347   0.673  0.00  0.00    +0.021 A 
ATOM     14  C   UNL     1      -5.114   6.698   1.786  0.00  0.00    +0.041 A 
ATOM     15  C   UNL     1      -4.789   6.189   3.032  0.00  0.00    +0.021 A 
ATOM     16  C   UNL     1      -3.719   5.330   3.171  0.00  0.00    +0.013 A 
ATOM     17 CL   UNL     1      -6.462   7.779   1.618  0.00  0.00    -0.084 Cl
ENDBRANCH   9  11
BRANCH   5  18
ATOM     18  C   UNL     1       2.534   0.182   4.599  0.00  0.00    +0.255 C 
ATOM     19  O   UNL     1       3.372  -0.318   3.870  0.00  0.00    -0.269 OA
ATOM     20  N   UNL     1       2.539  -0.093   5.918  0.00  0.00    -0.297 N 
ATOM     21  C   UNL     1       1.595   0.445   6.909  0.00  0.00    +0.108 C 
ATOM     22  C   UNL     1       2.000  -0.124   8.285  0.00  0.00    +0.020 C 
ATOM     23  C   UNL     1       3.494  -0.492   8.080  0.00  0.00    +0.020 C 
ATOM     24  C   UNL     1       3.495  -0.977   6.609  0.00  0.00    +0.108 C 
ENDBRANCH   5  18
BRANCH   4  25
ATOM     25  N   UNL     1       2.246   0.990   1.757  0.00  0.00    -0.356 N 
ATOM     26  H   UNL     1       1.930   0.910   0.844  0.00  0.00    +0.142 HD
ATOM     27  H   UNL     1       3.160   0.749   1.976  0.00  0.00    +0.142 HD
ENDBRANCH   4  25
TORSDOF 3
