REMARK  Name = ZINC37263621
REMARK  18 active torsions:
REMARK  status: ('A' for Active; 'I' for Inactive)
REMARK    1  A    between atoms: C_1  and  S_2
REMARK    2  A    between atoms: S_2  and  C_3
REMARK    3  A    between atoms: C_3  and  N_5
REMARK    4  A    between atoms: N_5  and  N_6
REMARK    5  A    between atoms: N_6  and  C_7
REMARK    6  A    between atoms: C_7  and  C_8
REMARK    7  A    between atoms: C_8  and  C_15
REMARK    8  A    between atoms: N_9  and  N_10
REMARK    9  A    between atoms: N_10  and  C_11
REMARK   10  A    between atoms: C_11  and  S_13
REMARK   11  A    between atoms: S_13  and  C_14
REMARK   12  A    between atoms: C_15  and  C_17
REMARK   13  A    between atoms: C_15  and  O_25
REMARK   14  A    between atoms: C_17  and  C_19
REMARK   15  A    between atoms: C_17  and  O_24
REMARK   16  A    between atoms: C_19  and  C_21
REMARK   17  A    between atoms: C_19  and  O_23
REMARK   18  A    between atoms: C_21  and  O_22
REMARK                            x       y       z     vdW  Elec       q    Type
REMARK                         _______ _______ _______ _____ _____    ______ ____
ROOT
ATOM      1  C   UNL     1      -0.607  -5.104  -0.020  0.00  0.00    +0.083 C 
ATOM      2  N   UNL     1       0.622  -4.745  -0.029  0.00  0.00    -0.186 NA
ENDROOT
BRANCH   2   3
ATOM      3  N   UNL     1       1.635  -5.713  -0.044  0.00  0.00    -0.225 N 
ATOM      4  H   UNL     1       1.405  -6.655  -0.047  0.00  0.00    +0.176 HD
BRANCH   3   5
ATOM      5  C   UNL     1       2.929  -5.334  -0.054  0.00  0.00    +0.126 C 
ATOM      6  S   UNL     1       4.166  -6.517  -0.073  0.00  0.00    -0.027 S 
BRANCH   5   7
ATOM      7  S   UNL     1       3.346  -3.622  -0.049  0.00  0.00    -0.105 S 
ATOM      8  C   UNL     1       5.160  -3.612  -0.067  0.00  0.00    +0.092 C 
ENDBRANCH   5   7
ENDBRANCH   3   5
ENDBRANCH   2   3
BRANCH   1   9
ATOM      9  C   UNL     1      -0.963  -6.568  -0.024  0.00  0.00    +0.192 C 
BRANCH   9  10
ATOM     10  O   UNL     1      -2.156  -6.766  -0.786  0.00  0.00    -0.383 OA
ATOM     11  H   UNL     1      -2.083  -6.487  -1.710  0.00  0.00    +0.210 HD
ENDBRANCH   9  10
BRANCH   9  12
ATOM     12  C   UNL     1      -1.192  -7.042   1.413  0.00  0.00    +0.179 C 
BRANCH  12  13
ATOM     13  O   UNL     1      -2.180  -6.217   2.034  0.00  0.00    -0.386 OA
ATOM     14  H   UNL     1      -3.038  -6.228   1.590  0.00  0.00    +0.210 HD
ENDBRANCH  12  13
BRANCH  12  15
ATOM     15  C   UNL     1      -1.675  -8.494   1.400  0.00  0.00    +0.171 C 
BRANCH  15  16
ATOM     16  O   UNL     1      -2.835  -8.603   0.573  0.00  0.00    -0.387 OA
ATOM     17  H   UNL     1      -3.579  -8.057   0.863  0.00  0.00    +0.210 HD
ENDBRANCH  15  16
BRANCH  15  18
ATOM     18  C   UNL     1      -2.023  -8.928   2.826  0.00  0.00    +0.189 C 
BRANCH  18  19
ATOM     19  O   UNL     1      -2.363 -10.316   2.832  0.00  0.00    -0.392 OA
ATOM     20  H   UNL     1      -2.595 -10.660   3.705  0.00  0.00    +0.210 HD
ENDBRANCH  18  19
ENDBRANCH  15  18
ENDBRANCH  12  15
ENDBRANCH   9  12
ENDBRANCH   1   9
BRANCH   1  21
ATOM     21  C   UNL     1      -1.696  -4.063  -0.004  0.00  0.00    +0.157 C 
BRANCH  21  22
ATOM     22  N   UNL     1      -1.093  -2.724  -0.002  0.00  0.00    -0.236 NA
ATOM     23  H   UNL     1      -0.473  -2.606  -0.789  0.00  0.00    +0.145 HD
BRANCH  22  24
ATOM     24  N   UNL     1      -2.055  -1.754   0.012  0.00  0.00    -0.268 N 
ATOM     25  H   UNL     1      -2.993  -2.002   0.020  0.00  0.00    +0.167 HD
BRANCH  24  26
ATOM     26  C   UNL     1      -1.702  -0.454   0.016  0.00  0.00    +0.120 C 
ATOM     27  S   UNL     1      -2.907   0.762   0.034  0.00  0.00    -0.027 S 
BRANCH  26  29
ATOM     28  C   UNL     1      -0.022   1.810   0.012  0.00  0.00    +0.092 C 
ATOM     29  S   UNL     1       0.002  -0.004   0.002  0.00  0.00    -0.105 S 
ENDBRANCH  26  29
ENDBRANCH  24  26
ENDBRANCH  22  24
ENDBRANCH  21  22
ENDBRANCH   1  21
TORSDOF 16
