REMARK  Name = ZINC63698165
REMARK  5 active torsions:
REMARK  status: ('A' for Active; 'I' for Inactive)
REMARK    1  A    between atoms: C_6  and  C_10
REMARK    2  A    between atoms: C_12  and  C_25
REMARK    3  A    between atoms: C_17  and  O_24
REMARK    4  A    between atoms: C_25  and  C_26
REMARK    5  A    between atoms: C_26  and  C_27
REMARK                            x       y       z     vdW  Elec       q    Type
REMARK                         _______ _______ _______ _____ _____    ______ ____
ROOT
ATOM      1  C   UNL     1       3.542  -2.787  -1.302  0.00  0.00    +0.143 C 
ATOM      2  C   UNL     1       5.076  -2.833  -1.338  0.00  0.00    +0.188 C 
ATOM      3  O   UNL     1       5.554  -3.543  -0.196  0.00  0.00    -0.487 OA
ATOM      4  C   UNL     1       5.058  -4.776   0.057  0.00  0.00    +0.135 A 
ATOM      5  C   UNL     1       5.782  -5.670   0.831  0.00  0.00    +0.093 A 
ATOM      6  C   UNL     1       5.268  -6.931   1.094  0.00  0.00    +0.139 A 
ATOM      7  C   UNL     1       4.027  -7.311   0.587  0.00  0.00    +0.083 A 
ATOM      8  C   UNL     1       3.301  -6.442  -0.179  0.00  0.00    +0.038 A 
ATOM      9  C   UNL     1       3.808  -5.169  -0.454  0.00  0.00    +0.061 A 
ATOM     10  C   UNL     1       3.048  -4.222  -1.288  0.00  0.00    +0.177 C 
ATOM     11  O   UNL     1       2.079  -4.570  -1.929  0.00  0.00    -0.291 OA
ATOM     12 CL   UNL     1       3.400  -8.893   0.930  0.00  0.00    -0.080 Cl
ENDROOT
BRANCH   1  18
ATOM     13  C   UNL     1      -0.016   1.344   0.009  0.00  0.00    +0.002 A 
ATOM     14  C   UNL     1       1.158   2.118   0.002  0.00  0.00    +0.002 A 
ATOM     15  C   UNL     1       2.389   1.570  -0.013  0.00  0.00    +0.027 A 
ATOM     16  C   UNL     1       2.533   0.108  -0.022  0.00  0.00    +0.060 A 
ATOM     17  N   UNL     1       3.569  -0.680  -0.036  0.00  0.00    -0.363 N 
ATOM     18  C   UNL     1       3.071  -2.062  -0.039  0.00  0.00    +0.188 C 
ATOM     19  N   UNL     1       1.606  -1.974  -0.024  0.00  0.00    -0.363 N 
ATOM     20  C   UNL     1       1.290  -0.712  -0.014  0.00  0.00    +0.060 A 
ATOM     21  C   UNL     1       0.002  -0.004   0.002  0.00  0.00    +0.027 A 
ATOM     22  H   UNL     1       4.499  -0.405  -0.045  0.00  0.00    +0.162 HD
ATOM     23  H   UNL     1       0.987  -2.721  -0.022  0.00  0.00    +0.162 HD
ENDBRANCH   1  18
BRANCH   6  24
ATOM     24  O   UNL     1       5.981  -7.802   1.851  0.00  0.00    -0.505 OA
ATOM     25  H   UNL     1       5.795  -7.744   2.798  0.00  0.00    +0.292 HD
ENDBRANCH   6  24
BRANCH   2  26
ATOM     26  C   UNL     1       5.536  -3.544  -2.612  0.00  0.00    +0.056 C 
BRANCH  26  27
ATOM     27  C   UNL     1       7.061  -3.480  -2.709  0.00  0.00    +0.129 C 
BRANCH  27  28
ATOM     28  C   UNL     1       7.514  -4.181  -3.964  0.00  0.00    +0.356 C 
ATOM     29  O   UNL     1       6.693  -4.685  -4.711  0.00  0.00    -0.246 OA
ATOM     30  O   UNL     1       8.702  -4.245  -4.233  0.00  0.00    -0.246 OA
ENDBRANCH  27  28
ENDBRANCH  26  27
ENDBRANCH   2  26
TORSDOF 5
