REMARK  Name = ZINC02782059
REMARK  11 active torsions:
REMARK  status: ('A' for Active; 'I' for Inactive)
REMARK    1  A    between atoms: C_1  and  C_2
REMARK    2  A    between atoms: C_4  and  C_26
REMARK    3  A    between atoms: N_5  and  C_7
REMARK    4  A    between atoms: C_7  and  C_8
REMARK    5  A    between atoms: C_8  and  C_9
REMARK    6  A    between atoms: C_9  and  N_10
REMARK    7  A    between atoms: C_11  and  C_13
REMARK    8  A    between atoms: C_13  and  C_15
REMARK    9  A    between atoms: C_13  and  N_16
REMARK   10  A    between atoms: C_17  and  C_25
REMARK   11  A    between atoms: C_19  and  C_21
REMARK                            x       y       z     vdW  Elec       q    Type
REMARK                         _______ _______ _______ _____ _____    ______ ____
ROOT
ATOM      1  N   UNL     1       3.144  -3.228  -1.490  0.00  0.00    -0.314 N 
ATOM      2  C   UNL     1       2.597  -2.017  -1.265  0.00  0.00    +0.237 C 
ATOM      3  O   UNL     1       2.767  -1.117  -2.059  0.00  0.00    -0.273 OA
ATOM      4  H   UNL     1       3.008  -3.948  -0.855  0.00  0.00    +0.149 HD
ENDROOT
BRANCH   2   5
ATOM      5  C   UNL     1       1.773  -1.782  -0.025  0.00  0.00    +0.190 C 
ATOM      6  C   UNL     1       2.633  -2.036   1.215  0.00  0.00    +0.042 C 
BRANCH   5   7
ATOM      7  N   UNL     1       1.294  -0.398  -0.012  0.00  0.00    -0.255 N 
ATOM      8  C   UNL     1       0.002  -0.004   0.002  0.00  0.00    +0.056 A 
ATOM      9  C   UNL     1      -0.016   1.349   0.009  0.00  0.00    +0.090 A 
ATOM     10  C   UNL     1       1.309   1.798  -0.001  0.00  0.00    +0.147 A 
ATOM     11  N   UNL     1       2.095   0.751  -0.014  0.00  0.00    -0.168 NA
ATOM     12 CL   UNL     1      -1.434   2.352   0.022  0.00  0.00    -0.080 Cl
ATOM     13  C   UNL     1      -1.203  -0.909   0.008  0.00  0.00    +0.067 C 
BRANCH  10  14
ATOM     14  C   UNL     1       1.755   3.237   0.003  0.00  0.00    +0.393 C 
ATOM     15  F   UNL     1       1.252   3.885  -1.131  0.00  0.00    -0.202 F 
ATOM     16  F   UNL     1       1.274   3.871   1.154  0.00  0.00    -0.202 F 
ENDBRANCH  10  14
ENDBRANCH   5   7
ENDBRANCH   2   5
BRANCH   1  17
ATOM     17  C   UNL     1       3.946  -3.456  -2.696  0.00  0.00    +0.106 C 
BRANCH  17  18
ATOM     18  C   UNL     1       4.446  -4.902  -2.709  0.00  0.00    +0.042 C 
BRANCH  18  19
ATOM     19  C   UNL     1       5.282  -5.141  -3.967  0.00  0.00    +0.145 C 
BRANCH  19  24
ATOM     20  C   UNL     1       8.174  -9.173  -3.209  0.00  0.00    +0.068 C 
ATOM     21  C   UNL     1       7.042  -8.276  -3.638  0.00  0.00    +0.074 A 
ATOM     22  C   UNL     1       5.893  -8.677  -4.328  0.00  0.00    +0.061 A 
ATOM     23  C   UNL     1       5.122  -7.582  -4.527  0.00  0.00    +0.050 A 
ATOM     24  N   UNL     1       5.761  -6.525  -3.980  0.00  0.00    -0.267 N 
ATOM     25  N   UNL     1       6.966  -6.986  -3.433  0.00  0.00    -0.175 NA
ATOM     26  C   UNL     1       3.791  -7.548  -5.231  0.00  0.00    +0.066 C 
ATOM     27 BR   UNL     1       5.488 -10.438  -4.886  0.00  0.00    -0.047 Br
ENDBRANCH  19  24
ENDBRANCH  18  19
ENDBRANCH  17  18
ENDBRANCH   1  17
TORSDOF 7
