REMARK  Name = ZINC64623264
REMARK  5 active torsions:
REMARK  status: ('A' for Active; 'I' for Inactive)
REMARK    1  A    between atoms: C_1  and  C_2
REMARK    2  A    between atoms: C_5  and  C_8
REMARK    3  A    between atoms: C_15  and  O_20
REMARK    4  A    between atoms: O_20  and  C_21
REMARK    5  A    between atoms: N_27  and  C_28
REMARK                            x       y       z     vdW  Elec       q    Type
REMARK                         _______ _______ _______ _____ _____    ______ ____
ROOT
ATOM      1  C   UNL     1      -0.500  -4.596   0.771  0.00  0.00    +0.134 C 
ATOM      2  C   UNL     1      -1.597  -5.485   1.367  0.00  0.00    +0.131 C 
ATOM      3  C   UNL     1      -1.082  -6.917   1.297  0.00  0.00    -0.035 C 
ATOM      4  C   UNL     1      -1.991  -7.610   0.622  0.00  0.00    +0.003 A 
ATOM      5  C   UNL     1      -2.090  -9.040   0.291  0.00  0.00    +0.055 A 
ATOM      6  C   UNL     1      -3.171  -9.424  -0.442  0.00  0.00    +0.121 A 
ATOM      7  C   UNL     1      -4.170  -8.544  -0.885  0.00  0.00    +0.047 A 
ATOM      8  C   UNL     1      -4.180  -7.210  -0.634  0.00  0.00    +0.029 A 
ATOM      9  C   UNL     1      -3.062  -6.676   0.156  0.00  0.00    +0.043 A 
ATOM     10  N   UNL     1      -2.824  -5.445   0.569  0.00  0.00    -0.375 N 
ATOM     11  C   UNL     1       0.259  -7.324   1.856  0.00  0.00    +0.052 C 
ATOM     12  C   UNL     1       1.294  -6.336   1.288  0.00  0.00    +0.114 C 
ATOM     13  N   UNL     1       0.776  -4.969   1.400  0.00  0.00    -0.276 N 
ATOM     14  C   UNL     1       1.476  -4.045   2.088  0.00  0.00    +0.307 C 
ATOM     15  O   UNL     1       0.982  -2.959   2.323  0.00  0.00    -0.252 OA
ATOM     16  N   UNL     1       2.723  -4.324   2.516  0.00  0.00    -0.269 N 
ATOM     17  H   UNL     1       3.153  -5.152   2.249  0.00  0.00    +0.156 HD
ATOM     18  H   UNL     1      -3.353  -4.654   0.381  0.00  0.00    +0.160 HD
ENDROOT
BRANCH  16  19
ATOM     19  C   UNL     1       3.398  -3.419   3.345  0.00  0.00    +0.038 A 
ATOM     20  C   UNL     1       3.141  -2.059   3.244  0.00  0.00    +0.027 A 
ATOM     21  C   UNL     1       3.808  -1.166   4.061  0.00  0.00    +0.051 A 
ATOM     22  C   UNL     1       4.734  -1.626   4.985  0.00  0.00    +0.162 A 
ATOM     23  C   UNL     1       4.992  -2.987   5.091  0.00  0.00    +0.164 A 
ATOM     24  C   UNL     1       4.320  -3.883   4.273  0.00  0.00    +0.072 A 
ATOM     25  O   UNL     1       5.892  -3.458   5.997  0.00  0.00    -0.485 OA
ATOM     26  C   UNL     1       6.813  -2.507   6.543  0.00  0.00    +0.270 C 
ATOM     27  C   UNL     1       6.026  -1.254   6.948  0.00  0.00    +0.270 C 
ATOM     28  O   UNL     1       5.385  -0.730   5.779  0.00  0.00    -0.485 OA
ENDBRANCH  16  19
BRANCH   1  33
ATOM     29  C   UNL     1      -1.670   0.956   1.863  0.00  0.00    +0.044 C 
ATOM     30  C   UNL     1      -1.365  -0.492   1.578  0.00  0.00    -0.050 A 
ATOM     31  C   UNL     1      -1.653  -1.458   2.524  0.00  0.00    +0.004 A 
ATOM     32  C   UNL     1      -1.373  -2.786   2.263  0.00  0.00    +0.006 A 
ATOM     33  C   UNL     1      -0.806  -3.148   1.055  0.00  0.00    -0.025 A 
ATOM     34  C   UNL     1      -0.519  -2.182   0.109  0.00  0.00    +0.006 A 
ATOM     35  C   UNL     1      -0.803  -0.855   0.369  0.00  0.00    +0.004 A 
ENDBRANCH   1  33
BRANCH   6  36
ATOM     36  O   UNL     1      -3.290 -10.739  -0.764  0.00  0.00    -0.495 OA
ATOM     37  C   UNL     1      -4.433 -11.118  -1.534  0.00  0.00    +0.277 C 
ENDBRANCH   6  36
TORSDOF 3
