REMARK  Name = ZINC01749393
REMARK  6 active torsions:
REMARK  status: ('A' for Active; 'I' for Inactive)
REMARK    1  A    between atoms: C_4  and  C_7
REMARK    2  A    between atoms: C_7  and  O_8
REMARK    3  A    between atoms: O_8  and  C_9
REMARK    4  A    between atoms: C_12  and  C_16
REMARK    5  A    between atoms: N_18  and  C_19
REMARK    6  A    between atoms: C_24  and  N_25
REMARK                            x       y       z     vdW  Elec       q    Type
REMARK                         _______ _______ _______ _____ _____    ______ ____
ROOT
ATOM      1  C   UNL     1      -4.630   8.805  -3.490  0.00  0.00    +0.149 A 
ATOM      2  C   UNL     1      -3.397   8.361  -3.955  0.00  0.00    +0.061 A 
ATOM      3  C   UNL     1      -2.843   7.205  -3.448  0.00  0.00    +0.032 A 
ATOM      4  C   UNL     1      -3.522   6.480  -2.465  0.00  0.00    +0.039 A 
ATOM      5  C   UNL     1      -4.763   6.926  -2.005  0.00  0.00    +0.032 A 
ATOM      6  C   UNL     1      -5.308   8.085  -2.513  0.00  0.00    +0.061 A 
ATOM      7 BR   UNL     1      -6.984   8.695  -1.884  0.00  0.00    -0.046 Br
ATOM      8 BR   UNL     1      -2.479   9.344  -5.284  0.00  0.00    -0.046 Br
ENDROOT
BRANCH   4   9
ATOM      9  C   UNL     1      -2.932   5.242  -1.920  0.00  0.00    +0.248 C 
ATOM     10  O   UNL     1      -1.853   4.852  -2.325  0.00  0.00    -0.270 OA
ATOM     11  N   UNL     1      -3.588   4.543  -0.972  0.00  0.00    -0.276 N 
ATOM     12  H   UNL     1      -4.481   4.810  -0.704  0.00  0.00    +0.155 HD
BRANCH  11  13
ATOM     13  C   UNL     1      -2.979   3.429  -0.374  0.00  0.00    +0.114 A 
ATOM     14  C   UNL     1      -2.299   3.548   0.840  0.00  0.00    +0.143 A 
ATOM     15  N   UNL     1      -1.732   2.467   1.370  0.00  0.00    -0.219 NA
ATOM     16  C   UNL     1      -1.810   1.297   0.769  0.00  0.00    +0.225 A 
ATOM     17  N   UNL     1      -2.446   1.140  -0.374  0.00  0.00    -0.219 NA
ATOM     18  C   UNL     1      -3.042   2.169  -0.973  0.00  0.00    +0.143 A 
ATOM     19  N   UNL     1      -2.211   4.777   1.481  0.00  0.00    -0.342 N 
ATOM     20  H   UNL     1      -2.694   5.542   1.131  0.00  0.00    +0.144 HD
ATOM     21  H   UNL     1      -1.667   4.870   2.278  0.00  0.00    +0.144 HD
BRANCH  18  22
ATOM     22  N   UNL     1      -3.710   1.993  -2.178  0.00  0.00    -0.342 N 
ATOM     23  H   UNL     1      -3.745   1.116  -2.589  0.00  0.00    +0.144 HD
ATOM     24  H   UNL     1      -4.144   2.748  -2.606  0.00  0.00    +0.144 HD
ENDBRANCH  18  22
ENDBRANCH  11  13
ENDBRANCH   4   9
BRANCH   1  25
ATOM     25  O   UNL     1      -5.173   9.943  -3.992  0.00  0.00    -0.485 OA
BRANCH  25  26
ATOM     26  C   UNL     1      -6.017   9.809  -5.137  0.00  0.00    +0.264 C 
BRANCH  26  30
ATOM     27  C   UNL     1      -7.453  13.659  -6.305  0.00  0.00    +0.000 A 
ATOM     28  C   UNL     1      -6.271  13.173  -6.832  0.00  0.00    +0.000 A 
ATOM     29  C   UNL     1      -5.806  11.928  -6.454  0.00  0.00    +0.007 A 
ATOM     30  C   UNL     1      -6.523  11.168  -5.549  0.00  0.00    -0.010 A 
ATOM     31  C   UNL     1      -7.708  11.651  -5.026  0.00  0.00    +0.007 A 
ATOM     32  C   UNL     1      -8.170  12.899  -5.400  0.00  0.00    +0.000 A 
ENDBRANCH  26  30
ENDBRANCH  25  26
ENDBRANCH   1  25
TORSDOF 6
