REMARK  Name = ZINC09692456
REMARK  8 active torsions:
REMARK  status: ('A' for Active; 'I' for Inactive)
REMARK    1  A    between atoms: C_1  and  C_2
REMARK    2  A    between atoms: C_6  and  N_9
REMARK    3  A    between atoms: C_7  and  C_8
REMARK    4  A    between atoms: C_15  and  C_17
REMARK    5  A    between atoms: C_20  and  C_23
REMARK    6  A    between atoms: C_23  and  N_24
REMARK    7  A    between atoms: N_24  and  S_25
REMARK    8  A    between atoms: S_25  and  C_28
REMARK                            x       y       z     vdW  Elec       q    Type
REMARK                         _______ _______ _______ _____ _____    ______ ____
ROOT
ATOM      1  C   UNL     1      -1.325   1.896   0.027  0.00  0.00    +0.037 A 
ATOM      2  C   UNL     1      -1.392   3.284  -0.097  0.00  0.00    +0.013 A 
ATOM      3  C   UNL     1      -2.618   3.917  -0.083  0.00  0.00    +0.006 A 
ATOM      4  C   UNL     1      -3.779   3.178   0.064  0.00  0.00    -0.032 A 
ATOM      5  C   UNL     1      -3.719   1.802   0.193  0.00  0.00    +0.006 A 
ATOM      6  C   UNL     1      -2.499   1.157   0.175  0.00  0.00    +0.013 A 
ENDROOT
BRANCH   1  13
ATOM      7  N   UNL     1       2.585   1.947   3.059  0.00  0.00    -0.327 N 
ATOM      8  C   UNL     1       2.626   0.680   2.316  0.00  0.00    +0.124 C 
ATOM      9  C   UNL     1       2.275   0.942   0.847  0.00  0.00    +0.127 C 
ATOM     10  N   UNL     1       0.988   1.653   0.794  0.00  0.00    -0.295 N 
ATOM     11  C   UNL     1       0.826   2.861   1.617  0.00  0.00    +0.127 C 
ATOM     12  C   UNL     1       1.232   2.521   3.059  0.00  0.00    +0.124 C 
ATOM     13  C   UNL     1      -0.014   1.211   0.009  0.00  0.00    +0.247 C 
ATOM     14  O   UNL     1       0.161   0.253  -0.719  0.00  0.00    -0.270 OA
BRANCH   7  20
ATOM     15  C   UNL     1       5.825   3.106   6.568  0.00  0.00    +0.044 C 
ATOM     16  C   UNL     1       4.626   2.326   6.091  0.00  0.00    -0.046 A 
ATOM     17  C   UNL     1       3.993   1.442   6.945  0.00  0.00    +0.004 A 
ATOM     18  C   UNL     1       2.893   0.725   6.511  0.00  0.00    +0.002 A 
ATOM     19  C   UNL     1       2.423   0.890   5.223  0.00  0.00    +0.023 A 
ATOM     20  C   UNL     1       3.057   1.778   4.362  0.00  0.00    +0.033 A 
ATOM     21  C   UNL     1       4.165   2.492   4.800  0.00  0.00    -0.027 A 
ATOM     22  C   UNL     1       4.860   3.451   3.868  0.00  0.00    +0.046 C 
ENDBRANCH   7  20
ENDBRANCH   1  13
BRANCH   4  23
ATOM     23  C   UNL     1      -5.114   3.876   0.083  0.00  0.00    +0.141 C 
BRANCH  23  24
ATOM     24  N   UNL     1      -5.458   4.235   1.462  0.00  0.00    -0.186 NA
ATOM     25  H   UNL     1      -4.976   3.833   2.202  0.00  0.00    +0.148 HD
BRANCH  24  26
ATOM     26  S   UNL     1      -6.669   5.325   1.756  0.00  0.00    +0.061 S 
ATOM     27  O   UNL     1      -6.778   5.439   3.168  0.00  0.00    -0.153 OA
ATOM     28  O   UNL     1      -6.420   6.445   0.918  0.00  0.00    -0.153 OA
BRANCH  26  29
ATOM     29  C   UNL     1      -8.172   4.598   1.192  0.00  0.00    +0.133 A 
ATOM     30  C   UNL     1      -9.151   4.295   2.078  0.00  0.00    +0.031 A 
ATOM     31  C   UNL     1     -10.354   3.720   1.667  0.00  0.00    +0.004 A 
ATOM     32  C   UNL     1     -10.596   3.439   0.365  0.00  0.00    +0.031 A 
ATOM     33  C   UNL     1      -9.615   3.729  -0.619  0.00  0.00    +0.102 A 
ATOM     34  C   UNL     1      -8.359   4.337  -0.190  0.00  0.00    +0.126 A 
ATOM     35  N   UNL     1      -7.537   4.561  -1.213  0.00  0.00    -0.189 NA
ATOM     36  S   UNL     1      -8.289   4.067  -2.496  0.00  0.00    +0.117 S 
ATOM     37  N   UNL     1      -9.652   3.535  -1.936  0.00  0.00    -0.191 NA
ENDBRANCH  26  29
ENDBRANCH  24  26
ENDBRANCH  23  24
ENDBRANCH   4  23
TORSDOF 6
