REMARK  Name = ZINC65576252
REMARK  9 active torsions:
REMARK  status: ('A' for Active; 'I' for Inactive)
REMARK    1  A    between atoms: C_1  and  C_2
REMARK    2  A    between atoms: C_3  and  C_13
REMARK    3  A    between atoms: C_10  and  C_12
REMARK    4  A    between atoms: C_13  and  C_14
REMARK    5  A    between atoms: C_14  and  C_15
REMARK    6  A    between atoms: C_20  and  C_23
REMARK    7  A    between atoms: C_26  and  C_28
REMARK    8  A    between atoms: C_28  and  N_29
REMARK    9  A    between atoms: C_30  and  C_32
REMARK                            x       y       z     vdW  Elec       q    Type
REMARK                         _______ _______ _______ _____ _____    ______ ____
ROOT
ATOM      1  C   UNL     1      -4.212   1.097   1.467  0.00  0.00    +0.219 C 
ATOM      2  O   UNL     1      -4.792   1.317   0.425  0.00  0.00    -0.275 OA
ATOM      3  N   UNL     1      -4.746   1.506   2.635  0.00  0.00    -0.265 N 
ATOM      4  C   UNL     1      -5.961   2.180   2.646  0.00  0.00    +0.165 A 
ATOM      5  N   UNL     1      -6.639   2.661   3.671  0.00  0.00    -0.224 NA
ATOM      6  C   UNL     1      -7.801   3.286   3.495  0.00  0.00    +0.087 A 
ATOM      7  C   UNL     1      -8.297   3.430   2.228  0.00  0.00    +0.077 A 
ATOM      8  S   UNL     1      -7.014   2.631   1.274  0.00  0.00    -0.060 S 
ATOM      9  H   UNL     1      -4.282   1.329   3.469  0.00  0.00    +0.157 HD
ENDROOT
BRANCH   6  10
ATOM     10  C   UNL     1      -8.546   3.818   4.656  0.00  0.00    +0.038 A 
ATOM     11  C   UNL     1      -8.217   3.778   5.984  0.00  0.00    +0.018 A 
ATOM     12  C   UNL     1      -9.079   4.348   6.898  0.00  0.00    +0.013 A 
ATOM     13  C   UNL     1     -10.223   4.928   6.454  0.00  0.00    +0.007 A 
ATOM     14  S   UNL     1     -10.107   4.685   4.690  0.00  0.00    -0.090 S 
BRANCH  13  15
ATOM     15  C   UNL     1     -11.310   5.607   7.247  0.00  0.00    +0.146 C 
BRANCH  15  16
ATOM     16  N   UNL     1     -11.001   7.033   7.377  0.00  0.00    -0.311 N 
ATOM     17  C   UNL     1     -11.839   7.846   8.052  0.00  0.00    +0.210 C 
ATOM     18  O   UNL     1     -12.848   7.396   8.551  0.00  0.00    -0.276 OA
ATOM     19  C   UNL     1     -11.521   9.313   8.185  0.00  0.00    +0.109 C 
ATOM     20  H   UNL     1     -10.194   7.393   6.977  0.00  0.00    +0.149 HD
ENDBRANCH  15  16
ENDBRANCH  13  15
ENDBRANCH   6  10
BRANCH   1  21
ATOM     21  C   UNL     1      -2.894   0.366   1.456  0.00  0.00    +0.101 C 
BRANCH  21  22
ATOM     22  C   UNL     1      -2.516   0.018   0.015  0.00  0.00    +0.051 C 
BRANCH  22  25
ATOM     23  C   UNL     1      -0.018   1.503   0.010  0.00  0.00    +0.066 C 
ATOM     24  C   UNL     1       0.002  -0.004   0.002  0.00  0.00    +0.050 A 
ATOM     25  C   UNL     1      -1.198  -0.713   0.004  0.00  0.00    +0.040 A 
ATOM     26  C   UNL     1      -1.165  -2.081  -0.004  0.00  0.00    +0.279 A 
ATOM     27  O   UNL     1      -2.312  -2.797  -0.003  0.00  0.00    -0.265 OA
ATOM     28  N   UNL     1       0.044  -2.710  -0.014  0.00  0.00    -0.159 N 
ATOM     29  C   UNL     1       1.199  -1.980  -0.015  0.00  0.00    +0.256 A 
ATOM     30  N   UNL     1       1.153  -0.642  -0.012  0.00  0.00    -0.215 NA
ATOM     31  N   UNL     1       2.209  -2.842  -0.025  0.00  0.00    -0.194 NA
ATOM     32  C   UNL     1       1.739  -4.083  -0.029  0.00  0.00    +0.151 A 
ATOM     33  N   UNL     1       0.428  -4.057  -0.023  0.00  0.00    -0.146 NA
ATOM     34  C   UNL     1       2.583  -5.332  -0.041  0.00  0.00    +0.090 C 
ENDBRANCH  22  25
ENDBRANCH  21  22
ENDBRANCH   1  21
TORSDOF 6
