REMARK  Name = ZINC64845445
REMARK  7 active torsions:
REMARK  status: ('A' for Active; 'I' for Inactive)
REMARK    1  A    between atoms: C_1  and  C_2
REMARK    2  A    between atoms: C_4  and  C_7
REMARK    3  A    between atoms: C_8  and  C_28
REMARK    4  A    between atoms: C_10  and  C_27
REMARK    5  A    between atoms: C_11  and  S_12
REMARK    6  A    between atoms: S_12  and  N_15
REMARK    7  A    between atoms: N_18  and  C_21
REMARK                            x       y       z     vdW  Elec       q    Type
REMARK                         _______ _______ _______ _____ _____    ______ ____
ROOT
ATOM      1  S   UNL     1       2.455  -4.029  -0.453  0.00  0.00    +0.062 S 
ATOM      2  O   UNL     1       3.583  -4.566  -1.129  0.00  0.00    -0.153 OA
ATOM      3  O   UNL     1       2.419  -2.692   0.026  0.00  0.00    -0.153 OA
ENDROOT
BRANCH   1   8
ATOM      4  C   UNL     1       1.007  -5.258  -2.464  0.00  0.00    +0.056 A 
ATOM      5  C   UNL     1      -0.094  -5.330  -3.267  0.00  0.00    -0.000 A 
ATOM      6  S   UNL     1      -1.020  -4.009  -2.797  0.00  0.00    -0.096 S 
ATOM      7  C   UNL     1       0.044  -3.346  -1.532  0.00  0.00    +0.014 A 
ATOM      8  C   UNL     1       1.082  -4.212  -1.541  0.00  0.00    +0.126 A 
ATOM      9  C   UNL     1      -0.163  -2.130  -0.665  0.00  0.00    +0.053 C 
ATOM     10  C   UNL     1      -0.407  -6.355  -4.326  0.00  0.00    +0.052 C 
BRANCH   4  14
ATOM     11  C   UNL     1       3.599  -9.611  -2.194  0.00  0.00    +0.069 C 
ATOM     12  C   UNL     1       3.245  -8.169  -2.454  0.00  0.00    +0.081 A 
ATOM     13  C   UNL     1       2.006  -7.569  -2.193  0.00  0.00    +0.076 A 
ATOM     14  C   UNL     1       2.087  -6.260  -2.565  0.00  0.00    +0.170 A 
ATOM     15  O   UNL     1       3.328  -6.046  -3.041  0.00  0.00    -0.354 OA
ATOM     16  N   UNL     1       4.042  -7.266  -2.955  0.00  0.00    -0.083 NA
ENDBRANCH   4  14
ENDBRANCH   1   8
BRANCH   1  17
ATOM     17  N   UNL     1       2.177  -5.007   0.855  0.00  0.00    -0.180 NA
ATOM     18  C   UNL     1       1.348  -4.548   1.980  0.00  0.00    +0.091 C 
ATOM     19  C   UNL     1       0.294  -5.620   2.276  0.00  0.00    -0.061 C 
ATOM     20  N   UNL     1       0.960  -6.910   2.500  0.00  0.00    +0.383 N 
ATOM     21  C   UNL     1       1.632  -7.346   1.270  0.00  0.00    -0.061 C 
ATOM     22  C   UNL     1       2.748  -6.361   0.921  0.00  0.00    +0.091 C 
ATOM     23  H   UNL     1       1.641  -6.812   3.238  0.00  0.00    -0.081 HD
BRANCH  20  24
ATOM     24  C   UNL     1      -0.040  -7.913   2.891  0.00  0.00    -0.068 C 
ATOM     25  C   UNL     1      -0.734  -7.466   4.179  0.00  0.00    -0.015 C 
ATOM     26  C   UNL     1      -1.775  -8.510   4.587  0.00  0.00    -0.002 C 
ATOM     27  C   UNL     1      -1.083  -9.855   4.821  0.00  0.00    -0.000 C 
ATOM     28  C   UNL     1      -0.389 -10.302   3.533  0.00  0.00    -0.002 C 
ATOM     29  C   UNL     1       0.652  -9.258   3.125  0.00  0.00    -0.015 C 
ENDBRANCH  20  24
ENDBRANCH   1  17
TORSDOF 4
