REMARK  Name = ZINC13122002
REMARK  8 active torsions:
REMARK  status: ('A' for Active; 'I' for Inactive)
REMARK    1  A    between atoms: C_1  and  O_2
REMARK    2  A    between atoms: O_2  and  C_3
REMARK    3  A    between atoms: C_6  and  C_11
REMARK    4  A    between atoms: C_8  and  O_9
REMARK    5  A    between atoms: O_9  and  C_10
REMARK    6  A    between atoms: C_21  and  N_28
REMARK    7  A    between atoms: C_22  and  C_26
REMARK    8  A    between atoms: C_29  and  N_30
REMARK                            x       y       z     vdW  Elec       q    Type
REMARK                         _______ _______ _______ _____ _____    ______ ____
ROOT
ATOM      1  C   UNL     1       2.733  -2.892  -4.615  0.00  0.00    +0.062 C 
ATOM      2  C   UNL     1       4.231  -2.607  -4.722  0.00  0.00    +0.109 C 
ATOM      3  C   UNL     1       4.452  -1.231  -5.293  0.00  0.00    +0.218 C 
ATOM      4  O   UNL     1       5.393  -0.562  -4.907  0.00  0.00    -0.275 OA
ATOM      5  N   UNL     1       3.636  -0.743  -6.206  0.00  0.00    -0.280 N 
ATOM      6  C   UNL     1       2.558  -1.416  -6.611  0.00  0.00    +0.079 C 
ATOM      7  C   UNL     1       2.055  -2.498  -5.911  0.00  0.00    +0.015 C 
ATOM      8  C   UNL     1       0.950  -3.248  -6.342  0.00  0.00    +0.083 A 
ATOM      9  C   UNL     1       0.144  -2.999  -7.527  0.00  0.00    +0.050 A 
ATOM     10  C   UNL     1      -0.944  -3.868  -7.815  0.00  0.00    +0.057 A 
ATOM     11  C   UNL     1      -1.201  -4.931  -6.939  0.00  0.00    +0.112 A 
ATOM     12  C   UNL     1      -0.377  -5.103  -5.807  0.00  0.00    +0.136 A 
ATOM     13  N   UNL     1       0.625  -4.297  -5.550  0.00  0.00    -0.231 NA
ATOM     14  N   UNL     1      -0.634  -6.149  -4.945  0.00  0.00    -0.342 N 
ATOM     15  C   UNL     1       0.369  -1.937  -8.427  0.00  0.00    +0.076 C 
ATOM     16  S   UNL     1       1.672  -0.937  -8.071  0.00  0.00    -0.058 S 
ATOM     17  H   UNL     1       3.824   0.127  -6.593  0.00  0.00    +0.155 HD
ATOM     18  H   UNL     1      -1.373  -6.753  -5.122  0.00  0.00    +0.144 HD
ATOM     19  H   UNL     1      -0.077  -6.281  -4.162  0.00  0.00    +0.144 HD
ENDROOT
BRANCH   1  23
ATOM     20  C   UNL     1       1.075  -0.623  -1.392  0.00  0.00    +0.162 A 
ATOM     21  C   UNL     1       1.692   0.022  -2.452  0.00  0.00    +0.050 A 
ATOM     22  C   UNL     1       2.227  -0.714  -3.492  0.00  0.00    +0.008 A 
ATOM     23  C   UNL     1       2.148  -2.094  -3.478  0.00  0.00    -0.036 A 
ATOM     24  C   UNL     1       1.534  -2.744  -2.424  0.00  0.00    +0.053 A 
ATOM     25  C   UNL     1       1.001  -2.013  -1.375  0.00  0.00    +0.162 A 
BRANCH  20  27
ATOM     26  C   UNL     1       0.661   1.522  -0.452  0.00  0.00    +0.277 C 
ATOM     27  O   UNL     1       0.549   0.100  -0.367  0.00  0.00    -0.491 OA
ENDBRANCH  20  27
BRANCH  25  28
ATOM     28  O   UNL     1       0.402  -2.651  -0.334  0.00  0.00    -0.491 OA
ATOM     29  C   UNL     1       0.362  -4.078  -0.384  0.00  0.00    +0.277 C 
ENDBRANCH  25  28
ENDBRANCH   1  23
BRANCH  10  30
ATOM     30  N   UNL     1      -1.729  -3.668  -8.929  0.00  0.00    -0.356 N 
ATOM     31  H   UNL     1      -1.318  -3.430  -9.775  0.00  0.00    +0.142 HD
ATOM     32  H   UNL     1      -2.692  -3.766  -8.868  0.00  0.00    +0.142 HD
ENDBRANCH  10  30
BRANCH  15  33
ATOM     33  N   UNL     1      -0.423  -1.733  -9.521  0.00  0.00    -0.352 N 
ATOM     34  H   UNL     1      -1.385  -1.835  -9.449  0.00  0.00    +0.143 HD
ATOM     35  H   UNL     1      -0.024  -1.487 -10.370  0.00  0.00    +0.143 HD
ENDBRANCH  15  33
BRANCH  11  36
ATOM     36  C   UNL     1      -2.285  -5.831  -7.191  0.00  0.00    +0.104 C 
ATOM     37  N   UNL     1      -3.145  -6.546  -7.390  0.00  0.00    -0.191 NA
ENDBRANCH  11  36
TORSDOF 6
