REMARK  Name = ZINC08452797
REMARK  4 active torsions:
REMARK  status: ('A' for Active; 'I' for Inactive)
REMARK    1  A    between atoms: C_5  and  C_7
REMARK    2  A    between atoms: C_7  and  S_8
REMARK    3  A    between atoms: S_8  and  C_9
REMARK    4  A    between atoms: C_22  and  C_25
REMARK                            x       y       z     vdW  Elec       q    Type
REMARK                         _______ _______ _______ _____ _____    ______ ____
ROOT
ATOM      1  C   UNL     1       4.558   5.152  -1.292  0.00  0.00    +0.213 A 
ATOM      2  N   UNL     1       5.264   5.556  -2.344  0.00  0.00    -0.184 NA
ATOM      3  C   UNL     1       6.346   6.292  -2.152  0.00  0.00    +0.248 A 
ATOM      4  C   UNL     1       6.713   6.628  -0.829  0.00  0.00    +0.156 A 
ATOM      5  N   UNL     1       5.968   6.190   0.174  0.00  0.00    -0.141 NA
ATOM      6  N   UNL     1       4.919   5.479  -0.058  0.00  0.00    -0.122 NA
ATOM      7  C   UNL     1       7.912   7.458  -0.593  0.00  0.00    +0.028 A 
ATOM      8  C   UNL     1       8.856   7.117   0.368  0.00  0.00    +0.012 A 
ATOM      9  C   UNL     1       9.947   7.937   0.580  0.00  0.00    +0.001 A 
ATOM     10  C   UNL     1      10.106   9.097  -0.158  0.00  0.00    +0.002 A 
ATOM     11  C   UNL     1       9.177   9.446  -1.122  0.00  0.00    +0.024 A 
ATOM     12  C   UNL     1       8.083   8.632  -1.350  0.00  0.00    +0.039 A 
ATOM     13  N   UNL     1       7.132   8.946  -2.327  0.00  0.00    -0.305 N 
ATOM     14  C   UNL     1       7.043   8.104  -3.516  0.00  0.00    +0.295 C 
ATOM     15  O   UNL     1       7.102   6.720  -3.190  0.00  0.00    -0.449 OA
ATOM     16  H   UNL     1       6.543   9.708  -2.215  0.00  0.00    +0.150 HD
ENDROOT
BRANCH  14  17
ATOM     17  C   UNL     1       8.185   8.441  -4.440  0.00  0.00    +0.033 A 
ATOM     18  C   UNL     1       9.334   7.671  -4.426  0.00  0.00    +0.060 A 
ATOM     19  C   UNL     1      10.383   7.975  -5.277  0.00  0.00    +0.167 A 
ATOM     20  C   UNL     1      10.281   9.064  -6.141  0.00  0.00    +0.168 A 
ATOM     21  C   UNL     1       9.130   9.834  -6.148  0.00  0.00    +0.070 A 
ATOM     22  C   UNL     1       8.084   9.521  -5.298  0.00  0.00    +0.053 A 
ATOM     23 CL   UNL     1       6.641  10.487  -5.308  0.00  0.00    -0.083 Cl
ATOM     24  O   UNL     1      11.436   9.156  -6.864  0.00  0.00    -0.453 OA
ATOM     25  C   UNL     1      12.402   8.364  -6.148  0.00  0.00    +0.466 C 
ATOM     26  O   UNL     1      11.600   7.386  -5.460  0.00  0.00    -0.453 OA
ENDBRANCH  14  17
BRANCH   1  27
ATOM     27  S   UNL     1       3.114   4.173  -1.542  0.00  0.00    -0.080 S 
BRANCH  27  28
ATOM     28  C   UNL     1       2.594   3.936   0.175  0.00  0.00    +0.114 C 
BRANCH  28  33
ATOM     29  C   UNL     1      -1.050   2.947   0.195  0.00  0.00    +0.000 A 
ATOM     30  C   UNL     1      -0.962   1.569   0.268  0.00  0.00    +0.001 A 
ATOM     31  C   UNL     1       0.276   0.957   0.321  0.00  0.00    +0.020 A 
ATOM     32  C   UNL     1       1.428   1.723   0.289  0.00  0.00    +0.045 A 
ATOM     33  C   UNL     1       1.340   3.101   0.210  0.00  0.00    -0.019 A 
ATOM     34  C   UNL     1       0.101   3.713   0.162  0.00  0.00    +0.006 A 
ATOM     35 CL   UNL     1       2.983   0.954   0.349  0.00  0.00    -0.083 Cl
ENDBRANCH  28  33
ENDBRANCH  27  28
ENDBRANCH   1  27
TORSDOF 4
