REMARK  Name = ZINC31044095
REMARK  11 active torsions:
REMARK  status: ('A' for Active; 'I' for Inactive)
REMARK    1  A    between atoms: C_1  and  C_2
REMARK    2  A    between atoms: C_5  and  O_9
REMARK    3  A    between atoms: C_7  and  C_8
REMARK    4  A    between atoms: O_9  and  C_10
REMARK    5  A    between atoms: C_10  and  C_11
REMARK    6  A    between atoms: C_11  and  C_13
REMARK    7  A    between atoms: C_11  and  N_14
REMARK    8  A    between atoms: C_15  and  C_17
REMARK    9  A    between atoms: N_22  and  C_24
REMARK   10  A    between atoms: C_24  and  C_25
REMARK   11  A    between atoms: C_27  and  C_30
REMARK                            x       y       z     vdW  Elec       q    Type
REMARK                         _______ _______ _______ _____ _____    ______ ____
ROOT
ATOM      1  C   UNL     1      -0.756   1.594  -1.230  0.00  0.00    +0.058 C 
ATOM      2  C   UNL     1      -0.013   1.086   0.008  0.00  0.00    +0.009 C 
ATOM      3  C   UNL     1      -0.732   1.581   1.266  0.00  0.00    -0.018 C 
ATOM      4  C   UNL     1      -2.185   1.096   1.239  0.00  0.00    -0.078 C 
ATOM      5  N   UNL     1      -2.852   1.610   0.036  0.00  0.00    +0.386 N 
ATOM      6  C   UNL     1      -2.207   1.109  -1.184  0.00  0.00    -0.065 C 
ATOM      7  H   UNL     1      -2.756   2.705   0.042  0.00  0.00    -0.081 HD
ENDROOT
BRANCH   1   9
ATOM      8  N   UNL     1       1.203   1.360  -2.722  0.00  0.00    -0.309 N 
ATOM      9  C   UNL     1      -0.087   1.063  -2.472  0.00  0.00    +0.215 C 
ATOM     10  O   UNL     1      -0.710   0.367  -3.246  0.00  0.00    -0.276 OA
ATOM     11  H   UNL     1       1.769   1.991  -2.020  0.00  0.00    +0.149 HD
BRANCH   8  12
ATOM     12  C   UNL     1       1.853   0.843  -3.929  0.00  0.00    +0.107 C 
ATOM     13  C   UNL     1       1.562   1.778  -5.105  0.00  0.00    +0.031 C 
BRANCH  12  14
ATOM     14  C   UNL     1       3.364   0.765  -3.701  0.00  0.00    +0.251 C 
BRANCH  14  15
ATOM     15  O   UNL     1       3.888   2.083  -3.525  0.00  0.00    -0.490 OA
BRANCH  15  20
ATOM     16  C   UNL     1       9.431   2.534  -2.635  0.00  0.00    +0.044 C 
ATOM     17  C   UNL     1       7.948   2.413  -2.873  0.00  0.00    -0.047 A 
ATOM     18  C   UNL     1       7.377   1.167  -3.051  0.00  0.00    +0.007 A 
ATOM     19  C   UNL     1       6.017   1.053  -3.264  0.00  0.00    +0.046 A 
ATOM     20  C   UNL     1       5.225   2.192  -3.310  0.00  0.00    +0.121 A 
ATOM     21  C   UNL     1       5.801   3.441  -3.130  0.00  0.00    +0.049 A 
ATOM     22  C   UNL     1       7.161   3.549  -2.912  0.00  0.00    -0.044 A 
ATOM     23  C   UNL     1       7.787   4.906  -2.717  0.00  0.00    +0.044 C 
ENDBRANCH  15  20
ENDBRANCH  14  15
ENDBRANCH  12  14
ENDBRANCH   8  12
ENDBRANCH   1   9
BRANCH   5  24
ATOM     24  C   UNL     1      -4.284   1.280   0.048  0.00  0.00    +0.022 C 
BRANCH  24  25
ATOM     25  C   UNL     1      -4.959   2.012   1.179  0.00  0.00    +0.211 A 
ATOM     26  N   UNL     1      -5.495   3.205   1.123  0.00  0.00    -0.193 NA
ATOM     27  C   UNL     1      -5.978   3.445   2.363  0.00  0.00    +0.202 A 
ATOM     28  N   UNL     1      -5.702   2.396   3.094  0.00  0.00    -0.056 NA
ATOM     29  O   UNL     1      -5.118   1.567   2.429  0.00  0.00    -0.340 OA
BRANCH  27  30
ATOM     30  C   UNL     1      -6.685   4.670   2.812  0.00  0.00    +0.023 A 
ATOM     31  C   UNL     1      -6.907   5.716   1.918  0.00  0.00    +0.013 A 
ATOM     32  C   UNL     1      -7.569   6.851   2.339  0.00  0.00    +0.016 A 
ATOM     33  C   UNL     1      -8.004   6.956   3.649  0.00  0.00    +0.018 A 
ATOM     34  C   UNL     1      -7.781   5.922   4.542  0.00  0.00    +0.016 A 
ATOM     35  C   UNL     1      -7.125   4.781   4.130  0.00  0.00    +0.013 A 
ATOM     36 BR   UNL     1      -8.905   8.517   4.221  0.00  0.00    -0.050 Br
ENDBRANCH  27  30
ENDBRANCH  24  25
ENDBRANCH   5  24
TORSDOF 8
