REMARK  Name = ZINC16489738
REMARK  5 active torsions:
REMARK  status: ('A' for Active; 'I' for Inactive)
REMARK    1  A    between atoms: C_1  and  S_2
REMARK    2  A    between atoms: S_2  and  C_3
REMARK    3  A    between atoms: C_7  and  C_9
REMARK    4  A    between atoms: N_11  and  C_12
REMARK    5  A    between atoms: C_15  and  N_19
REMARK                            x       y       z     vdW  Elec       q    Type
REMARK                         _______ _______ _______ _____ _____    ______ ____
ROOT
ATOM      1  C   UNL     1      -1.266  -0.763   0.009  0.00  0.00    +0.250 C 
ATOM      2  O   UNL     1      -1.247  -1.978  -0.007  0.00  0.00    -0.270 OA
ATOM      3  N   UNL     1      -2.443  -0.107   0.026  0.00  0.00    -0.281 N 
ATOM      4  H   UNL     1      -2.459   0.859   0.106  0.00  0.00    +0.155 HD
ENDROOT
BRANCH   3   5
ATOM      5  C   UNL     1      -3.644  -0.822  -0.072  0.00  0.00    +0.037 A 
ATOM      6  C   UNL     1      -4.725  -0.274  -0.750  0.00  0.00    +0.045 A 
ATOM      7  C   UNL     1      -5.908  -0.981  -0.851  0.00  0.00    +0.065 A 
ATOM      8  C   UNL     1      -6.019  -2.235  -0.264  0.00  0.00    +0.062 A 
ATOM      9  C   UNL     1      -4.940  -2.781   0.419  0.00  0.00    +0.065 A 
ATOM     10  C   UNL     1      -3.755  -2.076   0.514  0.00  0.00    +0.045 A 
ATOM     11 CL   UNL     1      -5.078  -4.348   1.152  0.00  0.00    -0.082 Cl
ATOM     12 CL   UNL     1      -7.257  -0.299  -1.705  0.00  0.00    -0.082 Cl
BRANCH   8  13
ATOM     13  N   UNL     1      -7.220  -2.950  -0.361  0.00  0.00    -0.356 N 
ATOM     14  H   UNL     1      -7.298  -3.825   0.048  0.00  0.00    +0.142 HD
ATOM     15  H   UNL     1      -7.974  -2.568  -0.838  0.00  0.00    +0.142 HD
ENDBRANCH   8  13
ENDBRANCH   3   5
BRANCH   1  20
ATOM     16  C   UNL     1       1.177   2.096   0.026  0.00  0.00    +0.008 A 
ATOM     17  C   UNL     1       2.389   1.413   0.009  0.00  0.00    +0.016 A 
ATOM     18  C   UNL     1       2.408   0.032  -0.009  0.00  0.00    +0.022 A 
ATOM     19  C   UNL     1       1.224  -0.681  -0.009  0.00  0.00    +0.053 A 
ATOM     20  C   UNL     1       0.002  -0.004   0.008  0.00  0.00    +0.056 A 
ATOM     21  C   UNL     1      -0.017   1.391   0.026  0.00  0.00    +0.029 A 
ATOM     22 CL   UNL     1       1.256  -2.416  -0.031  0.00  0.00    -0.083 Cl
BRANCH  16  24
ATOM     23  C   UNL     1       2.915   4.315   0.041  0.00  0.00    +0.090 C 
ATOM     24  S   UNL     1       1.159   3.858   0.048  0.00  0.00    -0.129 S 
ENDBRANCH  16  24
ENDBRANCH   1  20
TORSDOF 4
