REMARK  Name = ZINC13302610
REMARK  9 active torsions:
REMARK  status: ('A' for Active; 'I' for Inactive)
REMARK    1  A    between atoms: C_1  and  C_2
REMARK    2  A    between atoms: C_5  and  S_11
REMARK    3  A    between atoms: C_7  and  C_8
REMARK    4  A    between atoms: S_11  and  N_14
REMARK    5  A    between atoms: C_17  and  C_20
REMARK    6  A    between atoms: C_23  and  C_26
REMARK    7  A    between atoms: C_26  and  C_28
REMARK    8  A    between atoms: C_26  and  N_29
REMARK    9  A    between atoms: C_30  and  C_32
REMARK                            x       y       z     vdW  Elec       q    Type
REMARK                         _______ _______ _______ _____ _____    ______ ____
ROOT
ATOM      1  N   UNL     1       2.283  -4.618  -0.470  0.00  0.00    -0.103 NA
ATOM      2  C   UNL     1       2.823  -5.806  -0.584  0.00  0.00    +0.192 A 
ATOM      3  N   UNL     1       4.131  -6.146  -0.852  0.00  0.00    -0.332 N 
ATOM      4  C   UNL     1       4.461  -7.474  -0.922  0.00  0.00    +0.055 A 
ATOM      5  C   UNL     1       3.509  -8.409  -0.731  0.00  0.00    +0.075 A 
ATOM      6  S   UNL     1       2.059  -7.412  -0.425  0.00  0.00    -0.056 S 
ATOM      7  H   UNL     1       4.803  -5.460  -0.987  0.00  0.00    +0.168 HD
ENDROOT
BRANCH   4   8
ATOM      8  C   UNL     1       5.854  -7.879  -1.208  0.00  0.00    -0.001 A 
ATOM      9  C   UNL     1       6.840  -6.911  -1.401  0.00  0.00    +0.010 A 
ATOM     10  C   UNL     1       8.138  -7.296  -1.667  0.00  0.00    +0.006 A 
ATOM     11  C   UNL     1       8.463  -8.639  -1.743  0.00  0.00    -0.027 A 
ATOM     12  C   UNL     1       7.489  -9.604  -1.552  0.00  0.00    +0.006 A 
ATOM     13  C   UNL     1       6.189  -9.232  -1.280  0.00  0.00    +0.010 A 
BRANCH  11  14
ATOM     14  C   UNL     1       9.882  -9.052  -2.034  0.00  0.00    +0.100 C 
ATOM     15  C   UNL     1      10.012  -9.423  -3.513  0.00  0.00    +0.033 C 
BRANCH  14  16
ATOM     16  N   UNL     1      10.233 -10.210  -1.208  0.00  0.00    -0.309 N 
ATOM     17  C   UNL     1      11.523 -10.452  -0.901  0.00  0.00    +0.210 C 
ATOM     18  O   UNL     1      12.393  -9.712  -1.309  0.00  0.00    -0.276 OA
ATOM     19  C   UNL     1      11.884 -11.643  -0.051  0.00  0.00    +0.109 C 
ATOM     20  H   UNL     1       9.537 -10.802  -0.882  0.00  0.00    +0.149 HD
ENDBRANCH  14  16
ENDBRANCH  11  14
ENDBRANCH   4   8
BRANCH   1  21
ATOM     21  S   UNL     1       0.668  -4.471  -0.133  0.00  0.00    +0.101 S 
ATOM     22  O   UNL     1       0.479  -4.985   1.178  0.00  0.00    -0.146 OA
ATOM     23  O   UNL     1      -0.030  -4.983  -1.260  0.00  0.00    -0.146 OA
BRANCH  21  28
ATOM     24  C   UNL     1      -0.579   1.439   0.097  0.00  0.00    +0.044 C 
ATOM     25  C   UNL     1      -0.267  -0.035   0.044  0.00  0.00    -0.036 A 
ATOM     26  C   UNL     1      -0.366  -0.720  -1.150  0.00  0.00    +0.006 A 
ATOM     27  C   UNL     1      -0.080  -2.072  -1.201  0.00  0.00    +0.029 A 
ATOM     28  C   UNL     1       0.307  -2.748  -0.056  0.00  0.00    +0.113 A 
ATOM     29  C   UNL     1       0.410  -2.077   1.144  0.00  0.00    +0.044 A 
ATOM     30  C   UNL     1       0.128  -0.709   1.201  0.00  0.00    +0.068 A 
BRANCH  30  31
ATOM     31  C   UNL     1       0.243   0.018   2.480  0.00  0.00    +0.387 C 
ATOM     32  O   UNL     1       0.923   1.031   2.548  0.00  0.00    -0.241 OA
ATOM     33  O   UNL     1      -0.343  -0.393   3.472  0.00  0.00    -0.241 OA
ENDBRANCH  30  31
ENDBRANCH  21  28
ENDBRANCH   1  21
TORSDOF 6
