REMARK  Name = ZINC40376452
REMARK  5 active torsions:
REMARK  status: ('A' for Active; 'I' for Inactive)
REMARK    1  A    between atoms: C_1  and  C_2
REMARK    2  A    between atoms: C_7  and  N_8
REMARK    3  A    between atoms: C_14  and  C_19
REMARK    4  A    between atoms: C_19  and  C_20
REMARK    5  A    between atoms: N_22  and  C_23
REMARK                            x       y       z     vdW  Elec       q    Type
REMARK                         _______ _______ _______ _____ _____    ______ ____
ROOT
ATOM      1  N   UNL     1      -1.494  -0.698   1.909  0.00  0.00    -0.215 NA
ATOM      2  C   UNL     1      -1.592  -1.206   3.115  0.00  0.00    +0.202 C 
ATOM      3  N   UNL     1      -1.608  -2.567   3.287  0.00  0.00    -0.369 N 
ATOM      4  N   UNL     1      -1.678  -0.373   4.207  0.00  0.00    -0.295 N 
ATOM      5  C   UNL     1      -1.669  -0.905   5.485  0.00  0.00    +0.230 C 
ATOM      6  N   UNL     1      -1.795  -0.187   6.566  0.00  0.00    -0.236 NA
ATOM      7  C   UNL     1      -1.734  -1.128   7.698  0.00  0.00    +0.208 C 
ATOM      8  C   UNL     1      -1.553  -2.474   7.024  0.00  0.00    +0.274 C 
ATOM      9  O   UNL     1      -1.441  -3.674   7.620  0.00  0.00    -0.268 OA
ATOM     10  N   UNL     1      -1.535  -2.223   5.744  0.00  0.00    -0.176 NA
ATOM     11  H   UNL     1      -1.140  -3.141   2.660  0.00  0.00    +0.159 HD
ATOM     12  H   UNL     1      -1.744   0.586   4.082  0.00  0.00    +0.172 HD
ATOM     13  H   UNL     1      -2.087  -2.956   4.035  0.00  0.00    +0.159 HD
ENDROOT
BRANCH   1  20
ATOM     14  C   UNL     1       0.612  -0.524   0.009  0.00  0.00    +0.046 C 
ATOM     15  C   UNL     1      -0.546  -1.474  -0.151  0.00  0.00    -0.025 A 
ATOM     16  C   UNL     1      -0.611  -2.307  -1.250  0.00  0.00    +0.005 A 
ATOM     17  C   UNL     1      -1.673  -3.180  -1.399  0.00  0.00    +0.000 A 
ATOM     18  C   UNL     1      -2.679  -3.224  -0.449  0.00  0.00    +0.002 A 
ATOM     19  C   UNL     1      -2.627  -2.398   0.654  0.00  0.00    +0.028 A 
ATOM     20  C   UNL     1      -1.554  -1.518   0.814  0.00  0.00    +0.070 A 
ENDBRANCH   1  20
BRANCH   7  21
ATOM     21  C   UNL     1      -0.541  -0.808   8.602  0.00  0.00    +0.132 C 
BRANCH  21  22
ATOM     22  C   UNL     1      -0.756   0.529   9.263  0.00  0.00    +0.220 C 
ATOM     23  O   UNL     1      -1.764   1.163   9.034  0.00  0.00    -0.275 OA
ATOM     24  N   UNL     1       0.171   1.019  10.109  0.00  0.00    -0.284 N 
ATOM     25  H   UNL     1       1.010   0.548  10.235  0.00  0.00    +0.155 HD
BRANCH  24  26
ATOM     26  C   UNL     1      -0.075   2.208  10.806  0.00  0.00    +0.052 A 
ATOM     27  C   UNL     1      -1.379   2.653  10.982  0.00  0.00    +0.026 A 
ATOM     28  C   UNL     1      -1.620   3.826  11.670  0.00  0.00    +0.022 A 
ATOM     29  C   UNL     1      -0.564   4.558  12.184  0.00  0.00    +0.042 A 
ATOM     30  C   UNL     1       0.736   4.117  12.011  0.00  0.00    +0.041 A 
ATOM     31  C   UNL     1       0.983   2.941  11.329  0.00  0.00    +0.064 A 
ATOM     32 CL   UNL     1       2.614   2.384  11.118  0.00  0.00    -0.082 Cl
ATOM     33 CL   UNL     1      -0.871   6.033  13.047  0.00  0.00    -0.083 Cl
ENDBRANCH  24  26
ENDBRANCH  21  22
ENDBRANCH   7  21
TORSDOF 4
