REMARK  Name = ZINC38888020
REMARK  7 active torsions:
REMARK  status: ('A' for Active; 'I' for Inactive)
REMARK    1  A    between atoms: C_1  and  C_2
REMARK    2  A    between atoms: C_6  and  C_8
REMARK    3  A    between atoms: C_10  and  C_13
REMARK    4  A    between atoms: C_13  and  N_14
REMARK    5  A    between atoms: C_18  and  C_21
REMARK    6  A    between atoms: N_23  and  C_24
REMARK    7  A    between atoms: C_28  and  C_30
REMARK                            x       y       z     vdW  Elec       q    Type
REMARK                         _______ _______ _______ _____ _____    ______ ____
ROOT
ATOM      1  N   UNL     1       1.501  -6.365   4.543  0.00  0.00    +0.386 N 
ATOM      2  C   UNL     1       2.152  -6.439   3.229  0.00  0.00    -0.078 C 
ATOM      3  C   UNL     1       3.625  -6.815   3.406  0.00  0.00    -0.018 C 
ATOM      4  C   UNL     1       3.719  -8.176   4.101  0.00  0.00    +0.009 C 
ATOM      5  C   UNL     1       2.973  -8.108   5.437  0.00  0.00    +0.059 C 
ATOM      6  C   UNL     1       1.524  -7.685   5.185  0.00  0.00    -0.065 C 
ATOM      7  H   UNL     1       1.993  -5.702   5.123  0.00  0.00    -0.081 HD
ENDROOT
BRANCH   5   8
ATOM      8  C   UNL     1       2.995  -9.464   6.095  0.00  0.00    +0.218 C 
ATOM      9  O   UNL     1       1.954 -10.035   6.342  0.00  0.00    -0.275 OA
ATOM     10  N   UNL     1       4.172 -10.042   6.409  0.00  0.00    -0.285 N 
ATOM     11  H   UNL     1       5.005  -9.617   6.151  0.00  0.00    +0.155 HD
BRANCH  10  12
ATOM     12  C   UNL     1       4.191 -11.255   7.106  0.00  0.00    +0.034 A 
ATOM     13  C   UNL     1       3.211 -12.210   6.869  0.00  0.00    +0.025 A 
ATOM     14  C   UNL     1       3.233 -13.406   7.558  0.00  0.00    +0.022 A 
ATOM     15  C   UNL     1       4.230 -13.654   8.485  0.00  0.00    +0.053 A 
ATOM     16  C   UNL     1       5.208 -12.705   8.723  0.00  0.00    +0.075 A 
ATOM     17  C   UNL     1       5.194 -11.509   8.032  0.00  0.00    +0.037 A 
ATOM     18 CL   UNL     1       4.254 -15.159   9.351  0.00  0.00    -0.083 Cl
BRANCH  16  19
ATOM     19  C   UNL     1       6.293 -12.978   9.734  0.00  0.00    +0.419 C 
ATOM     20  F   UNL     1       7.157 -11.879   9.799  0.00  0.00    -0.166 F 
ATOM     21  F   UNL     1       5.716 -13.192  10.990  0.00  0.00    -0.166 F 
ATOM     22  F   UNL     1       7.011 -14.115   9.350  0.00  0.00    -0.166 F 
ENDBRANCH  16  19
ENDBRANCH  10  12
ENDBRANCH   5   8
BRANCH   1  23
ATOM     23  C   UNL     1       0.109  -5.929   4.374  0.00  0.00    +0.022 C 
BRANCH  23  26
ATOM     24  C   UNL     1       0.051  -2.860   2.438  0.00  0.00    +0.202 A 
ATOM     25  N   UNL     1       0.072  -4.198   2.567  0.00  0.00    -0.193 NA
ATOM     26  C   UNL     1       0.085  -4.525   3.828  0.00  0.00    +0.211 A 
ATOM     27  O   UNL     1       0.072  -3.402   4.558  0.00  0.00    -0.340 OA
ATOM     28  N   UNL     1       0.056  -2.324   3.634  0.00  0.00    -0.056 NA
BRANCH  24  34
ATOM     29  C   UNL     1      -0.019   1.475  -0.040  0.00  0.00    +0.044 C 
ATOM     30  C   UNL     1      -0.001  -0.032  -0.039  0.00  0.00    -0.050 A 
ATOM     31  C   UNL     1      -0.004  -0.723  -1.238  0.00  0.00    +0.003 A 
ATOM     32  C   UNL     1       0.012  -2.106  -1.245  0.00  0.00    +0.001 A 
ATOM     33  C   UNL     1       0.030  -2.804  -0.055  0.00  0.00    +0.012 A 
ATOM     34  C   UNL     1       0.032  -2.114   1.155  0.00  0.00    +0.023 A 
ATOM     35  C   UNL     1       0.022  -0.720   1.157  0.00  0.00    +0.015 A 
ENDBRANCH  24  34
ENDBRANCH  23  26
ENDBRANCH   1  23
TORSDOF 6
