REMARK  Name = ZINC18219554
REMARK  2 active torsions:
REMARK  status: ('A' for Active; 'I' for Inactive)
REMARK    1  A    between atoms: C_4  and  N_7
REMARK    2  A    between atoms: C_12  and  C_30
REMARK                            x       y       z     vdW  Elec       q    Type
REMARK                         _______ _______ _______ _____ _____    ______ ____
ROOT
ATOM      1  N   UNL     1       3.624  -0.652  -0.037  0.00  0.00    -0.210 N 
ATOM      2  C   UNL     1       4.839  -0.028  -0.041  0.00  0.00    +0.233 C 
ATOM      3  O   UNL     1       5.069   1.127   0.246  0.00  0.00    -0.274 OA
ATOM      4  C   UNL     1       5.832  -1.072  -0.474  0.00  0.00    +0.125 C 
ATOM      5  C   UNL     1       7.165  -1.197   0.275  0.00  0.00    +0.163 C 
ATOM      6  O   UNL     1       7.418  -2.634   0.259  0.00  0.00    -0.348 OA
ATOM      7  C   UNL     1       6.141  -3.332   0.186  0.00  0.00    +0.206 C 
ATOM      8  C   UNL     1       5.117  -2.280   0.258  0.00  0.00    +0.138 C 
ATOM      9  C   UNL     1       3.731  -2.021  -0.046  0.00  0.00    +0.234 C 
ATOM     10  O   UNL     1       2.857  -2.833  -0.264  0.00  0.00    -0.274 OA
ATOM     11  C   UNL     1       6.071  -4.342   1.304  0.00  0.00    +0.204 C 
ATOM     12  O   UNL     1       6.088  -4.102   2.492  0.00  0.00    -0.288 OA
ATOM     13  C   UNL     1       5.977  -5.676   0.682  0.00  0.00    +0.031 A 
ATOM     14  C   UNL     1       5.883  -6.945   1.258  0.00  0.00    +0.012 A 
ATOM     15  C   UNL     1       5.806  -8.066   0.455  0.00  0.00    +0.001 A 
ATOM     16  C   UNL     1       5.822  -7.943  -0.924  0.00  0.00    +0.001 A 
ATOM     17  C   UNL     1       5.912  -6.697  -1.514  0.00  0.00    +0.012 A 
ATOM     18  C   UNL     1       5.990  -5.550  -0.721  0.00  0.00    +0.031 A 
ATOM     19  C   UNL     1       6.091  -4.128  -1.095  0.00  0.00    +0.204 C 
ATOM     20  O   UNL     1       6.127  -3.681  -2.221  0.00  0.00    -0.288 OA
ENDROOT
BRANCH   5  21
ATOM     21  C   UNL     1       8.256  -0.453  -0.451  0.00  0.00    -0.018 A 
ATOM     22  C   UNL     1       8.870  -1.025  -1.549  0.00  0.00    +0.009 A 
ATOM     23  C   UNL     1       9.870  -0.344  -2.216  0.00  0.00    +0.039 A 
ATOM     24  C   UNL     1      10.257   0.914  -1.784  0.00  0.00    +0.123 A 
ATOM     25  C   UNL     1       9.641   1.486  -0.684  0.00  0.00    +0.039 A 
ATOM     26  C   UNL     1       8.638   0.805  -0.022  0.00  0.00    +0.009 A 
ATOM     27  F   UNL     1      11.235   1.581  -2.435  0.00  0.00    -0.205 F 
ENDBRANCH   5  21
BRANCH   1  31
ATOM     28  C   UNL     1      -0.017   1.379   0.010  0.00  0.00    +0.000 A 
ATOM     29  C   UNL     1       1.170   2.089   0.002  0.00  0.00    +0.002 A 
ATOM     30  C   UNL     1       2.377   1.419  -0.013  0.00  0.00    +0.024 A 
ATOM     31  C   UNL     1       2.399   0.031  -0.021  0.00  0.00    +0.044 A 
ATOM     32  C   UNL     1       1.207  -0.680  -0.013  0.00  0.00    +0.024 A 
ATOM     33  C   UNL     1       0.002  -0.004   0.002  0.00  0.00    +0.002 A 
ENDBRANCH   1  31
TORSDOF 2
