REMARK  Name = ZINC13552377
REMARK  4 active torsions:
REMARK  status: ('A' for Active; 'I' for Inactive)
REMARK    1  A    between atoms: C_8  and  C_12
REMARK    2  A    between atoms: C_12  and  C_13
REMARK    3  A    between atoms: C_13  and  N_14
REMARK    4  A    between atoms: C_15  and  C_17
REMARK                            x       y       z     vdW  Elec       q    Type
REMARK                         _______ _______ _______ _____ _____    ______ ____
ROOT
ATOM      1  N   UNL     1       4.964  -3.643  -1.463  0.00  0.00    -0.315 N 
ATOM      2  C   UNL     1       5.106  -4.286  -2.639  0.00  0.00    +0.216 C 
ATOM      3  O   UNL     1       4.801  -3.732  -3.674  0.00  0.00    -0.276 OA
ATOM      4  H   UNL     1       5.208  -4.086  -0.635  0.00  0.00    +0.149 HD
ENDROOT
BRANCH   2   5
ATOM      5  C   UNL     1       5.643  -5.694  -2.667  0.00  0.00    +0.078 C 
ATOM      6  C   UNL     1       7.047  -5.717  -2.060  0.00  0.00    +0.031 C 
ATOM      7  C   UNL     1       7.576  -7.155  -2.059  0.00  0.00    +0.107 C 
ATOM      8  N   UNL     1       7.501  -7.687  -3.426  0.00  0.00    -0.313 N 
ATOM      9  C   UNL     1       6.216  -7.631  -4.137  0.00  0.00    +0.107 C 
ATOM     10  C   UNL     1       5.703  -6.188  -4.114  0.00  0.00    +0.031 C 
ATOM     11  C   UNL     1       8.619  -8.230  -4.034  0.00  0.00    +0.154 A 
ATOM     12  C   UNL     1       8.524  -8.852  -5.290  0.00  0.00    +0.148 A 
ATOM     13  C   UNL     1       9.693  -9.386  -5.857  0.00  0.00    +0.164 A 
ATOM     14  N   UNL     1       9.318  -9.923  -7.062  0.00  0.00    -0.329 N 
ATOM     15  H   UNL     1       9.900 -10.369  -7.698  0.00  0.00    +0.168 HD
ATOM     16  C   UNL     1       7.978  -9.716  -7.203  0.00  0.00    +0.198 A 
ATOM     17  N   UNL     1       7.514  -9.087  -6.163  0.00  0.00    -0.231 NA
ATOM     18  N   UNL     1      10.839  -9.285  -5.191  0.00  0.00    -0.198 NA
ATOM     19  C   UNL     1      10.881  -8.693  -4.014  0.00  0.00    +0.226 A 
ATOM     20  N   UNL     1       9.809  -8.171  -3.444  0.00  0.00    -0.200 NA
ATOM     21 CL   UNL     1      12.403  -8.589  -3.185  0.00  0.00    -0.041 Cl
ENDBRANCH   2   5
BRANCH   1  22
ATOM     22  C   UNL     1       4.442  -2.274  -1.435  0.00  0.00    +0.109 C 
BRANCH  22  23
ATOM     23  C   UNL     1       4.382  -1.780   0.012  0.00  0.00    +0.056 C 
BRANCH  23  31
ATOM     24  C   UNL     1       0.028   1.394   0.085  0.00  0.00    +0.040 A 
ATOM     25  C   UNL     1       1.209   2.103   0.095  0.00  0.00    +0.029 A 
ATOM     26  C   UNL     1       2.424   1.428   0.079  0.00  0.00    +0.047 A 
ATOM     27  C   UNL     1       2.435   0.022   0.052  0.00  0.00    +0.006 A 
ATOM     28  C   UNL     1       1.230  -0.684   0.041  0.00  0.00    +0.048 A 
ATOM     29  C   UNL     1       0.036   0.004   0.058  0.00  0.00    +0.124 A 
ATOM     30  F   UNL     1      -1.131  -0.675   0.049  0.00  0.00    -0.205 F 
ATOM     31  C   UNL     1       3.846  -0.372   0.040  0.00  0.00    -0.021 A 
ATOM     32  C   UNL     1       4.570   0.758   0.060  0.00  0.00    +0.087 A 
ATOM     33  N   UNL     1       3.738   1.844   0.083  0.00  0.00    -0.360 N 
ATOM     34  H   UNL     1       4.030   2.769   0.100  0.00  0.00    +0.165 HD
ENDBRANCH  23  31
ENDBRANCH  22  23
ENDBRANCH   1  22
TORSDOF 4
