REMARK  Name = ZINC15867908
REMARK  2 active torsions:
REMARK  status: ('A' for Active; 'I' for Inactive)
REMARK    1  A    between atoms: C_1  and  C_2
REMARK    2  A    between atoms: N_11  and  C_13
REMARK                            x       y       z     vdW  Elec       q    Type
REMARK                         _______ _______ _______ _____ _____    ______ ____
ROOT
ATOM      1  C   UNL     1      -8.039   3.127   0.465  0.00  0.00    +0.007 C 
ATOM      2  C   UNL     1      -7.204   1.853   0.320  0.00  0.00    -0.014 C 
ATOM      3  C   UNL     1      -6.262   1.722   1.519  0.00  0.00    +0.007 C 
ATOM      4  C   UNL     1      -5.434   0.442   1.378  0.00  0.00    +0.043 C 
ATOM      5  C   UNL     1      -4.629   0.496   0.083  0.00  0.00    +0.103 C 
ATOM      6  C   UNL     1      -5.557   0.645  -1.119  0.00  0.00    +0.043 C 
ATOM      7  C   UNL     1      -6.385   1.924  -0.970  0.00  0.00    +0.007 C 
ATOM      8  N   UNL     1      -3.801  -0.707  -0.055  0.00  0.00    -0.279 N 
ATOM      9  C   UNL     1      -2.519  -0.293  -0.090  0.00  0.00    +0.322 C 
ATOM     10  O   UNL     1      -1.564  -1.036  -0.203  0.00  0.00    -0.251 OA
ATOM     11  N   UNL     1      -2.428   1.040   0.019  0.00  0.00    -0.187 N 
ATOM     12  N   UNL     1      -3.666   1.609   0.126  0.00  0.00    -0.209 NA
ATOM     13  H   UNL     1      -4.115  -1.623  -0.114  0.00  0.00    +0.152 HD
ATOM     14  H   UNL     1      -3.751   2.129   0.987  0.00  0.00    +0.147 HD
ENDROOT
BRANCH  11  15
ATOM     15  C   UNL     1      -1.224   1.754   0.017  0.00  0.00    +0.054 A 
ATOM     16  C   UNL     1      -1.084   2.880  -0.784  0.00  0.00    +0.026 A 
ATOM     17  C   UNL     1       0.103   3.586  -0.780  0.00  0.00    +0.017 A 
ATOM     18  C   UNL     1       1.153   3.170   0.018  0.00  0.00    +0.018 A 
ATOM     19  C   UNL     1       1.019   2.046   0.814  0.00  0.00    +0.017 A 
ATOM     20  C   UNL     1      -0.166   1.336   0.813  0.00  0.00    +0.026 A 
ATOM     21 BR   UNL     1       2.777   4.140   0.022  0.00  0.00    -0.050 Br
ENDBRANCH  11  15
TORSDOF 1
