REMARK  Name = ZINC09210694
REMARK  6 active torsions:
REMARK  status: ('A' for Active; 'I' for Inactive)
REMARK    1  A    between atoms: C_1  and  C_2
REMARK    2  A    between atoms: C_5  and  S_8
REMARK    3  A    between atoms: S_8  and  C_9
REMARK    4  A    between atoms: C_9  and  C_10
REMARK    5  A    between atoms: C_11  and  C_21
REMARK    6  A    between atoms: N_23  and  N_24
REMARK                            x       y       z     vdW  Elec       q    Type
REMARK                         _______ _______ _______ _____ _____    ______ ____
ROOT
ATOM      1  C   UNL     1      -0.742   1.585  -1.213  0.00  0.00    +0.089 A 
ATOM      2  C   UNL     1      -1.752   0.948  -1.875  0.00  0.00    +0.173 A 
ATOM      3  N   UNL     1      -2.138   1.719  -2.907  0.00  0.00    -0.124 NA
ATOM      4  N   UNL     1      -1.425   2.791  -2.935  0.00  0.00    -0.058 NA
ATOM      5  N   UNL     1      -0.517   2.746  -1.867  0.00  0.00    -0.191 N 
ATOM      6  C   UNL     1       0.437   3.717  -1.541  0.00  0.00    +0.240 A 
ATOM      7  C   UNL     1       0.669   4.969  -2.267  0.00  0.00    +0.206 A 
ATOM      8  N   UNL     1       1.632   5.616  -1.670  0.00  0.00    -0.032 NA
ATOM      9  O   UNL     1       2.062   4.836  -0.569  0.00  0.00    -0.239 OA
ATOM     10  N   UNL     1       1.274   3.659  -0.544  0.00  0.00    -0.027 NA
ATOM     11  N   UNL     1      -0.020   5.395  -3.396  0.00  0.00    -0.337 N 
ATOM     12  H   UNL     1      -0.727   4.845  -3.770  0.00  0.00    +0.144 HD
ATOM     13  H   UNL     1       0.204   6.243  -3.811  0.00  0.00    +0.144 HD
ENDROOT
BRANCH   2  14
ATOM     14  C   UNL     1      -2.327  -0.362  -1.517  0.00  0.00    +0.285 C 
ATOM     15  O   UNL     1      -1.899  -0.971  -0.555  0.00  0.00    -0.267 OA
ATOM     16  N   UNL     1      -3.327  -0.884  -2.255  0.00  0.00    -0.201 N 
ATOM     17  H   UNL     1      -3.668  -0.398  -3.022  0.00  0.00    +0.178 HD
BRANCH  16  18
ATOM     18  N   UNL     1      -3.873  -2.128  -1.914  0.00  0.00    -0.184 NA
ATOM     19  C   UNL     1      -4.835  -2.631  -2.625  0.00  0.00    +0.067 C 
ATOM     20  C   UNL     1      -5.470  -1.992  -3.836  0.00  0.00    +0.062 C 
ATOM     21  C   UNL     1      -6.544  -2.985  -4.303  0.00  0.00    +0.042 C 
ATOM     22  C   UNL     1      -6.493  -4.149  -3.342  0.00  0.00    -0.038 A 
ATOM     23  C   UNL     1      -5.504  -3.925  -2.386  0.00  0.00    +0.001 A 
ATOM     24  C   UNL     1      -5.282  -4.884  -1.389  0.00  0.00    +0.010 A 
ATOM     25  C   UNL     1      -6.037  -6.036  -1.358  0.00  0.00    +0.001 A 
ATOM     26  C   UNL     1      -7.017  -6.250  -2.311  0.00  0.00    +0.000 A 
ATOM     27  C   UNL     1      -7.243  -5.309  -3.299  0.00  0.00    +0.004 A 
ENDBRANCH  16  18
ENDBRANCH   2  14
BRANCH   1  28
ATOM     28  C   UNL     1      -0.013   1.086   0.008  0.00  0.00    +0.132 C 
BRANCH  28  29
ATOM     29  S   UNL     1      -0.862   1.671   1.500  0.00  0.00    -0.119 S 
BRANCH  29  34
ATOM     30  C   UNL     1       2.429  -0.583   6.031  0.00  0.00    +0.044 C 
ATOM     31  C   UNL     1       1.607  -0.021   4.900  0.00  0.00    -0.050 A 
ATOM     32  C   UNL     1       0.490   0.747   5.174  0.00  0.00    +0.004 A 
ATOM     33  C   UNL     1      -0.265   1.264   4.140  0.00  0.00    +0.015 A 
ATOM     34  C   UNL     1       0.099   1.013   2.823  0.00  0.00    +0.008 A 
ATOM     35  C   UNL     1       1.219   0.236   2.551  0.00  0.00    +0.015 A 
ATOM     36  C   UNL     1       1.972  -0.273   3.590  0.00  0.00    +0.004 A 
ENDBRANCH  29  34
ENDBRANCH  28  29
ENDBRANCH   1  28
TORSDOF 5
