REMARK  Name = ZINC02778342
REMARK  6 active torsions:
REMARK  status: ('A' for Active; 'I' for Inactive)
REMARK    1  A    between atoms: C_1  and  C_2
REMARK    2  A    between atoms: C_10  and  C_14
REMARK    3  A    between atoms: N_17  and  N_18
REMARK    4  A    between atoms: C_19  and  C_21
REMARK    5  A    between atoms: C_27  and  C_33
REMARK    6  A    between atoms: C_29  and  C_30
REMARK                            x       y       z     vdW  Elec       q    Type
REMARK                         _______ _______ _______ _____ _____    ______ ____
ROOT
ATOM      1  N   UNL     1      -2.407  -0.373   0.023  0.00  0.00    -0.215 N 
ATOM      2  C   UNL     1      -1.164  -0.893   0.009  0.00  0.00    +0.267 C 
ATOM      3  O   UNL     1      -1.009  -2.100   0.001  0.00  0.00    -0.268 OA
ATOM      4  H   UNL     1      -2.531   0.589   0.029  0.00  0.00    +0.176 HD
ENDROOT
BRANCH   1  20
ATOM      5  C   UNL     1      -3.846  -0.622  -2.349  0.00  0.00    +0.088 C 
ATOM      6  C   UNL     1      -4.250  -1.372  -1.106  0.00  0.00    +0.129 A 
ATOM      7  N   UNL     1      -5.292  -2.158  -1.142  0.00  0.00    -0.225 NA
ATOM      8  C   UNL     1      -5.679  -2.830  -0.061  0.00  0.00    +0.116 A 
ATOM      9  C   UNL     1      -4.992  -2.736   1.160  0.00  0.00    +0.077 A 
ATOM     10  C   UNL     1      -5.532  -3.533   2.261  0.00  0.00    -0.023 A 
ATOM     11  C   UNL     1      -6.629  -4.274   2.000  0.00  0.00    -0.004 A 
ATOM     12  S   UNL     1      -7.001  -3.959   0.295  0.00  0.00    -0.073 S 
ATOM     13  C   UNL     1      -7.367  -5.170   2.948  0.00  0.00    +0.046 C 
ATOM     14  C   UNL     1      -6.476  -5.415   4.174  0.00  0.00    -0.009 C 
ATOM     15  C   UNL     1      -5.922  -4.071   4.655  0.00  0.00    +0.008 C 
ATOM     16  C   UNL     1      -4.899  -3.539   3.650  0.00  0.00    +0.037 C 
ATOM     17  C   UNL     1      -7.302  -6.062   5.288  0.00  0.00    +0.008 C 
ATOM     18  C   UNL     1      -3.850  -1.869   1.163  0.00  0.00    +0.280 A 
ATOM     19  O   UNL     1      -3.188  -1.721   2.176  0.00  0.00    -0.265 OA
ATOM     20  N   UNL     1      -3.521  -1.222   0.030  0.00  0.00    -0.209 N 
ENDBRANCH   1  20
BRANCH   2  21
ATOM     21  C   UNL     1       0.002  -0.004   0.002  0.00  0.00    +0.102 A 
ATOM     22  C   UNL     1      -0.017   1.402   0.010  0.00  0.00    +0.150 A 
ATOM     23  N   UNL     1       1.215   1.839   0.000  0.00  0.00    -0.172 NA
ATOM     24  N   UNL     1       2.096   0.752  -0.014  0.00  0.00    -0.212 N 
ATOM     25  C   UNL     1       1.355  -0.396  -0.013  0.00  0.00    +0.168 A 
ATOM     26  N   UNL     1       1.946  -1.591  -0.025  0.00  0.00    -0.232 NA
ATOM     27  C   UNL     1       3.257  -1.694  -0.039  0.00  0.00    +0.049 A 
ATOM     28  C   UNL     1       4.052  -0.543  -0.041  0.00  0.00    +0.052 A 
ATOM     29  C   UNL     1       3.457   0.677  -0.028  0.00  0.00    +0.112 A 
BRANCH  29  30
ATOM     30  C   UNL     1       4.290   1.933  -0.030  0.00  0.00    +0.390 C 
ATOM     31  F   UNL     1       5.492   1.694  -0.704  0.00  0.00    -0.202 F 
ATOM     32  F   UNL     1       3.589   2.956  -0.677  0.00  0.00    -0.202 F 
ENDBRANCH  29  30
BRANCH  27  33
ATOM     33  C   UNL     1       3.904  -3.055  -0.053  0.00  0.00    +0.038 C 
ATOM     34  C   UNL     1       5.380  -3.132  -0.448  0.00  0.00    +0.010 C 
ATOM     35  C   UNL     1       4.303  -3.634  -1.412  0.00  0.00    +0.010 C 
ENDBRANCH  27  33
ENDBRANCH   2  21
TORSDOF 4
