REMARK  Name = ZINC13653793
REMARK  9 active torsions:
REMARK  status: ('A' for Active; 'I' for Inactive)
REMARK    1  A    between atoms: C_1  and  C_2
REMARK    2  A    between atoms: N_8  and  C_9
REMARK    3  A    between atoms: C_9  and  C_10
REMARK    4  A    between atoms: C_11  and  O_31
REMARK    5  A    between atoms: C_18  and  C_19
REMARK    6  A    between atoms: C_22  and  O_27
REMARK    7  A    between atoms: C_23  and  O_25
REMARK    8  A    between atoms: O_25  and  C_26
REMARK    9  A    between atoms: O_27  and  C_28
REMARK                            x       y       z     vdW  Elec       q    Type
REMARK                         _______ _______ _______ _____ _____    ______ ____
ROOT
ATOM      1  C   UNL     1       2.342  -0.621   2.693  0.00  0.00    +0.020 A 
ATOM      2  C   UNL     1       2.286   0.222   3.791  0.00  0.00    +0.122 A 
ATOM      3  C   UNL     1       3.146   0.037   4.870  0.00  0.00    +0.046 A 
ATOM      4  C   UNL     1       4.056  -0.982   4.856  0.00  0.00    +0.019 A 
ATOM      5  C   UNL     1       4.124  -1.839   3.757  0.00  0.00    +0.068 A 
ATOM      6  C   UNL     1       3.258  -1.666   2.665  0.00  0.00    +0.144 A 
ATOM      7  O   UNL     1       3.505  -2.612   1.733  0.00  0.00    -0.451 OA
ATOM      8  C   UNL     1       4.499  -3.448   2.116  0.00  0.00    +0.176 C 
ATOM      9  C   UNL     1       4.982  -4.498   1.405  0.00  0.00    +0.058 C 
ATOM     10  C   UNL     1       4.969  -3.003   3.436  0.00  0.00    +0.231 C 
ATOM     11  O   UNL     1       5.851  -3.495   4.118  0.00  0.00    -0.283 OA
ENDROOT
BRANCH   9  12
ATOM     12  C   UNL     1       4.518  -4.731   0.032  0.00  0.00    -0.018 A 
ATOM     13  C   UNL     1       3.713  -3.780  -0.608  0.00  0.00    +0.012 A 
ATOM     14  C   UNL     1       3.279  -4.000  -1.896  0.00  0.00    +0.050 A 
ATOM     15  C   UNL     1       3.638  -5.164  -2.564  0.00  0.00    +0.162 A 
ATOM     16  C   UNL     1       4.439  -6.116  -1.935  0.00  0.00    +0.162 A 
ATOM     17  C   UNL     1       4.884  -5.901  -0.645  0.00  0.00    +0.057 A 
BRANCH  16  18
ATOM     18  O   UNL     1       4.787  -7.254  -2.592  0.00  0.00    -0.491 OA
ATOM     19  C   UNL     1       5.609  -8.186  -1.887  0.00  0.00    +0.277 C 
ENDBRANCH  16  18
BRANCH  15  20
ATOM     20  O   UNL     1       3.206  -5.376  -3.835  0.00  0.00    -0.491 OA
ATOM     21  C   UNL     1       2.389  -4.361  -4.420  0.00  0.00    +0.277 C 
ENDBRANCH  15  20
ENDBRANCH   9  12
BRANCH   2  22
ATOM     22  O   UNL     1       1.386   1.237   3.814  0.00  0.00    -0.506 OA
ATOM     23  H   UNL     1       0.532   0.997   4.201  0.00  0.00    +0.292 HD
ENDBRANCH   2  22
BRANCH   1  24
ATOM     24  C   UNL     1       1.405  -0.409   1.532  0.00  0.00    -0.035 C 
BRANCH  24  31
ATOM     25  C   UNL     1      -1.043   0.635   0.635  0.00  0.00    -0.013 C 
ATOM     26  C   UNL     1      -0.789  -0.873   0.683  0.00  0.00    -0.071 C 
ATOM     27  C   UNL     1      -2.106  -1.603   0.954  0.00  0.00    -0.016 C 
ATOM     28  C   UNL     1      -1.847  -3.111   1.001  0.00  0.00    -0.003 C 
ATOM     29  C   UNL     1      -0.790  -3.405   2.070  0.00  0.00    -0.019 C 
ATOM     30  C   UNL     1       0.478  -2.608   1.758  0.00  0.00    -0.078 C 
ATOM     31  N   UNL     1       0.170  -1.173   1.754  0.00  0.00    +0.384 N 
ATOM     32  H   UNL     1      -0.229  -0.913   2.643  0.00  0.00    -0.081 HD
ENDBRANCH  24  31
ENDBRANCH   1  24
TORSDOF 6
