REMARK  Name = ZINC12479492
REMARK  14 active torsions:
REMARK  status: ('A' for Active; 'I' for Inactive)
REMARK    1  A    between atoms: C_1  and  C_2
REMARK    2  A    between atoms: C_5  and  C_8
REMARK    3  A    between atoms: C_8  and  C_10
REMARK    4  A    between atoms: C_8  and  N_18
REMARK    5  A    between atoms: N_12  and  C_13
REMARK    6  A    between atoms: C_13  and  C_14
REMARK    7  A    between atoms: C_14  and  C_15
REMARK    8  A    between atoms: C_15  and  C_16
REMARK    9  A    between atoms: C_15  and  C_17
REMARK   10  A    between atoms: N_18  and  C_19
REMARK   11  A    between atoms: C_19  and  C_20
REMARK   12  A    between atoms: C_25  and  C_27
REMARK   13  A    between atoms: C_28  and  N_35
REMARK   14  A    between atoms: C_29  and  C_32
REMARK                            x       y       z     vdW  Elec       q    Type
REMARK                         _______ _______ _______ _____ _____    ______ ____
ROOT
ATOM      1  N   UNL     1      -0.774   0.661   4.706  0.00  0.00    -0.274 N 
ATOM      2  C   UNL     1      -1.121   0.803   6.001  0.00  0.00    +0.258 C 
ATOM      3  O   UNL     1      -1.833   1.729   6.342  0.00  0.00    -0.269 OA
ENDROOT
BRANCH   2   4
ATOM      4  C   UNL     1      -0.643  -0.158   6.997  0.00  0.00    +0.115 A 
ATOM      5  C   UNL     1      -1.313  -0.703   8.093  0.00  0.00    +0.076 A 
ATOM      6  C   UNL     1      -0.519  -1.596   8.814  0.00  0.00    +0.155 A 
ATOM      7  N   UNL     1       0.716  -1.820   8.423  0.00  0.00    -0.203 NA
ATOM      8  S   UNL     1       0.951  -0.939   7.137  0.00  0.00    +0.019 S 
BRANCH   6   9
ATOM      9  C   UNL     1      -1.058  -2.277  10.006  0.00  0.00    +0.262 C 
ATOM     10  O   UNL     1      -2.201  -2.065  10.363  0.00  0.00    -0.269 OA
ATOM     11  N   UNL     1      -0.283  -3.134  10.700  0.00  0.00    -0.324 N 
ATOM     12  H   UNL     1       0.629  -3.302  10.416  0.00  0.00    +0.145 HD
ATOM     13  H   UNL     1      -0.637  -3.581  11.485  0.00  0.00    +0.145 HD
ENDBRANCH   6   9
BRANCH   5  14
ATOM     14  N   UNL     1      -2.624  -0.394   8.428  0.00  0.00    -0.355 N 
ATOM     15  H   UNL     1      -3.128   0.233   7.886  0.00  0.00    +0.142 HD
ATOM     16  H   UNL     1      -3.037  -0.805   9.203  0.00  0.00    +0.142 HD
ENDBRANCH   5  14
ENDBRANCH   2   4
BRANCH   1  17
ATOM     17  C   UNL     1      -1.058   1.734   3.750  0.00  0.00    +0.193 C 
BRANCH  17  22
ATOM     18  C   UNL     1       3.894   4.248   2.149  0.00  0.00    +0.044 C 
ATOM     19  C   UNL     1       2.603   3.592   2.567  0.00  0.00    -0.050 A 
ATOM     20  C   UNL     1       1.520   4.370   2.935  0.00  0.00    +0.004 A 
ATOM     21  C   UNL     1       0.336   3.768   3.317  0.00  0.00    +0.006 A 
ATOM     22  C   UNL     1       0.234   2.390   3.333  0.00  0.00    -0.018 A 
ATOM     23  C   UNL     1       1.318   1.613   2.970  0.00  0.00    +0.006 A 
ATOM     24  C   UNL     1       2.501   2.214   2.582  0.00  0.00    +0.004 A 
ENDBRANCH  17  22
BRANCH  17  25
ATOM     25  C   UNL     1      -1.744   1.159   2.538  0.00  0.00    +0.238 C 
ATOM     26  O   UNL     1      -1.426   0.064   2.124  0.00  0.00    -0.273 OA
ATOM     27  N   UNL     1      -2.711   1.861   1.914  0.00  0.00    -0.313 N 
ATOM     28  H   UNL     1      -2.965   2.736   2.245  0.00  0.00    +0.149 HD
BRANCH  27  29
ATOM     29  C   UNL     1      -3.377   1.301   0.736  0.00  0.00    +0.104 C 
BRANCH  29  30
ATOM     30  C   UNL     1      -4.425   2.292   0.225  0.00  0.00    +0.022 C 
BRANCH  30  31
ATOM     31  C   UNL     1      -5.122   1.707  -1.006  0.00  0.00    -0.016 C 
ATOM     32  C   UNL     1      -5.908   0.459  -0.602  0.00  0.00    +0.007 C 
ATOM     33  C   UNL     1      -6.080   2.746  -1.591  0.00  0.00    +0.007 C 
ENDBRANCH  30  31
ENDBRANCH  29  30
ENDBRANCH  27  29
ENDBRANCH  17  25
ENDBRANCH   1  17
BRANCH   1  34
ATOM     34  C   UNL     1      -0.112  -0.565   4.255  0.00  0.00    +0.183 C 
BRANCH  34  35
ATOM     35  C   UNL     1      -1.037  -1.738   4.456  0.00  0.00    +0.122 A 
ATOM     36  C   UNL     1      -1.814  -2.297   3.512  0.00  0.00    +0.046 A 
ATOM     37  C   UNL     1      -2.511  -3.360   4.131  0.00  0.00    +0.041 A 
ATOM     38  C   UNL     1      -2.117  -3.387   5.417  0.00  0.00    +0.195 A 
ATOM     39  O   UNL     1      -1.220  -2.406   5.607  0.00  0.00    -0.466 OA
ENDBRANCH  34  35
ENDBRANCH   1  34
TORSDOF 11
