REMARK  Name = ZINC63209341
REMARK  4 active torsions:
REMARK  status: ('A' for Active; 'I' for Inactive)
REMARK    1  A    between atoms: C_3  and  N_19
REMARK    2  A    between atoms: C_4  and  N_8
REMARK    3  A    between atoms: N_8  and  S_9
REMARK    4  A    between atoms: S_9  and  C_12
REMARK                            x       y       z     vdW  Elec       q    Type
REMARK                         _______ _______ _______ _____ _____    ______ ____
ROOT
ATOM      1  N   UNL     1       3.623  -0.660  -0.037  0.00  0.00    -0.096 NA
ENDROOT
BRANCH   1   5
ATOM      2  C   UNL     1      -0.017   1.380   0.010  0.00  0.00    +0.040 A 
ATOM      3  C   UNL     1       1.170   2.091   0.002  0.00  0.00    +0.027 A 
ATOM      4  C   UNL     1       2.381   1.419  -0.013  0.00  0.00    +0.050 A 
ATOM      5  C   UNL     1       2.401   0.024  -0.021  0.00  0.00    +0.098 A 
ATOM      6  C   UNL     1       1.209  -0.683  -0.013  0.00  0.00    +0.067 A 
ATOM      7  C   UNL     1       0.002  -0.004   0.002  0.00  0.00    +0.125 A 
ATOM      8  F   UNL     1      -1.159  -0.694   0.010  0.00  0.00    -0.205 F 
BRANCH   4   9
ATOM      9  N   UNL     1       3.584   2.138  -0.022  0.00  0.00    -0.356 N 
ATOM     10  H   UNL     1       3.569   3.108  -0.017  0.00  0.00    +0.142 HD
ATOM     11  H   UNL     1       4.431   1.667  -0.033  0.00  0.00    +0.142 HD
ENDBRANCH   4   9
ENDBRANCH   1   5
BRANCH   1  12
ATOM     12  S   UNL     1       3.644  -2.316  -0.046  0.00  0.00    +0.093 S 
ATOM     13  O   UNL     1       3.111  -2.736   1.202  0.00  0.00    -0.148 OA
ATOM     14  O   UNL     1       3.086  -2.723  -1.288  0.00  0.00    -0.148 OA
BRANCH  12  15
ATOM     15  C   UNL     1       5.334  -2.815  -0.066  0.00  0.00    +0.129 A 
ATOM     16  C   UNL     1       5.996  -3.002  -1.270  0.00  0.00    +0.047 A 
ATOM     17  C   UNL     1       7.326  -3.395  -1.237  0.00  0.00    +0.038 A 
ATOM     18  C   UNL     1       7.942  -3.586  -0.014  0.00  0.00    +0.126 A 
ATOM     19  N   UNL     1       7.280  -3.399   1.111  0.00  0.00    -0.260 NA
ATOM     20  C   UNL     1       6.017  -3.020   1.117  0.00  0.00    +0.139 A 
ATOM     21 BR   UNL     1       8.284  -3.667  -2.845  0.00  0.00    -0.049 Br
ENDBRANCH  12  15
ENDBRANCH   1  12
TORSDOF 4
