REMARK  Name = ZINC32582489
REMARK  5 active torsions:
REMARK  status: ('A' for Active; 'I' for Inactive)
REMARK    1  A    between atoms: C_1  and  C_2
REMARK    2  A    between atoms: C_6  and  C_19
REMARK    3  A    between atoms: N_8  and  C_9
REMARK    4  A    between atoms: C_14  and  C_15
REMARK    5  A    between atoms: N_21  and  C_22
REMARK                            x       y       z     vdW  Elec       q    Type
REMARK                         _______ _______ _______ _____ _____    ______ ____
ROOT
ATOM      1  C   UNL     1       3.571   1.722   0.384  0.00  0.00    +0.066 C 
ATOM      2  C   UNL     1       3.536   3.225   0.276  0.00  0.00    +0.044 A 
ATOM      3  C   UNL     1       4.667   3.937   0.492  0.00  0.00    +0.076 A 
ATOM      4  C   UNL     1       4.592   5.350   0.381  0.00  0.00    +0.213 A 
ATOM      5  O   UNL     1       5.572   6.055   0.564  0.00  0.00    -0.285 OA
ATOM      6  C   UNL     1       3.284   5.928   0.038  0.00  0.00    +0.193 A 
ATOM      7  N   UNL     1       2.263   5.119  -0.153  0.00  0.00    -0.158 NA
ATOM      8  N   UNL     1       2.373   3.847  -0.037  0.00  0.00    -0.236 N 
ENDROOT
BRANCH   8   9
ATOM      9  C   UNL     1       1.236   3.060  -0.251  0.00  0.00    +0.077 A 
ATOM     10  C   UNL     1       1.209   2.143  -1.295  0.00  0.00    +0.028 A 
ATOM     11  C   UNL     1       0.086   1.369  -1.503  0.00  0.00    +0.002 A 
ATOM     12  C   UNL     1      -1.015   1.508  -0.676  0.00  0.00    +0.001 A 
ATOM     13  C   UNL     1      -0.990   2.415   0.366  0.00  0.00    +0.014 A 
ATOM     14  C   UNL     1       0.131   3.194   0.580  0.00  0.00    +0.080 A 
BRANCH  14  15
ATOM     15  C   UNL     1       0.155   4.186   1.714  0.00  0.00    +0.419 C 
ATOM     16  F   UNL     1      -1.062   4.138   2.402  0.00  0.00    -0.166 F 
ATOM     17  F   UNL     1       1.199   3.869   2.589  0.00  0.00    -0.166 F 
ATOM     18  F   UNL     1       0.350   5.474   1.202  0.00  0.00    -0.166 F 
ENDBRANCH  14  15
ENDBRANCH   8   9
BRANCH   6  19
ATOM     19  C   UNL     1       3.120   7.389  -0.097  0.00  0.00    +0.272 C 
ATOM     20  O   UNL     1       4.071   8.127   0.076  0.00  0.00    -0.268 OA
ATOM     21  N   UNL     1       1.915   7.906  -0.412  0.00  0.00    -0.279 N 
ATOM     22  H   UNL     1       1.038   7.247  -0.493  0.00  0.00    +0.155 HD
BRANCH  21  23
ATOM     23  C   UNL     1       1.781   9.282  -0.637  0.00  0.00    +0.056 A 
ATOM     24  C   UNL     1       2.638  10.175  -0.010  0.00  0.00    +0.074 A 
ATOM     25  C   UNL     1       2.508  11.537  -0.235  0.00  0.00    +0.164 A 
ATOM     26  C   UNL     1       1.512  12.006  -1.084  0.00  0.00    +0.164 A 
ATOM     27  C   UNL     1       0.653  11.112  -1.705  0.00  0.00    +0.071 A 
ATOM     28  C   UNL     1       0.785   9.754  -1.483  0.00  0.00    +0.066 A 
ATOM     29 CL   UNL     1      -0.293   8.638  -2.261  0.00  0.00    -0.081 Cl
ATOM     30  O   UNL     1       1.368  13.341  -1.317  0.00  0.00    -0.485 OA
ATOM     31  C   UNL     1       2.004  14.228  -0.392  0.00  0.00    +0.270 C 
ATOM     32  C   UNL     1       3.434  13.726  -0.149  0.00  0.00    +0.270 C 
ATOM     33  O   UNL     1       3.357  12.400   0.387  0.00  0.00    -0.485 OA
ENDBRANCH  21  23
ENDBRANCH   6  19
TORSDOF 4
