REMARK  Name = ZINC01429303
REMARK  5 active torsions:
REMARK  status: ('A' for Active; 'I' for Inactive)
REMARK    1  A    between atoms: C_1  and  C_2
REMARK    2  A    between atoms: C_4  and  N_24
REMARK    3  A    between atoms: C_5  and  C_13
REMARK    4  A    between atoms: C_9  and  C_12
REMARK    5  A    between atoms: N_15  and  C_16
REMARK                            x       y       z     vdW  Elec       q    Type
REMARK                         _______ _______ _______ _____ _____    ______ ____
ROOT
ATOM      1  C   UNL     1       4.280  10.042   0.832  0.00  0.00    +0.046 C 
ATOM      2  C   UNL     1       5.306   8.942   0.733  0.00  0.00    -0.019 A 
ATOM      3  C   UNL     1       4.969   7.695   0.150  0.00  0.00    +0.033 A 
ATOM      4  C   UNL     1       3.697   7.271  -0.416  0.00  0.00    +0.054 A 
ATOM      5  C   UNL     1       3.602   5.996  -0.928  0.00  0.00    +0.097 A 
ATOM      6  S   UNL     1       5.234   5.326  -0.673  0.00  0.00    -0.062 S 
ATOM      7  C   UNL     1       5.999   6.729   0.102  0.00  0.00    +0.111 A 
ATOM      8  N   UNL     1       7.207   6.960   0.569  0.00  0.00    -0.243 NA
ATOM      9  C   UNL     1       7.526   8.118   1.111  0.00  0.00    +0.058 A 
ATOM     10  C   UNL     1       6.583   9.133   1.205  0.00  0.00    +0.066 A 
ATOM     11 CL   UNL     1       7.020  10.652   1.924  0.00  0.00    -0.081 Cl
ATOM     12  C   UNL     1       8.921   8.342   1.634  0.00  0.00    +0.067 C 
ENDROOT
BRANCH   5  13
ATOM     13  C   UNL     1       2.478   5.369  -1.520  0.00  0.00    +0.257 C 
ATOM     14  O   UNL     1       1.425   5.973  -1.619  0.00  0.00    -0.269 OA
ATOM     15  N   UNL     1       2.573   4.103  -1.974  0.00  0.00    -0.280 N 
ATOM     16  H   UNL     1       3.397   3.605  -1.851  0.00  0.00    +0.155 HD
BRANCH  15  17
ATOM     17  C   UNL     1       1.486   3.508  -2.621  0.00  0.00    +0.054 A 
ATOM     18  C   UNL     1       0.485   4.299  -3.171  0.00  0.00    +0.044 A 
ATOM     19  C   UNL     1      -0.589   3.708  -3.809  0.00  0.00    +0.043 A 
ATOM     20  C   UNL     1      -0.665   2.329  -3.906  0.00  0.00    +0.021 A 
ATOM     21  C   UNL     1       0.327   1.539  -3.355  0.00  0.00    +0.023 A 
ATOM     22  C   UNL     1       1.403   2.124  -2.715  0.00  0.00    +0.062 A 
ATOM     23 CL   UNL     1       2.651   1.131  -2.029  0.00  0.00    -0.082 Cl
ATOM     24 CL   UNL     1      -1.839   4.696  -4.497  0.00  0.00    -0.083 Cl
ENDBRANCH  15  17
ENDBRANCH   5  13
BRANCH   4  25
ATOM     25  N   UNL     1       2.606   8.130  -0.437  0.00  0.00    -0.356 N 
ATOM     26  H   UNL     1       1.706   7.769  -0.472  0.00  0.00    +0.142 HD
ATOM     27  H   UNL     1       2.744   9.089  -0.416  0.00  0.00    +0.142 HD
ENDBRANCH   4  25
TORSDOF 3
