REMARK  Name = ZINC36358217
REMARK  5 active torsions:
REMARK  status: ('A' for Active; 'I' for Inactive)
REMARK    1  A    between atoms: C_1  and  O_2
REMARK    2  A    between atoms: O_2  and  C_3
REMARK    3  A    between atoms: C_6  and  C_10
REMARK    4  A    between atoms: C_8  and  O_9
REMARK    5  A    between atoms: N_20  and  C_21
REMARK                            x       y       z     vdW  Elec       q    Type
REMARK                         _______ _______ _______ _____ _____    ______ ____
ROOT
ATOM      1  C   UNL     1       2.507  -2.501  -4.386  0.00  0.00    +0.080 C 
ATOM      2  C   UNL     1       3.974  -2.066  -4.457  0.00  0.00    +0.110 C 
ATOM      3  C   UNL     1       4.108  -0.671  -4.997  0.00  0.00    +0.219 C 
ATOM      4  O   UNL     1       4.970   0.053  -4.546  0.00  0.00    -0.275 OA
ATOM      5  N   UNL     1       3.298  -0.197  -5.970  0.00  0.00    -0.270 N 
ATOM      6  C   UNL     1       2.229  -0.995  -6.379  0.00  0.00    +0.133 A 
ATOM      7  C   UNL     1       1.824  -2.084  -5.664  0.00  0.00    +0.089 A 
ATOM      8  N   UNL     1       0.790  -2.635  -6.297  0.00  0.00    -0.238 NA
ATOM      9  C   UNL     1       0.527  -1.945  -7.378  0.00  0.00    +0.205 A 
ATOM     10  N   UNL     1       1.414  -0.905  -7.463  0.00  0.00    -0.287 N 
ATOM     11  H   UNL     1       3.455   0.672  -6.371  0.00  0.00    +0.156 HD
ENDROOT
BRANCH  10  12
ATOM     12  C   UNL     1       1.470   0.066  -8.473  0.00  0.00    +0.051 A 
ATOM     13  C   UNL     1       1.527   1.413  -8.141  0.00  0.00    +0.029 A 
ATOM     14  C   UNL     1       1.582   2.368  -9.137  0.00  0.00    +0.042 A 
ATOM     15  C   UNL     1       1.582   1.984 -10.467  0.00  0.00    +0.142 A 
ATOM     16  C   UNL     1       1.525   0.640 -10.801  0.00  0.00    +0.078 A 
ATOM     17  C   UNL     1       1.476  -0.319  -9.807  0.00  0.00    +0.049 A 
ATOM     18 CL   UNL     1       1.524   0.161 -12.470  0.00  0.00    -0.081 Cl
ATOM     19  F   UNL     1       1.636   2.920 -11.440  0.00  0.00    -0.204 F 
ENDBRANCH  10  12
BRANCH   1  23
ATOM     20  C   UNL     1       0.606  -0.608  -1.056  0.00  0.00    +0.161 A 
ATOM     21  C   UNL     1       1.173   0.159  -2.062  0.00  0.00    +0.049 A 
ATOM     22  C   UNL     1       1.787  -0.456  -3.137  0.00  0.00    +0.008 A 
ATOM     23  C   UNL     1       1.837  -1.836  -3.212  0.00  0.00    -0.034 A 
ATOM     24  C   UNL     1       1.273  -2.606  -2.212  0.00  0.00    +0.053 A 
ATOM     25  C   UNL     1       0.662  -1.996  -1.129  0.00  0.00    +0.159 A 
BRANCH  20  27
ATOM     26  C   UNL     1      -0.017   1.425   0.010  0.00  0.00    +0.277 C 
ATOM     27  O   UNL     1       0.002  -0.004   0.002  0.00  0.00    -0.491 OA
ENDBRANCH  20  27
BRANCH  25  28
ATOM     28  O   UNL     1       0.112  -2.753  -0.142  0.00  0.00    -0.503 OA
ATOM     29  H   UNL     1      -0.816  -2.979  -0.291  0.00  0.00    +0.292 HD
ENDBRANCH  25  28
ENDBRANCH   1  23
TORSDOF 4
