REMARK  Name = ZINC64908785
REMARK  2 active torsions:
REMARK  status: ('A' for Active; 'I' for Inactive)
REMARK    1  A    between atoms: C_6  and  N_7
REMARK    2  A    between atoms: C_8  and  C_10
REMARK                            x       y       z     vdW  Elec       q    Type
REMARK                         _______ _______ _______ _____ _____    ______ ____
ROOT
ATOM      1  C   UNL     1      -0.010   1.386   0.013  0.00  0.00    +0.025 A 
ATOM      2  C   UNL     1       1.155   2.099   0.012  0.00  0.00    +0.030 A 
ATOM      3  C   UNL     1       2.381   1.431   0.007  0.00  0.00    +0.078 A 
ATOM      4  C   UNL     1       2.401   0.018   0.002  0.00  0.00    +0.067 A 
ATOM      5  C   UNL     1       1.206  -0.697   0.003  0.00  0.00    +0.038 A 
ATOM      6  C   UNL     1       0.005  -0.008   0.009  0.00  0.00    +0.035 A 
ATOM      7  C   UNL     1       3.710  -0.648  -0.004  0.00  0.00    +0.262 A 
ATOM      8  O   UNL     1       3.796  -1.862  -0.009  0.00  0.00    -0.267 OA
ATOM      9  N   UNL     1       4.821   0.133  -0.005  0.00  0.00    -0.296 N 
ATOM     10  C   UNL     1       4.713   1.489   0.004  0.00  0.00    +0.113 A 
ATOM     11  N   UNL     1       3.558   2.100   0.008  0.00  0.00    -0.234 NA
ATOM     12  C   UNL     1       6.101   2.109   0.011  0.00  0.00    +0.076 C 
ATOM     13  C   UNL     1       7.034   0.955   0.437  0.00  0.00    +0.029 C 
ATOM     14  C   UNL     1       6.234  -0.284  -0.016  0.00  0.00    +0.127 C 
ENDROOT
BRANCH   6  15
ATOM     15  N   UNL     1      -1.202  -0.716   0.011  0.00  0.00    -0.281 N 
ATOM     16  C   UNL     1      -1.303  -1.878  -0.664  0.00  0.00    +0.251 C 
ATOM     17  O   UNL     1      -0.323  -2.354  -1.204  0.00  0.00    -0.270 OA
ATOM     18  H   UNL     1      -1.967  -0.370   0.497  0.00  0.00    +0.155 HD
BRANCH  16  19
ATOM     19  C   UNL     1      -2.603  -2.574  -0.747  0.00  0.00    +0.074 A 
ATOM     20  C   UNL     1      -3.740  -2.033  -0.134  0.00  0.00    +0.019 A 
ATOM     21  C   UNL     1      -4.934  -2.723  -0.241  0.00  0.00    +0.041 A 
ATOM     22  C   UNL     1      -4.967  -3.916  -0.944  0.00  0.00    +0.131 A 
ATOM     23  N   UNL     1      -3.880  -4.403  -1.512  0.00  0.00    -0.223 NA
ATOM     24  C   UNL     1      -2.720  -3.780  -1.444  0.00  0.00    +0.143 A 
ATOM     25 CL   UNL     1      -1.326  -4.466  -2.218  0.00  0.00    -0.061 Cl
ATOM     26 CL   UNL     1      -6.464  -4.785  -1.080  0.00  0.00    -0.062 Cl
ENDBRANCH  16  19
ENDBRANCH   6  15
TORSDOF 2
