REMARK  Name = ZINC08594586
REMARK  7 active torsions:
REMARK  status: ('A' for Active; 'I' for Inactive)
REMARK    1  A    between atoms: C_1  and  C_2
REMARK    2  A    between atoms: C_6  and  N_8
REMARK    3  A    between atoms: N_11  and  S_16
REMARK    4  A    between atoms: C_13  and  C_15
REMARK    5  A    between atoms: S_16  and  C_19
REMARK    6  A    between atoms: C_20  and  C_30
REMARK    7  A    between atoms: C_26  and  C_29
REMARK                            x       y       z     vdW  Elec       q    Type
REMARK                         _______ _______ _______ _____ _____    ______ ____
ROOT
ATOM      1  S   UNL     1       1.427  -5.210   5.827  0.00  0.00    +0.068 S 
ATOM      2  O   UNL     1       1.661  -6.373   5.045  0.00  0.00    -0.153 OA
ATOM      3  O   UNL     1       2.176  -4.917   6.998  0.00  0.00    -0.153 OA
ENDROOT
BRANCH   1   4
ATOM      4  C   UNL     1      -0.267  -5.259   6.310  0.00  0.00    +0.191 A 
ATOM      5  C   UNL     1      -1.163  -6.038   5.610  0.00  0.00    +0.073 A 
ATOM      6  N   UNL     1      -2.436  -6.057   5.997  0.00  0.00    -0.226 NA
ATOM      7  C   UNL     1      -2.841  -5.352   7.024  0.00  0.00    +0.181 A 
ATOM      8  N   UNL     1      -2.019  -4.553   7.774  0.00  0.00    -0.258 N 
ATOM      9  C   UNL     1      -0.704  -4.515   7.406  0.00  0.00    +0.286 A 
ATOM     10  O   UNL     1       0.087  -3.828   8.033  0.00  0.00    -0.265 OA
ATOM     11  C   UNL     1      -2.599  -3.877   8.820  0.00  0.00    +0.033 A 
ATOM     12  C   UNL     1      -3.900  -4.000   9.083  0.00  0.00    +0.070 A 
ATOM     13  S   UNL     1      -4.424  -5.137   7.809  0.00  0.00    -0.057 S 
ATOM     14  C   UNL     1      -1.751  -2.981   9.686  0.00  0.00    +0.064 C 
ATOM     15  C   UNL     1      -0.710  -6.854   4.426  0.00  0.00    +0.068 C 
ENDBRANCH   1   4
BRANCH   1  19
ATOM     16  N   UNL     1       0.713  -1.756   3.394  0.00  0.00    -0.325 N 
ATOM     17  C   UNL     1       0.856  -1.594   4.848  0.00  0.00    +0.122 C 
ATOM     18  C   UNL     1       1.917  -2.581   5.349  0.00  0.00    +0.128 C 
ATOM     19  N   UNL     1       1.609  -3.914   4.812  0.00  0.00    -0.173 NA
ATOM     20  C   UNL     1       1.466  -4.076   3.358  0.00  0.00    +0.131 C 
ATOM     21  C   UNL     1       0.400  -3.088   2.857  0.00  0.00    +0.086 C 
ATOM     22  C   UNL     1       0.417  -3.042   1.328  0.00  0.00    +0.029 C 
BRANCH  16  28
ATOM     23  C   UNL     1       3.625   1.617   1.321  0.00  0.00    +0.044 C 
ATOM     24  C   UNL     1       2.267   0.993   1.514  0.00  0.00    -0.049 A 
ATOM     25  C   UNL     1       1.170   1.503   0.843  0.00  0.00    +0.003 A 
ATOM     26  C   UNL     1      -0.078   0.934   1.018  0.00  0.00    +0.002 A 
ATOM     27  C   UNL     1      -0.233  -0.147   1.863  0.00  0.00    +0.023 A 
ATOM     28  C   UNL     1       0.866  -0.663   2.538  0.00  0.00    +0.030 A 
ATOM     29  C   UNL     1       2.119  -0.091   2.356  0.00  0.00    +0.026 A 
ENDBRANCH  16  28
ENDBRANCH   1  19
TORSDOF 3
