REMARK  Name = ZINC06876935
REMARK  2 active torsions:
REMARK  status: ('A' for Active; 'I' for Inactive)
REMARK    1  A    between atoms: C_1  and  C_2
REMARK    2  A    between atoms: N_15  and  C_16
REMARK                            x       y       z     vdW  Elec       q    Type
REMARK                         _______ _______ _______ _____ _____    ______ ____
ROOT
ATOM      1  C   UNL     1       2.138  -1.937   0.200  0.00  0.00    +0.021 C 
ATOM      2  C   UNL     1       1.834  -0.561  -0.395  0.00  0.00    +0.066 C 
ATOM      3  C   UNL     1       2.627   0.519   0.358  0.00  0.00    +0.129 C 
ATOM      4  N   UNL     1       2.409   1.804  -0.299  0.00  0.00    -0.253 N 
ATOM      5  C   UNL     1       1.137   2.331  -0.539  0.00  0.00    +0.051 A 
ATOM      6  C   UNL     1       1.031   3.695  -0.798  0.00  0.00    +0.024 A 
ATOM      7  C   UNL     1      -0.200   4.265  -1.051  0.00  0.00    +0.002 A 
ATOM      8  C   UNL     1      -1.342   3.484  -1.050  0.00  0.00    +0.001 A 
ATOM      9  C   UNL     1      -1.251   2.132  -0.786  0.00  0.00    +0.016 A 
ATOM     10  C   UNL     1      -0.014   1.550  -0.534  0.00  0.00    +0.030 A 
ATOM     11  S   UNL     1       0.067  -0.181  -0.202  0.00  0.00    -0.119 S 
ATOM     12  C   UNL     1       3.484   2.515  -0.692  0.00  0.00    +0.311 C 
ATOM     13  O   UNL     1       3.337   3.525  -1.353  0.00  0.00    -0.252 OA
ATOM     14  N   UNL     1       4.723   2.107  -0.352  0.00  0.00    -0.267 N 
ATOM     15  H   UNL     1       4.847   1.259   0.102  0.00  0.00    +0.156 HD
ENDROOT
BRANCH  14  16
ATOM     16  C   UNL     1       5.832   2.908  -0.655  0.00  0.00    +0.070 A 
ATOM     17  C   UNL     1       5.662   4.260  -0.920  0.00  0.00    +0.027 A 
ATOM     18  C   UNL     1       6.758   5.049  -1.212  0.00  0.00    +0.017 A 
ATOM     19  C   UNL     1       8.023   4.491  -1.254  0.00  0.00    +0.021 A 
ATOM     20  C   UNL     1       8.197   3.143  -0.996  0.00  0.00    +0.055 A 
ATOM     21  C   UNL     1       7.104   2.349  -0.697  0.00  0.00    +0.146 A 
ATOM     22  F   UNL     1       7.274   1.033  -0.446  0.00  0.00    -0.204 F 
ATOM     23 BR   UNL     1       9.518   5.574  -1.663  0.00  0.00    -0.050 Br
ENDBRANCH  14  16
TORSDOF 1
