REMARK  Name = ZINC32984965
REMARK  10 active torsions:
REMARK  status: ('A' for Active; 'I' for Inactive)
REMARK    1  A    between atoms: C_1  and  C_2
REMARK    2  A    between atoms: C_2  and  O_3
REMARK    3  A    between atoms: O_3  and  C_4
REMARK    4  A    between atoms: C_7  and  N_10
REMARK    5  A    between atoms: N_10  and  S_11
REMARK    6  A    between atoms: S_11  and  C_14
REMARK    7  A    between atoms: C_16  and  C_20
REMARK    8  A    between atoms: N_22  and  C_23
REMARK    9  A    between atoms: C_27  and  C_30
REMARK   10  A    between atoms: C_28  and  C_29
REMARK                            x       y       z     vdW  Elec       q    Type
REMARK                         _______ _______ _______ _____ _____    ______ ____
ROOT
ATOM      1  C   UNL     1       1.826  -8.311  -3.062  0.00  0.00    +0.220 A 
ATOM      2  C   UNL     1       2.772  -9.119  -2.427  0.00  0.00    +0.083 A 
ATOM      3  C   UNL     1       2.304 -10.414  -2.572  0.00  0.00    +0.122 A 
ATOM      4  N   UNL     1       1.133 -10.321  -3.268  0.00  0.00    -0.271 N 
ATOM      5  H   UNL     1       0.572 -11.071  -3.522  0.00  0.00    +0.189 HD
ATOM      6  N   UNL     1       0.883  -9.088  -3.531  0.00  0.00    -0.153 NA
ENDROOT
BRANCH   3   7
ATOM      7  C   UNL     1       2.941 -11.643  -2.076  0.00  0.00    +0.266 C 
ATOM      8  O   UNL     1       3.992 -11.581  -1.466  0.00  0.00    -0.268 OA
ATOM      9  N   UNL     1       2.361 -12.840  -2.297  0.00  0.00    -0.280 N 
ATOM     10  H   UNL     1       1.485 -12.884  -2.711  0.00  0.00    +0.155 HD
BRANCH   9  11
ATOM     11  C   UNL     1       3.021 -14.016  -1.928  0.00  0.00    +0.037 A 
ATOM     12  C   UNL     1       4.406 -14.034  -1.828  0.00  0.00    +0.023 A 
ATOM     13  C   UNL     1       5.055 -15.198  -1.463  0.00  0.00    +0.002 A 
ATOM     14  C   UNL     1       4.327 -16.343  -1.198  0.00  0.00    +0.004 A 
ATOM     15  C   UNL     1       2.948 -16.328  -1.297  0.00  0.00    -0.046 A 
ATOM     16  C   UNL     1       2.293 -15.166  -1.655  0.00  0.00    -0.026 A 
ATOM     17  C   UNL     1       0.789 -15.149  -1.757  0.00  0.00    +0.046 C 
ATOM     18  C   UNL     1       2.159 -17.579  -1.008  0.00  0.00    +0.044 C 
ENDBRANCH   9  11
ENDBRANCH   3   7
BRANCH   1  19
ATOM     19  S   UNL     1       1.888  -6.556  -3.202  0.00  0.00    +0.111 S 
ATOM     20  O   UNL     1       1.099  -6.210  -4.333  0.00  0.00    -0.147 OA
ATOM     21  O   UNL     1       3.255  -6.186  -3.085  0.00  0.00    -0.147 OA
BRANCH  19  22
ATOM     22  N   UNL     1       1.114  -5.932  -1.877  0.00  0.00    -0.096 NA
BRANCH  22  26
ATOM     23  C   UNL     1       0.795  -1.803  -1.402  0.00  0.00    +0.121 A 
ATOM     24  C   UNL     1       0.254  -2.654  -0.451  0.00  0.00    +0.047 A 
ATOM     25  C   UNL     1       0.359  -4.022  -0.607  0.00  0.00    +0.030 A 
ATOM     26  C   UNL     1       1.007  -4.545  -1.718  0.00  0.00    +0.075 A 
ATOM     27  C   UNL     1       1.549  -3.693  -2.670  0.00  0.00    +0.030 A 
ATOM     28  C   UNL     1       1.438  -2.325  -2.515  0.00  0.00    +0.047 A 
BRANCH  23  29
ATOM     29  O   UNL     1       0.692  -0.456  -1.247  0.00  0.00    -0.492 OA
BRANCH  29  31
ATOM     30  C   UNL     1      -0.001   1.543  -0.077  0.00  0.00    +0.048 C 
ATOM     31  C   UNL     1       0.017   0.013  -0.078  0.00  0.00    +0.225 C 
ENDBRANCH  29  31
ENDBRANCH  23  29
ENDBRANCH  22  26
ENDBRANCH  19  22
ENDBRANCH   1  19
TORSDOF 7
