REMARK  Name = ZINC60166633
REMARK  10 active torsions:
REMARK  status: ('A' for Active; 'I' for Inactive)
REMARK    1  A    between atoms: C_1  and  C_2
REMARK    2  A    between atoms: C_4  and  N_11
REMARK    3  A    between atoms: C_5  and  O_9
REMARK    4  A    between atoms: O_9  and  C_10
REMARK    5  A    between atoms: C_12  and  C_14
REMARK    6  A    between atoms: C_14  and  C_15
REMARK    7  A    between atoms: C_15  and  N_16
REMARK    8  A    between atoms: N_16  and  C_17
REMARK    9  A    between atoms: C_22  and  O_23
REMARK   10  A    between atoms: O_23  and  C_24
REMARK                            x       y       z     vdW  Elec       q    Type
REMARK                         _______ _______ _______ _____ _____    ______ ____
ROOT
ATOM      1  N   UNL     1       0.028  -2.768  -2.427  0.00  0.00    -0.283 N 
ATOM      2  C   UNL     1      -0.089  -2.093  -3.588  0.00  0.00    +0.219 C 
ATOM      3  O   UNL     1      -0.106  -0.880  -3.585  0.00  0.00    -0.275 OA
ATOM      4  H   UNL     1       0.123  -3.733  -2.434  0.00  0.00    +0.155 HD
ENDROOT
BRANCH   1   8
ATOM      5  C   UNL     1      -1.301   1.185   0.178  0.00  0.00    +0.045 C 
ATOM      6  C   UNL     1      -0.624  -0.157   0.083  0.00  0.00    -0.030 A 
ATOM      7  C   UNL     1      -0.610  -0.839  -1.119  0.00  0.00    +0.031 A 
ATOM      8  C   UNL     1       0.014  -2.075  -1.209  0.00  0.00    +0.076 A 
ATOM      9  C   UNL     1       0.626  -2.626  -0.085  0.00  0.00    +0.143 A 
ATOM     10  C   UNL     1       0.608  -1.937   1.117  0.00  0.00    +0.067 A 
ATOM     11  C   UNL     1      -0.012  -0.702   1.198  0.00  0.00    +0.047 A 
ATOM     12 CL   UNL     1      -0.026   0.163   2.703  0.00  0.00    -0.083 Cl
BRANCH   9  13
ATOM     13  O   UNL     1       1.238  -3.837  -0.167  0.00  0.00    -0.493 OA
ATOM     14  C   UNL     1       1.844  -4.339   1.026  0.00  0.00    +0.277 C 
ENDBRANCH   9  13
ENDBRANCH   1   8
BRANCH   2  15
ATOM     15  C   UNL     1      -0.199  -2.845  -4.889  0.00  0.00    +0.114 C 
BRANCH  15  16
ATOM     16  C   UNL     1      -0.320  -1.850  -6.045  0.00  0.00    +0.111 C 
BRANCH  16  17
ATOM     17  N   UNL     1      -0.427  -2.582  -7.309  0.00  0.00    -0.341 N 
ATOM     18  H   UNL     1      -0.413  -3.552  -7.312  0.00  0.00    +0.146 HD
BRANCH  17  19
ATOM     19  C   UNL     1      -0.549  -1.881  -8.515  0.00  0.00    +0.071 A 
ATOM     20  C   UNL     1      -0.562  -0.494  -8.514  0.00  0.00    +0.046 A 
ATOM     21  C   UNL     1      -0.682   0.196  -9.707  0.00  0.00    +0.043 A 
ATOM     22  C   UNL     1      -0.789  -0.494 -10.902  0.00  0.00    +0.024 A 
ATOM     23  C   UNL     1      -0.776  -1.877 -10.908  0.00  0.00    +0.049 A 
ATOM     24  C   UNL     1      -0.650  -2.575  -9.719  0.00  0.00    +0.141 A 
ATOM     25 CL   UNL     1      -0.700   1.932  -9.706  0.00  0.00    -0.083 Cl
BRANCH  24  26
ATOM     26  O   UNL     1      -0.632  -3.935  -9.725  0.00  0.00    -0.493 OA
ATOM     27  C   UNL     1      -0.741  -4.579 -10.996  0.00  0.00    +0.277 C 
ENDBRANCH  24  26
ENDBRANCH  17  19
ENDBRANCH  16  17
ENDBRANCH  15  16
ENDBRANCH   2  15
TORSDOF 7
