REMARK  Name = ZINC02436698
REMARK  3 active torsions:
REMARK  status: ('A' for Active; 'I' for Inactive)
REMARK    1  A    between atoms: C_5  and  C_7
REMARK    2  A    between atoms: C_10  and  C_26
REMARK    3  A    between atoms: C_19  and  C_21
REMARK                            x       y       z     vdW  Elec       q    Type
REMARK                         _______ _______ _______ _____ _____    ______ ____
ROOT
ATOM      1  C   UNL     1       1.229  -2.186  -0.022  0.00  0.00    +0.144 C 
ATOM      2  C   UNL     1       0.495  -2.703  -1.265  0.00  0.00    +0.059 C 
ATOM      3  C   UNL     1       0.271  -4.214  -1.144  0.00  0.00    +0.106 C 
ATOM      4  N   UNL     1      -0.591  -4.470   0.026  0.00  0.00    -0.307 N 
ATOM      5  C   UNL     1      -0.293  -3.752   1.177  0.00  0.00    +0.216 A 
ATOM      6  N   UNL     1       0.553  -2.692   1.173  0.00  0.00    -0.224 N 
ATOM      7  N   UNL     1       0.620  -2.226   2.486  0.00  0.00    -0.131 NA
ATOM      8  C   UNL     1      -0.164  -3.001   3.203  0.00  0.00    +0.243 A 
ATOM      9  N   UNL     1      -0.720  -3.926   2.399  0.00  0.00    -0.180 NA
ATOM     10  N   UNL     1      -0.386  -2.880   4.577  0.00  0.00    -0.247 N 
ATOM     11  C   UNL     1      -1.215  -3.738   5.204  0.00  0.00    +0.286 C 
ATOM     12  O   UNL     1      -1.770  -4.619   4.573  0.00  0.00    -0.266 OA
ATOM     13  H   UNL     1      -1.325  -5.104  -0.007  0.00  0.00    +0.149 HD
ATOM     14  H   UNL     1       0.056  -2.178   5.080  0.00  0.00    +0.158 HD
ENDROOT
BRANCH   1  19
ATOM     15  C   UNL     1      -0.017   1.378   0.010  0.00  0.00    +0.000 A 
ATOM     16  C   UNL     1       1.171   2.086   0.002  0.00  0.00    +0.001 A 
ATOM     17  C   UNL     1       2.377   1.412  -0.013  0.00  0.00    +0.020 A 
ATOM     18  C   UNL     1       2.397   0.029  -0.021  0.00  0.00    +0.046 A 
ATOM     19  C   UNL     1       1.208  -0.679  -0.013  0.00  0.00    -0.005 A 
ATOM     20  C   UNL     1       0.002  -0.004   0.002  0.00  0.00    +0.007 A 
ATOM     21 CL   UNL     1       3.912  -0.818  -0.041  0.00  0.00    -0.083 Cl
ENDBRANCH   1  19
BRANCH   3  22
ATOM     22  C   UNL     1       1.596  -4.909  -0.961  0.00  0.00    -0.027 A 
ATOM     23  C   UNL     1       2.195  -4.939   0.284  0.00  0.00    +0.007 A 
ATOM     24  C   UNL     1       3.410  -5.575   0.452  0.00  0.00    +0.020 A 
ATOM     25  C   UNL     1       4.027  -6.183  -0.627  0.00  0.00    +0.041 A 
ATOM     26  C   UNL     1       3.428  -6.152  -1.873  0.00  0.00    +0.020 A 
ATOM     27  C   UNL     1       2.210  -5.520  -2.039  0.00  0.00    +0.007 A 
ATOM     28 CL   UNL     1       5.554  -6.982  -0.417  0.00  0.00    -0.084 Cl
ENDBRANCH   3  22
BRANCH  11  29
ATOM     29  C   UNL     1      -1.449  -3.611   6.646  0.00  0.00    +0.189 A 
ATOM     30  C   UNL     1      -2.256  -4.413   7.402  0.00  0.00    +0.054 A 
ATOM     31  C   UNL     1      -2.182  -3.933   8.719  0.00  0.00    +0.042 A 
ATOM     32  C   UNL     1      -1.344  -2.873   8.709  0.00  0.00    +0.196 A 
ATOM     33  O   UNL     1      -0.900  -2.686   7.459  0.00  0.00    -0.458 OA
ENDBRANCH  11  29
TORSDOF 3
