REMARK  Name = ZINC13276143
REMARK  8 active torsions:
REMARK  status: ('A' for Active; 'I' for Inactive)
REMARK    1  A    between atoms: C_3  and  O_14
REMARK    2  A    between atoms: C_4  and  N_11
REMARK    3  A    between atoms: C_6  and  C_7
REMARK    4  A    between atoms: C_8  and  C_9
REMARK    5  A    between atoms: O_14  and  C_15
REMARK    6  A    between atoms: C_18  and  S_24
REMARK    7  A    between atoms: C_20  and  C_21
REMARK    8  A    between atoms: S_24  and  N_27
REMARK                            x       y       z     vdW  Elec       q    Type
REMARK                         _______ _______ _______ _____ _____    ______ ____
ROOT
ATOM      1  C   UNL     1      -2.359   2.669   3.691  0.00  0.00    +0.141 A 
ATOM      2  C   UNL     1      -1.327   3.453   3.196  0.00  0.00    +0.049 A 
ATOM      3  C   UNL     1      -0.625   3.048   2.078  0.00  0.00    +0.032 A 
ATOM      4  C   UNL     1      -0.953   1.865   1.435  0.00  0.00    +0.106 A 
ATOM      5  C   UNL     1      -1.975   1.074   1.913  0.00  0.00    +0.045 A 
ATOM      6  C   UNL     1      -2.689   1.469   3.047  0.00  0.00    +0.080 A 
ENDROOT
BRANCH   6   7
ATOM      7  C   UNL     1      -3.785   0.626   3.564  0.00  0.00    +0.245 C 
ATOM      8  O   UNL     1      -4.404   0.973   4.551  0.00  0.00    -0.270 OA
ATOM      9  N   UNL     1      -4.099  -0.527   2.942  0.00  0.00    -0.325 N 
ATOM     10  H   UNL     1      -3.605  -0.804   2.155  0.00  0.00    +0.145 HD
ATOM     11  H   UNL     1      -4.819  -1.081   3.283  0.00  0.00    +0.145 HD
ENDBRANCH   6   7
BRANCH   4  12
ATOM     12  S   UNL     1      -0.053   1.366   0.005  0.00  0.00    +0.061 S 
ATOM     13  O   UNL     1      -0.188  -0.046  -0.087  0.00  0.00    -0.153 OA
ATOM     14  O   UNL     1       1.213   2.007   0.077  0.00  0.00    -0.153 OA
BRANCH  12  15
ATOM     15  N   UNL     1      -0.832   2.003  -1.310  0.00  0.00    -0.177 NA
ATOM     16  C   UNL     1      -1.902   1.345  -2.074  0.00  0.00    +0.109 C 
ATOM     17  C   UNL     1      -2.302   2.299  -3.218  0.00  0.00    +0.018 C 
ATOM     18  C   UNL     1      -1.043   3.191  -3.381  0.00  0.00    +0.018 C 
ATOM     19  C   UNL     1      -0.562   3.320  -1.914  0.00  0.00    +0.109 C 
ENDBRANCH  12  15
ENDBRANCH   4  12
BRANCH   1  20
ATOM     20  O   UNL     1      -3.045   3.063   4.793  0.00  0.00    -0.453 OA
BRANCH  20  23
ATOM     21  C   UNL     1      -1.024   1.404   7.316  0.00  0.00    +0.011 A 
ATOM     22  C   UNL     1      -1.457   1.861   6.092  0.00  0.00    +0.049 A 
ATOM     23  C   UNL     1      -2.625   2.610   6.001  0.00  0.00    +0.159 A 
ATOM     24  C   UNL     1      -3.368   2.891   7.143  0.00  0.00    +0.169 A 
ATOM     25  C   UNL     1      -2.947   2.433   8.370  0.00  0.00    +0.044 A 
ATOM     26  C   UNL     1      -1.768   1.684   8.469  0.00  0.00    -0.022 A 
BRANCH  24  27
ATOM     27  N   UNL     1      -4.614   3.683   7.037  0.00  0.00    +0.060 N 
ATOM     28  O   UNL     1      -5.265   3.930   8.037  0.00  0.00    -0.126 OA
ATOM     29  O   UNL     1      -4.988   4.088   5.951  0.00  0.00    -0.126 OA
ENDBRANCH  24  27
BRANCH  26  30
ATOM     30  C   UNL     1      -1.313   1.193   9.777  0.00  0.00    +0.015 C 
ATOM     31  C   UNL     1      -0.176   0.470   9.869  0.00  0.00    +0.096 C 
BRANCH  31  32
ATOM     32  C   UNL     1       0.263  -0.003  11.132  0.00  0.00    +0.380 C 
ATOM     33  O   UNL     1      -0.385   0.241  12.132  0.00  0.00    -0.241 OA
ATOM     34  O   UNL     1       1.399  -0.725  11.224  0.00  0.00    -0.241 OA
ENDBRANCH  31  32
ENDBRANCH  26  30
ENDBRANCH  20  23
ENDBRANCH   1  20
TORSDOF 8
