REMARK  Name = ZINC12853027
REMARK  3 active torsions:
REMARK  status: ('A' for Active; 'I' for Inactive)
REMARK    1  A    between atoms: C_4  and  C_7
REMARK    2  A    between atoms: C_12  and  N_16
REMARK    3  A    between atoms: C_22  and  C_24
REMARK                            x       y       z     vdW  Elec       q    Type
REMARK                         _______ _______ _______ _____ _____    ______ ____
ROOT
ATOM      1  N   UNL     1       1.507  -2.069  -0.468  0.00  0.00    -0.312 N 
ATOM      2  C   UNL     1       2.406  -2.551  -1.525  0.00  0.00    +0.125 C 
ATOM      3  C   UNL     1       2.533  -4.075  -1.427  0.00  0.00    +0.127 C 
ATOM      4  N   UNL     1       1.182  -4.658  -1.445  0.00  0.00    -0.295 N 
ATOM      5  C   UNL     1       0.183  -4.128  -0.505  0.00  0.00    +0.127 C 
ATOM      6  C   UNL     1       0.149  -2.602  -0.639  0.00  0.00    +0.125 C 
ATOM      7  C   UNL     1       0.869  -5.651  -2.301  0.00  0.00    +0.260 C 
ATOM      8  O   UNL     1      -0.250  -6.119  -2.303  0.00  0.00    -0.271 OA
ENDROOT
BRANCH   7   9
ATOM      9  C   UNL     1       1.908  -6.178  -3.256  0.00  0.00    +0.296 C 
ATOM     10  C   UNL     1       3.027  -6.876  -2.470  0.00  0.00    +0.283 C 
ATOM     11  O   UNL     1       3.988  -7.376  -3.406  0.00  0.00    -0.484 OA
ATOM     12  C   UNL     1       3.499  -8.042  -4.487  0.00  0.00    +0.162 A 
ATOM     13  C   UNL     1       4.348  -8.850  -5.230  0.00  0.00    +0.049 A 
ATOM     14  C   UNL     1       3.867  -9.530  -6.332  0.00  0.00    +0.004 A 
ATOM     15  C   UNL     1       2.539  -9.409  -6.698  0.00  0.00    +0.004 A 
ATOM     16  C   UNL     1       1.688  -8.607  -5.961  0.00  0.00    +0.049 A 
ATOM     17  C   UNL     1       2.164  -7.922  -4.853  0.00  0.00    +0.163 A 
ATOM     18  O   UNL     1       1.313  -7.139  -4.136  0.00  0.00    -0.473 OA
ENDBRANCH   7   9
BRANCH   1  24
ATOM     19  C   UNL     1       2.856  -0.529   1.796  0.00  0.00    +0.002 A 
ATOM     20  C   UNL     1       3.382   0.339   2.692  0.00  0.00    +0.056 A 
ATOM     21  S   UNL     1       2.931   1.935   2.039  0.00  0.00    -0.076 S 
ATOM     22  C   UNL     1       2.054   1.409   0.590  0.00  0.00    +0.114 A 
ATOM     23  C   UNL     1       2.132   0.002   0.646  0.00  0.00    +0.055 A 
ATOM     24  C   UNL     1       1.495  -0.686  -0.421  0.00  0.00    +0.133 A 
ATOM     25  N   UNL     1       0.889   0.011  -1.369  0.00  0.00    -0.220 NA
ATOM     26  C   UNL     1       0.855   1.331  -1.358  0.00  0.00    +0.224 A 
ATOM     27  N   UNL     1       1.429   2.025  -0.394  0.00  0.00    -0.228 NA
BRANCH  19  31
ATOM     28  C   UNL     1       3.307  -4.723   2.323  0.00  0.00    +0.000 A 
ATOM     29  C   UNL     1       4.426  -3.912   2.256  0.00  0.00    +0.001 A 
ATOM     30  C   UNL     1       4.287  -2.550   2.085  0.00  0.00    +0.008 A 
ATOM     31  C   UNL     1       3.014  -1.991   1.979  0.00  0.00    -0.017 A 
ATOM     32  C   UNL     1       1.889  -2.812   2.052  0.00  0.00    +0.008 A 
ATOM     33  C   UNL     1       2.042  -4.173   2.219  0.00  0.00    +0.001 A 
ENDBRANCH  19  31
ENDBRANCH   1  24
TORSDOF 3
