REMARK  Name = ZINC20758184
REMARK  8 active torsions:
REMARK  status: ('A' for Active; 'I' for Inactive)
REMARK    1  A    between atoms: C_1  and  C_2
REMARK    2  A    between atoms: C_2  and  N_3
REMARK    3  A    between atoms: C_9  and  C_11
REMARK    4  A    between atoms: C_12  and  C_34
REMARK    5  A    between atoms: N_18  and  C_21
REMARK    6  A    between atoms: C_21  and  C_22
REMARK    7  A    between atoms: C_26  and  C_33
REMARK    8  A    between atoms: C_29  and  C_32
REMARK                            x       y       z     vdW  Elec       q    Type
REMARK                         _______ _______ _______ _____ _____    ______ ____
ROOT
ATOM      1  C   UNL     1       3.424  -4.152  -3.079  0.00  0.00    +0.080 A 
ATOM      2  C   UNL     1       4.355  -5.132  -3.258  0.00  0.00    -0.017 A 
ATOM      3  C   UNL     1       3.954  -6.467  -3.333  0.00  0.00    +0.076 A 
ATOM      4  C   UNL     1       2.564  -6.700  -3.213  0.00  0.00    +0.116 A 
ATOM      5  S   UNL     1       1.896  -5.070  -2.996  0.00  0.00    -0.064 S 
ATOM      6  N   UNL     1       2.052  -7.923  -3.266  0.00  0.00    -0.230 NA
ATOM      7  C   UNL     1       2.807  -8.974  -3.433  0.00  0.00    +0.203 A 
ATOM      8  N   UNL     1       4.154  -8.877  -3.560  0.00  0.00    -0.290 N 
ATOM      9  C   UNL     1       4.777  -7.683  -3.521  0.00  0.00    +0.263 A 
ATOM     10  O   UNL     1       5.987  -7.606  -3.637  0.00  0.00    -0.267 OA
ATOM     11  C   UNL     1       5.815  -4.774  -3.375  0.00  0.00    +0.046 C 
ENDROOT
BRANCH   1  18
ATOM     12  N   UNL     1       1.348  -0.127  -5.183  0.00  0.00    +0.382 N 
ATOM     13  C   UNL     1       1.388  -1.564  -5.483  0.00  0.00    -0.060 C 
ATOM     14  C   UNL     1       1.518  -2.355  -4.178  0.00  0.00    +0.089 C 
ATOM     15  N   UNL     1       2.692  -1.855  -3.445  0.00  0.00    -0.301 N 
ATOM     16  C   UNL     1       2.815  -0.404  -3.240  0.00  0.00    +0.089 C 
ATOM     17  C   UNL     1       2.624   0.295  -4.591  0.00  0.00    -0.060 C 
ATOM     18  C   UNL     1       3.628  -2.703  -2.974  0.00  0.00    +0.253 C 
ATOM     19  O   UNL     1       4.642  -2.267  -2.462  0.00  0.00    -0.269 OA
ATOM     20  H   UNL     1       0.599   0.057  -4.532  0.00  0.00    -0.082 HD
BRANCH  12  22
ATOM     21  C   UNL     1      -0.271   0.278  -6.974  0.00  0.00    -0.017 C 
ATOM     22  C   UNL     1       1.113   0.625  -6.422  0.00  0.00    -0.082 C 
ENDBRANCH  12  22
ENDBRANCH   1  18
BRANCH   8  23
ATOM     23  C   UNL     1       4.947 -10.095  -3.744  0.00  0.00    +0.222 C 
BRANCH  23  24
ATOM     24  C   UNL     1       5.077 -10.392  -5.215  0.00  0.00    +0.236 C 
ATOM     25  O   UNL     1       4.558  -9.658  -6.030  0.00  0.00    -0.274 OA
ATOM     26  N   UNL     1       5.770 -11.473  -5.626  0.00  0.00    -0.300 N 
ATOM     27  C   UNL     1       6.398 -12.374  -4.651  0.00  0.00    +0.111 C 
ATOM     28  C   UNL     1       5.929 -13.806  -4.929  0.00  0.00    +0.004 C 
ATOM     29  C   UNL     1       6.220 -14.159  -6.389  0.00  0.00    +0.009 C 
ATOM     30  C   UNL     1       5.447 -13.210  -7.309  0.00  0.00    +0.004 C 
ATOM     31  C   UNL     1       5.905 -11.775  -7.058  0.00  0.00    +0.111 C 
ATOM     32  C   UNL     1       5.712 -13.585  -8.768  0.00  0.00    +0.009 C 
ATOM     33  C   UNL     1       6.676 -14.775  -4.010  0.00  0.00    +0.009 C 
ENDBRANCH  23  24
ENDBRANCH   8  23
TORSDOF 4
