REMARK  Name = ZINC27640876
REMARK  20 active torsions:
REMARK  status: ('A' for Active; 'I' for Inactive)
REMARK    1  A    between atoms: C_1  and  C_2
REMARK    2  A    between atoms: C_2  and  C_3
REMARK    3  A    between atoms: C_3  and  C_4
REMARK    4  A    between atoms: C_4  and  C_5
REMARK    5  A    between atoms: C_5  and  C_6
REMARK    6  A    between atoms: C_6  and  C_8
REMARK    7  A    between atoms: C_6  and  O_34
REMARK    8  A    between atoms: C_9  and  C_10
REMARK    9  A    between atoms: C_12  and  O_33
REMARK   10  A    between atoms: C_15  and  O_32
REMARK   11  A    between atoms: C_17  and  C_19
REMARK   12  A    between atoms: C_19  and  C_20
REMARK   13  A    between atoms: C_21  and  C_22
REMARK   14  A    between atoms: C_22  and  C_23
REMARK   15  A    between atoms: C_23  and  C_24
REMARK   16  A    between atoms: C_24  and  C_25
REMARK   17  A    between atoms: N_27  and  C_28
REMARK   18  A    between atoms: N_27  and  C_30
REMARK   19  A    between atoms: C_28  and  C_29
REMARK   20  A    between atoms: C_30  and  C_31
REMARK                            x       y       z     vdW  Elec       q    Type
REMARK                         _______ _______ _______ _____ _____    ______ ____
ROOT
ATOM      1  C   UNL     1       1.687   3.558   0.887  0.00  0.00    +0.046 C 
ATOM      2  C   UNL     1       1.900   2.032   0.966  0.00  0.00    +0.124 C 
ATOM      3  C   UNL     1       2.463   1.654  -0.427  0.00  0.00    +0.063 C 
ATOM      4  C   UNL     1       3.391   2.850  -0.756  0.00  0.00    +0.121 C 
ATOM      5  C   UNL     1       2.635   4.078  -0.207  0.00  0.00    +0.031 C 
ENDROOT
BRANCH   2   6
ATOM      6  O   UNL     1       0.658   1.365   1.201  0.00  0.00    -0.391 OA
ATOM      7  H   UNL     1       0.630   0.269   1.285  0.00  0.00    +0.210 HD
ENDBRANCH   2   6
BRANCH   4   8
ATOM      8  O   UNL     1       3.575   2.966  -2.168  0.00  0.00    -0.391 OA
ATOM      9  H   UNL     1       4.210   3.766  -2.576  0.00  0.00    +0.210 HD
ENDBRANCH   4   8
BRANCH   1  11
ATOM     10  C   UNL     1       1.146   4.949   2.819  0.00  0.00    -0.000 C 
ATOM     11  C   UNL     1       2.027   4.195   2.210  0.00  0.00    -0.022 C 
BRANCH  10  12
ATOM     12  C   UNL     1       1.525   5.681   4.081  0.00  0.00    +0.137 C 
BRANCH  12  13
ATOM     13  O   UNL     1       2.905   5.449   4.370  0.00  0.00    -0.388 OA
ATOM     14  H   UNL     1       3.267   4.424   4.539  0.00  0.00    +0.210 HD
ENDBRANCH  12  13
BRANCH  12  15
ATOM     15  C   UNL     1       1.288   7.181   3.891  0.00  0.00    +0.035 C 
BRANCH  15  16
ATOM     16  C   UNL     1       1.588   7.914   5.200  0.00  0.00    +0.003 C 
BRANCH  16  17
ATOM     17  C   UNL     1       1.233   9.395   5.048  0.00  0.00    -0.000 C 
BRANCH  17  19
ATOM     18  C   UNL     1       1.182  11.605   6.212  0.00  0.00    +0.004 C 
ATOM     19  C   UNL     1       1.646  10.150   6.313  0.00  0.00    -0.003 C 
ENDBRANCH  17  19
ENDBRANCH  16  17
ENDBRANCH  15  16
ENDBRANCH  12  15
ENDBRANCH  10  12
ENDBRANCH   1  11
BRANCH   5  20
ATOM     20  C   UNL     1       3.626   5.079   0.390  0.00  0.00    +0.033 C 
BRANCH  20  21
ATOM     21  C   UNL     1       4.467   5.672  -0.712  0.00  0.00    -0.031 C 
ATOM     22  C   UNL     1       5.765   5.497  -0.712  0.00  0.00    -0.031 C 
BRANCH  22  23
ATOM     23  C   UNL     1       6.396   4.538   0.265  0.00  0.00    +0.027 C 
BRANCH  23  24
ATOM     24  C   UNL     1       7.291   3.555  -0.492  0.00  0.00    +0.013 C 
BRANCH  24  25
ATOM     25  C   UNL     1       7.833   2.506   0.481  0.00  0.00    +0.096 C 
BRANCH  25  26
ATOM     26  C   UNL     1       8.619   1.471  -0.282  0.00  0.00    +0.216 C 
ATOM     27  O   UNL     1       8.666   1.517  -1.493  0.00  0.00    -0.276 OA
ATOM     28  N   UNL     1       9.270   0.494   0.381  0.00  0.00    -0.302 N 
BRANCH  28  29
ATOM     29  C   UNL     1       9.304   0.501   1.845  0.00  0.00    +0.104 C 
ATOM     30  C   UNL     1       8.173  -0.375   2.386  0.00  0.00    +0.024 C 
ENDBRANCH  28  29
BRANCH  28  31
ATOM     31  C   UNL     1       9.942  -0.574  -0.363  0.00  0.00    +0.104 C 
ATOM     32  C   UNL     1      11.386  -0.161  -0.654  0.00  0.00    +0.024 C 
ENDBRANCH  28  31
ENDBRANCH  25  26
ENDBRANCH  24  25
ENDBRANCH  23  24
ENDBRANCH  22  23
ENDBRANCH  20  21
ENDBRANCH   5  20
TORSDOF 17
