REMARK  Name = ZINC39940293
REMARK  7 active torsions:
REMARK  status: ('A' for Active; 'I' for Inactive)
REMARK    1  A    between atoms: C_1  and  C_2
REMARK    2  A    between atoms: C_4  and  C_35
REMARK    3  A    between atoms: C_6  and  N_8
REMARK    4  A    between atoms: C_17  and  S_18
REMARK    5  A    between atoms: S_18  and  C_19
REMARK    6  A    between atoms: C_19  and  C_20
REMARK    7  A    between atoms: C_20  and  C_22
REMARK                            x       y       z     vdW  Elec       q    Type
REMARK                         _______ _______ _______ _____ _____    ______ ____
ROOT
ATOM      1  N   UNL     1       0.052  -2.798   2.394  0.00  0.00    -0.255 N 
ATOM      2  C   UNL     1       0.146  -2.123   3.555  0.00  0.00    +0.268 A 
ATOM      3  O   UNL     1       0.216  -0.906   3.558  0.00  0.00    -0.267 OA
ATOM      4  C   UNL     1       0.162  -2.853   4.785  0.00  0.00    +0.076 A 
ATOM      5  C   UNL     1       0.257  -2.330   6.149  0.00  0.00    -0.023 A 
ATOM      6  C   UNL     1       0.253  -3.232   7.152  0.00  0.00    -0.004 A 
ATOM      7  S   UNL     1       0.121  -4.809   6.353  0.00  0.00    -0.073 S 
ATOM      8  C   UNL     1       0.075  -4.251   4.669  0.00  0.00    +0.117 A 
ATOM      9  N   UNL     1      -0.015  -4.858   3.491  0.00  0.00    -0.215 NA
ATOM     10  C   UNL     1      -0.033  -4.162   2.373  0.00  0.00    +0.178 A 
ATOM     11  C   UNL     1       0.340  -2.955   8.622  0.00  0.00    +0.043 C 
ATOM     12  C   UNL     1       0.812  -1.507   8.815  0.00  0.00    +0.005 C 
ATOM     13  C   UNL     1      -0.017  -0.595   7.907  0.00  0.00    +0.005 C 
ATOM     14  C   UNL     1       0.360  -0.837   6.444  0.00  0.00    +0.037 C 
ENDROOT
BRANCH   1  20
ATOM     15  C   UNL     1       2.500  -0.800  -1.374  0.00  0.00    +0.044 C 
ATOM     16  C   UNL     1       1.209  -1.107  -0.661  0.00  0.00    -0.048 A 
ATOM     17  C   UNL     1       0.006  -0.688  -1.200  0.00  0.00    +0.006 A 
ATOM     18  C   UNL     1      -1.181  -0.967  -0.548  0.00  0.00    -0.048 A 
ATOM     19  C   UNL     1      -1.169  -1.666   0.643  0.00  0.00    +0.029 A 
ATOM     20  C   UNL     1       0.037  -2.089   1.186  0.00  0.00    +0.052 A 
ATOM     21  C   UNL     1       1.227  -1.811   0.527  0.00  0.00    +0.029 A 
ATOM     22  C   UNL     1      -2.490  -0.508  -1.138  0.00  0.00    +0.044 C 
ENDBRANCH   1  20
BRANCH  10  23
ATOM     23  S   UNL     1      -0.161  -5.001   0.828  0.00  0.00    -0.079 S 
BRANCH  23  24
ATOM     24  C   UNL     1      -0.247  -6.754   1.287  0.00  0.00    +0.156 C 
BRANCH  24  25
ATOM     25  C   UNL     1      -0.361  -7.594   0.041  0.00  0.00    +0.172 C 
ATOM     26  O   UNL     1      -0.382  -7.061  -1.050  0.00  0.00    -0.291 OA
BRANCH  25  27
ATOM     27  C   UNL     1      -0.443  -8.999   0.142  0.00  0.00    +0.024 C 
ATOM     28  C   UNL     1      -0.544  -9.908  -0.895  0.00  0.00    +0.006 A 
ATOM     29  C   UNL     1      -0.599  -9.761  -2.302  0.00  0.00    +0.010 A 
ATOM     30  C   UNL     1      -0.701 -10.850  -3.097  0.00  0.00    +0.001 A 
ATOM     31  C   UNL     1      -0.758 -12.155  -2.584  0.00  0.00    +0.002 A 
ATOM     32  C   UNL     1      -0.714 -12.404  -1.257  0.00  0.00    +0.026 A 
ATOM     33  C   UNL     1      -0.602 -11.274  -0.320  0.00  0.00    +0.043 A 
ATOM     34  N   UNL     1      -0.541 -11.225   0.980  0.00  0.00    -0.380 N 
ATOM     35  C   UNL     1      -0.430  -9.827   1.408  0.00  0.00    +0.152 C 
ATOM     36  H   UNL     1      -0.562 -11.993   1.572  0.00  0.00    +0.160 HD
ENDBRANCH  25  27
ENDBRANCH  24  25
ENDBRANCH  23  24
ENDBRANCH  10  23
TORSDOF 5
