REMARK  Name = ZINC35936877
REMARK  7 active torsions:
REMARK  status: ('A' for Active; 'I' for Inactive)
REMARK    1  A    between atoms: C_3  and  N_11
REMARK    2  A    between atoms: C_6  and  C_7
REMARK    3  A    between atoms: N_14  and  C_17
REMARK    4  A    between atoms: C_17  and  C_19
REMARK    5  A    between atoms: C_17  and  C_22
REMARK    6  A    between atoms: N_24  and  C_25
REMARK    7  A    between atoms: C_34  and  C_37
REMARK                            x       y       z     vdW  Elec       q    Type
REMARK                         _______ _______ _______ _____ _____    ______ ____
ROOT
ATOM      1  C   UNL     1       6.868   3.754   1.913  0.00  0.00    +0.022 C 
ENDROOT
BRANCH   1   5
ATOM      2  N   UNL     1       3.628   1.982  -0.055  0.00  0.00    -0.319 N 
ATOM      3  C   UNL     1       4.953   1.382  -0.276  0.00  0.00    +0.088 C 
ATOM      4  C   UNL     1       5.888   1.843   0.848  0.00  0.00    -0.059 C 
ATOM      5  N   UNL     1       5.890   3.310   0.910  0.00  0.00    +0.389 N 
ATOM      6  C   UNL     1       4.555   3.796   1.283  0.00  0.00    -0.059 C 
ATOM      7  C   UNL     1       3.554   3.433   0.176  0.00  0.00    +0.088 C 
ATOM      8  H   UNL     1       6.143   3.684   0.008  0.00  0.00    -0.081 HD
BRANCH   2  11
ATOM      9  C   UNL     1       0.094   1.021  -0.030  0.00  0.00    +0.017 A 
ATOM     10  C   UNL     1       1.230   1.810  -0.014  0.00  0.00    +0.044 A 
ATOM     11  C   UNL     1       2.478   1.200  -0.070  0.00  0.00    +0.121 A 
ATOM     12  N   UNL     1       2.582  -0.118  -0.138  0.00  0.00    -0.240 NA
ATOM     13  C   UNL     1       1.516  -0.896  -0.155  0.00  0.00    +0.125 A 
ATOM     14  C   UNL     1       0.246  -0.357  -0.102  0.00  0.00    +0.073 A 
BRANCH  14  15
ATOM     15  C   UNL     1      -0.963  -1.257  -0.122  0.00  0.00    +0.419 C 
ATOM     16  F   UNL     1      -1.365  -1.469  -1.445  0.00  0.00    -0.166 F 
ATOM     17  F   UNL     1      -0.642  -2.483   0.470  0.00  0.00    -0.166 F 
ATOM     18  F   UNL     1      -2.005  -0.653   0.591  0.00  0.00    -0.166 F 
ENDBRANCH  14  15
ENDBRANCH   2  11
ENDBRANCH   1   5
BRANCH   1  19
ATOM     19  C   UNL     1       6.978   5.257   1.875  0.00  0.00    +0.200 C 
ATOM     20  O   UNL     1       6.721   5.858   0.854  0.00  0.00    -0.278 OA
ATOM     21  N   UNL     1       7.363   5.932   2.976  0.00  0.00    -0.313 N 
ATOM     22  H   UNL     1       7.634   5.448   3.772  0.00  0.00    +0.149 HD
BRANCH  21  23
ATOM     23  C   UNL     1       7.373   7.397   2.971  0.00  0.00    +0.079 C 
ATOM     24  C   UNL     1       8.694   7.896   2.382  0.00  0.00    +0.011 C 
ATOM     25  C   UNL     1       9.857   7.381   3.231  0.00  0.00    +0.009 C 
ATOM     26  C   UNL     1       9.710   7.897   4.664  0.00  0.00    -0.009 C 
ATOM     27  C   UNL     1       8.390   7.398   5.253  0.00  0.00    +0.009 C 
ATOM     28  C   UNL     1       7.226   7.913   4.404  0.00  0.00    +0.011 C 
ATOM     29  C   UNL     1       7.236   9.443   4.399  0.00  0.00    +0.021 C 
ATOM     30  C   UNL     1       8.556   9.942   3.810  0.00  0.00    +0.048 C 
ATOM     31  C   UNL     1       8.704   9.426   2.377  0.00  0.00    +0.021 C 
ATOM     32  C   UNL     1       9.720   9.427   4.659  0.00  0.00    +0.019 C 
BRANCH  30  33
ATOM     33  C   UNL     1       8.566  11.449   3.804  0.00  0.00    +0.217 C 
ATOM     34  O   UNL     1       7.611  12.063   4.230  0.00  0.00    -0.275 OA
ATOM     35  N   UNL     1       9.637  12.114   3.327  0.00  0.00    -0.329 N 
ATOM     36  H   UNL     1      10.401  11.623   2.987  0.00  0.00    +0.145 HD
ATOM     37  H   UNL     1       9.643  13.084   3.324  0.00  0.00    +0.145 HD
ENDBRANCH  30  33
ENDBRANCH  21  23
ENDBRANCH   1  19
BRANCH   1  38
ATOM     38  C   UNL     1       8.232   3.134   1.603  0.00  0.00    -0.016 C 
ATOM     39  C   UNL     1       8.735   2.032   2.538  0.00  0.00    +0.002 C 
ATOM     40  C   UNL     1       9.376   3.421   2.578  0.00  0.00    +0.002 C 
ENDBRANCH   1  38
TORSDOF 7
