REMARK  Name = ZINC13218285
REMARK  8 active torsions:
REMARK  status: ('A' for Active; 'I' for Inactive)
REMARK    1  A    between atoms: C_1  and  C_2
REMARK    2  A    between atoms: C_2  and  N_3
REMARK    3  A    between atoms: C_7  and  C_27
REMARK    4  A    between atoms: C_11  and  C_12
REMARK    5  A    between atoms: C_12  and  S_13
REMARK    6  A    between atoms: S_13  and  C_14
REMARK    7  A    between atoms: C_17  and  C_20
REMARK    8  A    between atoms: N_18  and  N_19
REMARK                            x       y       z     vdW  Elec       q    Type
REMARK                         _______ _______ _______ _____ _____    ______ ____
ROOT
ATOM      1  S   UNL     1      -1.476  -3.598  -0.409  0.00  0.00    -0.077 S 
ENDROOT
BRANCH   1   2
ATOM      2  C   UNL     1      -0.571  -2.106  -0.164  0.00  0.00    +0.209 A 
ATOM      3  N   UNL     1       0.698  -2.008   0.164  0.00  0.00    -0.121 NA
ATOM      4  N   UNL     1       1.035  -0.772   0.262  0.00  0.00    -0.127 NA
ATOM      5  C   UNL     1       0.002  -0.004   0.002  0.00  0.00    +0.182 A 
ATOM      6  N   UNL     1      -1.060  -0.835  -0.273  0.00  0.00    -0.224 N 
BRANCH   5   7
ATOM      7  C   UNL     1      -0.018   1.474   0.010  0.00  0.00    +0.021 A 
ATOM      8  C   UNL     1      -1.235   2.158   0.020  0.00  0.00    +0.013 A 
ATOM      9  C   UNL     1      -1.247   3.538   0.032  0.00  0.00    +0.021 A 
ATOM     10  C   UNL     1      -0.056   4.243   0.024  0.00  0.00    +0.041 A 
ATOM     11  C   UNL     1       1.155   3.570   0.010  0.00  0.00    +0.021 A 
ATOM     12  C   UNL     1       1.180   2.191   0.003  0.00  0.00    +0.013 A 
ATOM     13 CL   UNL     1      -0.079   5.979   0.033  0.00  0.00    -0.084 Cl
ENDBRANCH   5   7
BRANCH   6  14
ATOM     14  N   UNL     1      -2.335  -0.466  -0.593  0.00  0.00    -0.295 N 
ATOM     15  H   UNL     1      -2.442  -0.360  -1.591  0.00  0.00    +0.163 HD
ATOM     16  H   UNL     1      -3.005  -1.124  -0.225  0.00  0.00    +0.163 HD
ENDBRANCH   6  14
ENDBRANCH   1   2
BRANCH   1  17
ATOM     17  C   UNL     1      -0.173  -4.812  -0.085  0.00  0.00    +0.151 C 
BRANCH  17  26
ATOM     18  N   UNL     1      -0.744  -6.912  -1.402  0.00  0.00    -0.327 N 
ATOM     19  C   UNL     1      -1.335  -8.128  -1.136  0.00  0.00    +0.069 A 
ATOM     20  C   UNL     1      -1.621  -9.249  -1.907  0.00  0.00    +0.029 A 
ATOM     21  C   UNL     1      -2.230 -10.332  -1.342  0.00  0.00    +0.017 A 
ATOM     22  C   UNL     1      -2.572 -10.326   0.017  0.00  0.00    +0.065 A 
ATOM     23  C   UNL     1      -2.293  -9.212   0.804  0.00  0.00    +0.045 A 
ATOM     24  C   UNL     1      -1.671  -8.105   0.230  0.00  0.00    +0.090 A 
ATOM     25  N   UNL     1      -1.270  -6.901   0.716  0.00  0.00    -0.231 NA
ATOM     26  C   UNL     1      -0.732  -6.202  -0.241  0.00  0.00    +0.121 A 
BRANCH  22  27
ATOM     27  C   UNL     1      -3.230 -11.503   0.616  0.00  0.00    +0.387 C 
ATOM     28  O   UNL     1      -3.527 -11.500   1.794  0.00  0.00    -0.241 OA
ATOM     29  O   UNL     1      -3.501 -12.582  -0.144  0.00  0.00    -0.241 OA
ENDBRANCH  22  27
BRANCH  18  31
ATOM     30  C   UNL     1       1.249  -6.865  -2.820  0.00  0.00    +0.027 C 
ATOM     31  C   UNL     1      -0.223  -6.466  -2.696  0.00  0.00    +0.120 C 
ENDBRANCH  18  31
ENDBRANCH  17  26
ENDBRANCH   1  17
TORSDOF 7
