REMARK  Name = ZINC23126812
REMARK  4 active torsions:
REMARK  status: ('A' for Active; 'I' for Inactive)
REMARK    1  A    between atoms: C_1  and  C_2
REMARK    2  A    between atoms: C_4  and  C_26
REMARK    3  A    between atoms: C_6  and  N_8
REMARK    4  A    between atoms: N_15  and  C_19
REMARK                            x       y       z     vdW  Elec       q    Type
REMARK                         _______ _______ _______ _____ _____    ______ ____
ROOT
ATOM      1  N   UNL     1      -0.043   1.016  -0.009  0.00  0.00    -0.269 N 
ATOM      2  C   UNL     1      -1.239   1.636   0.007  0.00  0.00    +0.309 C 
ATOM      3  O   UNL     1      -1.297   2.848  -0.074  0.00  0.00    -0.252 OA
ATOM      4  N   UNL     1      -2.372   0.913   0.113  0.00  0.00    -0.250 N 
ATOM      5  C   UNL     1      -3.608   1.554   0.129  0.00  0.00    +0.192 A 
ATOM      6  C   UNL     1      -4.846   0.777   0.238  0.00  0.00    +0.296 A 
ATOM      7  O   UNL     1      -4.814  -0.440   0.316  0.00  0.00    -0.264 OA
ATOM      8  N   UNL     1      -6.023   1.441   0.257  0.00  0.00    -0.280 N 
ATOM      9  C   UNL     1      -6.019   2.802   0.162  0.00  0.00    +0.114 A 
ATOM     10  C   UNL     1      -4.859   3.485   0.058  0.00  0.00    +0.131 A 
ATOM     11  N   UNL     1      -3.680   2.865   0.042  0.00  0.00    -0.234 NA
ATOM     12  H   UNL     1       0.007  -0.083  -0.007  0.00  0.00    +0.156 HD
ATOM     13  H   UNL     1      -2.320  -0.183   0.186  0.00  0.00    +0.158 HD
ENDROOT
BRANCH   1  19
ATOM     14  C   UNL     1       4.647   1.573   1.355  0.00  0.00    +0.044 C 
ATOM     15  C   UNL     1       3.424   2.063   0.624  0.00  0.00    -0.048 A 
ATOM     16  C   UNL     1       3.467   3.259  -0.069  0.00  0.00    +0.006 A 
ATOM     17  C   UNL     1       2.347   3.712  -0.742  0.00  0.00    -0.048 A 
ATOM     18  C   UNL     1       1.182   2.970  -0.725  0.00  0.00    +0.026 A 
ATOM     19  C   UNL     1       1.136   1.769  -0.029  0.00  0.00    +0.035 A 
ATOM     20  C   UNL     1       2.260   1.321   0.651  0.00  0.00    +0.026 A 
ATOM     21  C   UNL     1       2.398   5.016  -1.497  0.00  0.00    +0.044 C 
ENDBRANCH   1  19
BRANCH   8  22
ATOM     22  C   UNL     1      -7.230   0.741   0.364  0.00  0.00    +0.050 A 
ATOM     23  C   UNL     1      -7.521   0.029   1.521  0.00  0.00    +0.027 A 
ATOM     24  C   UNL     1      -8.715  -0.656   1.627  0.00  0.00    +0.017 A 
ATOM     25  C   UNL     1      -9.617  -0.643   0.577  0.00  0.00    +0.018 A 
ATOM     26  C   UNL     1      -9.328   0.061  -0.578  0.00  0.00    +0.017 A 
ATOM     27  C   UNL     1      -8.138   0.753  -0.687  0.00  0.00    +0.027 A 
ATOM     28 BR   UNL     1     -11.248  -1.589   0.722  0.00  0.00    -0.050 Br
ENDBRANCH   8  22
TORSDOF 2
