REMARK  Name = ZINC39437488
REMARK  5 active torsions:
REMARK  status: ('A' for Active; 'I' for Inactive)
REMARK    1  A    between atoms: C_1  and  C_2
REMARK    2  A    between atoms: C_7  and  C_8
REMARK    3  A    between atoms: C_8  and  N_9
REMARK    4  A    between atoms: C_14  and  C_23
REMARK    5  A    between atoms: C_28  and  C_29
REMARK                            x       y       z     vdW  Elec       q    Type
REMARK                         _______ _______ _______ _____ _____    ______ ____
ROOT
ATOM      1  N   UNL     1      -1.182   0.116   3.177  0.00  0.00    -0.298 N 
ATOM      2  C   UNL     1      -2.364   0.824   2.667  0.00  0.00    +0.110 C 
ATOM      3  C   UNL     1      -3.572   0.189   3.389  0.00  0.00    +0.003 C 
ATOM      4  C   UNL     1      -4.513   1.314   3.882  0.00  0.00    -0.010 C 
ATOM      5  C   UNL     1      -3.743   1.887   5.097  0.00  0.00    -0.052 C 
ATOM      6  N   UNL     1      -3.099   0.716   5.724  0.00  0.00    +0.392 N 
ATOM      7  C   UNL     1      -2.904  -0.341   4.684  0.00  0.00    +0.017 C 
ATOM      8  C   UNL     1      -1.464  -0.548   4.315  0.00  0.00    +0.206 C 
ATOM      9  O   UNL     1      -0.671  -1.212   4.949  0.00  0.00    -0.277 OA
ATOM     10  C   UNL     1      -3.586  -1.630   5.155  0.00  0.00    -0.004 C 
ATOM     11  C   UNL     1      -3.723  -1.417   6.688  0.00  0.00    -0.019 C 
ATOM     12  C   UNL     1      -3.979   0.157   6.773  0.00  0.00    -0.077 C 
ATOM     13  H   UNL     1      -2.208   0.978   6.120  0.00  0.00    -0.080 HD
ENDROOT
BRANCH   5  14
ATOM     14  C   UNL     1      -4.712   2.552   6.076  0.00  0.00    +0.070 C 
ATOM     15  C   UNL     1      -6.011   1.776   6.152  0.00  0.00    +0.115 C 
ATOM     16  N   UNL     1      -6.121   1.378   7.378  0.00  0.00    -0.161 NA
ATOM     17  N   UNL     1      -5.051   1.785   8.168  0.00  0.00    -0.153 NA
ATOM     18  C   UNL     1      -4.173   2.482   7.492  0.00  0.00    +0.077 C 
BRANCH  18  19
ATOM     19  C   UNL     1      -2.925   3.073   7.996  0.00  0.00    -0.001 A 
ATOM     20  C   UNL     1      -2.166   3.916   7.178  0.00  0.00    +0.012 A 
ATOM     21  C   UNL     1      -0.997   4.467   7.657  0.00  0.00    +0.039 A 
ATOM     22  C   UNL     1      -0.572   4.186   8.947  0.00  0.00    +0.123 A 
ATOM     23  C   UNL     1      -1.320   3.351   9.763  0.00  0.00    +0.039 A 
ATOM     24  C   UNL     1      -2.494   2.799   9.298  0.00  0.00    +0.012 A 
ATOM     25  F   UNL     1       0.575   4.729   9.410  0.00  0.00    -0.205 F 
ENDBRANCH  18  19
ENDBRANCH   5  14
BRANCH   1  26
ATOM     26  C   UNL     1       0.132   0.125   2.528  0.00  0.00    +0.143 C 
BRANCH  26  33
ATOM     27  C   UNL     1       2.590  -0.380   1.096  0.00  0.00    +0.044 C 
ATOM     28  C   UNL     1       1.369  -1.220   0.818  0.00  0.00    -0.046 A 
ATOM     29  C   UNL     1       1.428  -2.235  -0.118  0.00  0.00    +0.003 A 
ATOM     30  C   UNL     1       0.309  -3.006  -0.372  0.00  0.00    +0.000 A 
ATOM     31  C   UNL     1      -0.869  -2.761   0.309  0.00  0.00    +0.000 A 
ATOM     32  C   UNL     1      -0.927  -1.746   1.246  0.00  0.00    +0.005 A 
ATOM     33  C   UNL     1       0.194  -0.978   1.504  0.00  0.00    -0.027 A 
ENDBRANCH  26  33
ENDBRANCH   1  26
TORSDOF 4
