REMARK  Name = ZINC16400216
REMARK  7 active torsions:
REMARK  status: ('A' for Active; 'I' for Inactive)
REMARK    1  A    between atoms: C_3  and  C_20
REMARK    2  A    between atoms: C_6  and  C_7
REMARK    3  A    between atoms: C_8  and  C_9
REMARK    4  A    between atoms: C_10  and  N_17
REMARK    5  A    between atoms: N_21  and  C_22
REMARK    6  A    between atoms: C_25  and  O_31
REMARK    7  A    between atoms: C_26  and  C_28
REMARK                            x       y       z     vdW  Elec       q    Type
REMARK                         _______ _______ _______ _____ _____    ______ ____
ROOT
ATOM      1  C   UNL     1      -0.024   1.399  -0.099  0.00  0.00    +0.008 A 
ATOM      2  C   UNL     1       1.148   2.099  -0.124  0.00  0.00    +0.010 A 
ATOM      3  C   UNL     1       2.371   1.417  -0.129  0.00  0.00    -0.007 A 
ATOM      4  C   UNL     1       2.392   0.018  -0.110  0.00  0.00    +0.010 A 
ATOM      5  C   UNL     1       1.220  -0.682  -0.085  0.00  0.00    +0.008 A 
ATOM      6  C   UNL     1      -0.003  -0.000  -0.079  0.00  0.00    -0.025 A 
ENDROOT
BRANCH   6   7
ATOM      7  C   UNL     1      -1.266  -0.754  -0.052  0.00  0.00    +0.010 C 
ATOM      8  C   UNL     1      -1.246  -2.101  -0.034  0.00  0.00    +0.031 C 
BRANCH   8   9
ATOM      9  C   UNL     1      -2.507  -2.854  -0.007  0.00  0.00    +0.105 A 
ATOM     10  C   UNL     1      -2.496  -4.243  -0.096  0.00  0.00    +0.215 A 
ATOM     11  C   UNL     1      -3.719  -4.927  -0.067  0.00  0.00    +0.285 A 
ATOM     12  N   UNL     1      -4.860  -4.216   0.045  0.00  0.00    -0.272 N 
ATOM     13  C   UNL     1      -4.818  -2.860   0.130  0.00  0.00    +0.349 A 
ATOM     14  N   UNL     1      -3.680  -2.206   0.109  0.00  0.00    -0.191 NA
ATOM     15  O   UNL     1      -5.972  -2.170   0.241  0.00  0.00    -0.245 OA
ATOM     16  O   UNL     1      -3.752  -6.145  -0.143  0.00  0.00    -0.265 OA
ATOM     17  H   UNL     1      -5.715  -4.674   0.067  0.00  0.00    +0.174 HD
BRANCH  10  18
ATOM     18  N   UNL     1      -1.219  -4.982  -0.219  0.00  0.00    +0.064 N 
ATOM     19  O   UNL     1      -0.168  -4.390  -0.137  0.00  0.00    -0.126 OA
ATOM     20  O   UNL     1      -1.227  -6.177  -0.402  0.00  0.00    -0.126 OA
ENDBRANCH  10  18
ENDBRANCH   8   9
ENDBRANCH   6   7
BRANCH   3  21
ATOM     21  C   UNL     1       3.634   2.171  -0.157  0.00  0.00    +0.119 C 
ATOM     22  N   UNL     1       4.772   1.536  -0.162  0.00  0.00    -0.255 NA
BRANCH  22  23
ATOM     23  C   UNL     1       5.946   2.237  -0.187  0.00  0.00    +0.065 A 
ATOM     24  C   UNL     1       6.094   3.323  -1.059  0.00  0.00    +0.031 A 
ATOM     25  C   UNL     1       7.274   4.033  -1.089  0.00  0.00    +0.048 A 
ATOM     26  C   UNL     1       8.326   3.678  -0.256  0.00  0.00    +0.131 A 
ATOM     27  C   UNL     1       8.190   2.591   0.623  0.00  0.00    +0.106 A 
ATOM     28  C   UNL     1       6.992   1.875   0.658  0.00  0.00    +0.046 A 
BRANCH  27  29
ATOM     29  C   UNL     1       9.303   2.211   1.508  0.00  0.00    +0.390 C 
ATOM     30  O   UNL     1       9.182   1.264   2.272  0.00  0.00    -0.240 OA
ATOM     31  O   UNL     1      10.351   2.843   1.478  0.00  0.00    -0.240 OA
ENDBRANCH  27  29
BRANCH  26  32
ATOM     32  O   UNL     1       9.486   4.380  -0.290  0.00  0.00    -0.506 OA
ATOM     33  H   UNL     1       9.512   5.127   0.323  0.00  0.00    +0.292 HD
ENDBRANCH  26  32
ENDBRANCH  22  23
ENDBRANCH   3  21
TORSDOF 7
