REMARK  Name = ZINC13112996
REMARK  6 active torsions:
REMARK  status: ('A' for Active; 'I' for Inactive)
REMARK    1  A    between atoms: C_1  and  C_2
REMARK    2  A    between atoms: C_5  and  N_19
REMARK    3  A    between atoms: C_7  and  S_8
REMARK    4  A    between atoms: S_8  and  N_11
REMARK    5  A    between atoms: N_11  and  C_12
REMARK    6  A    between atoms: C_20  and  C_22
REMARK                            x       y       z     vdW  Elec       q    Type
REMARK                         _______ _______ _______ _____ _____    ______ ____
ROOT
ATOM      1  C   UNL     1      -0.069   1.419  -0.025  0.00  0.00    +0.046 C 
ATOM      2  C   UNL     1       0.131  -0.075  -0.023  0.00  0.00    -0.024 A 
ATOM      3  C   UNL     1       0.162  -0.769  -1.218  0.00  0.00    +0.007 A 
ATOM      4  C   UNL     1       0.345  -2.138  -1.219  0.00  0.00    +0.024 A 
ATOM      5  C   UNL     1       0.498  -2.817  -0.018  0.00  0.00    +0.036 A 
ATOM      6  C   UNL     1       0.467  -2.117   1.181  0.00  0.00    +0.052 A 
ATOM      7  C   UNL     1       0.289  -0.748   1.175  0.00  0.00    +0.113 A 
ENDROOT
BRANCH   5   8
ATOM      8  N   UNL     1       0.683  -4.204  -0.015  0.00  0.00    -0.281 N 
ATOM      9  C   UNL     1       1.355  -4.796  -1.022  0.00  0.00    +0.248 C 
ATOM     10  O   UNL     1       1.876  -4.118  -1.886  0.00  0.00    -0.270 OA
ATOM     11  H   UNL     1       0.328  -4.739   0.712  0.00  0.00    +0.155 HD
BRANCH   9  12
ATOM     12  C   UNL     1       1.458  -6.268  -1.076  0.00  0.00    +0.039 A 
ATOM     13  C   UNL     1       0.850  -7.048  -0.080  0.00  0.00    +0.015 A 
ATOM     14  C   UNL     1       0.938  -8.407  -0.118  0.00  0.00    +0.030 A 
ATOM     15  C   UNL     1       1.634  -9.035  -1.149  0.00  0.00    +0.086 A 
ATOM     16  C   UNL     1       2.249  -8.270  -2.156  0.00  0.00    +0.113 A 
ATOM     17  C   UNL     1       2.151  -6.876  -2.115  0.00  0.00    +0.044 A 
ATOM     18  N   UNL     1       2.846  -9.129  -3.016  0.00  0.00    -0.130 NA
ATOM     19  N   UNL     1       2.655 -10.342  -2.633  0.00  0.00    -0.067 NA
ATOM     20  N   UNL     1       1.894 -10.347  -1.455  0.00  0.00    -0.257 N 
ATOM     21  H   UNL     1       1.607 -11.127  -0.955  0.00  0.00    +0.191 HD
ENDBRANCH   9  12
ENDBRANCH   5   8
BRANCH   7  22
ATOM     22  S   UNL     1       0.256   0.143   2.695  0.00  0.00    +0.073 S 
ATOM     23  O   UNL     1       0.392  -0.819   3.732  0.00  0.00    -0.150 OA
ATOM     24  O   UNL     1       1.153   1.234   2.546  0.00  0.00    -0.150 OA
BRANCH  22  25
ATOM     25  N   UNL     1      -1.259   0.793   2.849  0.00  0.00    -0.216 N 
ATOM     26  H   UNL     1      -1.380   1.755   2.814  0.00  0.00    +0.174 HD
BRANCH  25  27
ATOM     27  C   UNL     1      -2.364  -0.043   3.029  0.00  0.00    +0.048 A 
ATOM     28  C   UNL     1      -2.508  -1.183   2.248  0.00  0.00    +0.026 A 
ATOM     29  C   UNL     1      -3.600  -2.009   2.429  0.00  0.00    +0.022 A 
ATOM     30  C   UNL     1      -4.551  -1.700   3.386  0.00  0.00    +0.041 A 
ATOM     31  C   UNL     1      -4.410  -0.565   4.165  0.00  0.00    +0.022 A 
ATOM     32  C   UNL     1      -3.317   0.261   3.992  0.00  0.00    +0.026 A 
ATOM     33 CL   UNL     1      -5.924  -2.739   3.609  0.00  0.00    -0.084 Cl
ENDBRANCH  25  27
ENDBRANCH  22  25
ENDBRANCH   7  22
TORSDOF 5
