REMARK  Name = ZINC13283482
REMARK  8 active torsions:
REMARK  status: ('A' for Active; 'I' for Inactive)
REMARK    1  A    between atoms: C_3  and  N_16
REMARK    2  A    between atoms: C_6  and  C_7
REMARK    3  A    between atoms: C_8  and  C_9
REMARK    4  A    between atoms: C_9  and  C_14
REMARK    5  A    between atoms: N_16  and  C_17
REMARK    6  A    between atoms: C_17  and  C_18
REMARK    7  A    between atoms: C_19  and  C_26
REMARK    8  A    between atoms: C_20  and  N_25
REMARK                            x       y       z     vdW  Elec       q    Type
REMARK                         _______ _______ _______ _____ _____    ______ ____
ROOT
ATOM      1  C   UNL     1      -6.386   5.779   0.067  0.00  0.00    +0.073 A 
ATOM      2  C   UNL     1      -7.048   5.998   1.273  0.00  0.00    +0.045 A 
ATOM      3  C   UNL     1      -8.380   6.449   1.229  0.00  0.00    +0.129 A 
ATOM      4  N   UNL     1      -8.951   6.647   0.047  0.00  0.00    -0.199 NA
ATOM      5  C   UNL     1      -8.282   6.425  -1.074  0.00  0.00    +0.215 A 
ATOM      6  N   UNL     1      -7.025   6.005  -1.069  0.00  0.00    -0.217 NA
ATOM      7  N   UNL     1      -8.912   6.643  -2.287  0.00  0.00    -0.327 N 
ATOM      8  H   UNL     1      -9.831   6.954  -2.307  0.00  0.00    +0.145 HD
ATOM      9  H   UNL     1      -8.435   6.485  -3.116  0.00  0.00    +0.145 HD
ENDROOT
BRANCH   2  10
ATOM     10  C   UNL     1      -6.367   5.762   2.569  0.00  0.00    -0.013 A 
ATOM     11  C   UNL     1      -5.979   4.473   2.931  0.00  0.00    +0.010 A 
ATOM     12  C   UNL     1      -5.341   4.259   4.136  0.00  0.00    +0.020 A 
ATOM     13  C   UNL     1      -5.096   5.321   4.989  0.00  0.00    +0.041 A 
ATOM     14  C   UNL     1      -5.483   6.603   4.637  0.00  0.00    +0.020 A 
ATOM     15  C   UNL     1      -6.117   6.828   3.432  0.00  0.00    +0.010 A 
ATOM     16 CL   UNL     1      -4.298   5.045   6.506  0.00  0.00    -0.084 Cl
ENDBRANCH   2  10
BRANCH   3  17
ATOM     17  N   UNL     1      -9.082   6.683   2.398  0.00  0.00    -0.343 N 
ATOM     18  H   UNL     1      -8.657   6.536   3.257  0.00  0.00    +0.144 HD
ATOM     19  H   UNL     1     -10.001   6.993   2.358  0.00  0.00    +0.144 HD
ENDBRANCH   3  17
BRANCH   1  20
ATOM     20  C   UNL     1      -4.958   5.296   0.057  0.00  0.00    +0.158 C 
BRANCH  20  21
ATOM     21  N   UNL     1      -4.938   3.831   0.048  0.00  0.00    -0.338 N 
ATOM     22  H   UNL     1      -5.772   3.335   0.050  0.00  0.00    +0.146 HD
BRANCH  21  25
ATOM     23  C   UNL     1      -1.323   3.193   0.032  0.00  0.00    +0.010 A 
ATOM     24  C   UNL     1      -2.527   3.863   0.036  0.00  0.00    +0.023 A 
ATOM     25  C   UNL     1      -3.721   3.150   0.038  0.00  0.00    +0.027 A 
ATOM     26  C   UNL     1      -3.703   1.760   0.030  0.00  0.00    +0.023 A 
ATOM     27  C   UNL     1      -2.502   1.084   0.020  0.00  0.00    +0.010 A 
ATOM     28  C   UNL     1      -1.302   1.797   0.018  0.00  0.00    -0.025 A 
BRANCH  28  29
ATOM     29  C   UNL     1      -0.013   1.076   0.008  0.00  0.00    +0.009 C 
ATOM     30  C   UNL     1       1.127   1.754   0.001  0.00  0.00    +0.039 C 
BRANCH  30  31
ATOM     31  C   UNL     1       2.442   1.019  -0.016  0.00  0.00    +0.204 C 
ATOM     32  O   UNL     1       2.203  -0.395  -0.012  0.00  0.00    -0.342 OA
ATOM     33  C   UNL     1       2.808  -0.931   1.179  0.00  0.00    +0.192 C 
ATOM     34  C   UNL     1       2.912   0.306   2.105  0.00  0.00    +0.192 C 
ATOM     35  O   UNL     1       3.201   1.361   1.156  0.00  0.00    -0.342 OA
BRANCH  31  36
ATOM     36  C   UNL     1       3.230   1.403  -1.269  0.00  0.00    +0.178 C 
ATOM     37 CL   UNL     1       3.538   3.180  -1.264  0.00  0.00    -0.120 Cl
ENDBRANCH  31  36
ENDBRANCH  30  31
ENDBRANCH  28  29
ENDBRANCH  21  25
ENDBRANCH  20  21
ENDBRANCH   1  20
TORSDOF 8
