REMARK  Name = ZINC39016089
REMARK  7 active torsions:
REMARK  status: ('A' for Active; 'I' for Inactive)
REMARK    1  A    between atoms: C_4  and  C_7
REMARK    2  A    between atoms: C_9  and  C_13
REMARK    3  A    between atoms: C_17  and  S_21
REMARK    4  A    between atoms: N_19  and  N_20
REMARK    5  A    between atoms: S_21  and  C_22
REMARK    6  A    between atoms: C_22  and  C_23
REMARK    7  A    between atoms: N_25  and  C_26
REMARK                            x       y       z     vdW  Elec       q    Type
REMARK                         _______ _______ _______ _____ _____    ______ ____
ROOT
ATOM      1  C   UNL     1       5.796  -3.017   1.155  0.00  0.00    +0.185 C 
ATOM      2  N   UNL     1       5.521  -2.223   2.382  0.00  0.00    -0.234 NA
ATOM      3  N   UNL     1       6.466  -2.742   3.374  0.00  0.00    -0.228 NA
ATOM      4  C   UNL     1       7.587  -3.344   2.625  0.00  0.00    +0.214 C 
ATOM      5  N   UNL     1       7.274  -3.176   1.185  0.00  0.00    -0.197 NA
ATOM      6  H   UNL     1       4.568  -2.350   2.688  0.00  0.00    +0.143 HD
ATOM      7  H   UNL     1       6.792  -2.006   3.983  0.00  0.00    +0.143 HD
ENDROOT
BRANCH   1  10
ATOM      8  C   UNL     1       3.720  -0.697  -0.081  0.00  0.00    +0.091 C 
ATOM      9  C   UNL     1       3.855  -2.038  -0.093  0.00  0.00    +0.034 C 
ATOM     10  C   UNL     1       5.358  -2.252  -0.095  0.00  0.00    +0.187 C 
ATOM     11  N   UNL     1       5.893  -0.880  -0.084  0.00  0.00    -0.176 NA
ATOM     12  N   UNL     1       4.940  -0.098  -0.083  0.00  0.00    -0.154 NA
BRANCH   8  16
ATOM     13  C   UNL     1       0.003   1.367  -0.064  0.00  0.00    +0.000 A 
ATOM     14  C   UNL     1       1.187   2.081  -0.064  0.00  0.00    +0.001 A 
ATOM     15  C   UNL     1       2.397   1.416  -0.069  0.00  0.00    +0.010 A 
ATOM     16  C   UNL     1       2.423   0.023  -0.075  0.00  0.00    +0.002 A 
ATOM     17  C   UNL     1       1.226  -0.691  -0.075  0.00  0.00    +0.010 A 
ATOM     18  C   UNL     1       0.023  -0.016  -0.070  0.00  0.00    +0.001 A 
ENDBRANCH   8  16
ENDBRANCH   1  10
BRANCH   5  19
ATOM     19  N   UNL     1       7.689  -4.339   0.418  0.00  0.00    -0.264 NA
ATOM     20  H   UNL     1       8.692  -4.447   0.437  0.00  0.00    +0.137 HD
ATOM     21  H   UNL     1       7.229  -5.174   0.750  0.00  0.00    +0.137 HD
ENDBRANCH   5  19
BRANCH   4  22
ATOM     22  S   UNL     1       9.136  -2.492   3.032  0.00  0.00    -0.115 S 
BRANCH  22  23
ATOM     23  C   UNL     1       8.819  -0.765   2.576  0.00  0.00    +0.168 C 
BRANCH  23  24
ATOM     24  C   UNL     1      10.044   0.064   2.868  0.00  0.00    +0.227 C 
ATOM     25  O   UNL     1      11.032  -0.459   3.337  0.00  0.00    -0.275 OA
ATOM     26  N   UNL     1      10.040   1.387   2.607  0.00  0.00    -0.285 N 
ATOM     27  H   UNL     1       9.275   1.793   2.171  0.00  0.00    +0.155 HD
BRANCH  26  28
ATOM     28  C   UNL     1      11.140   2.174   2.967  0.00  0.00    +0.035 A 
ATOM     29  C   UNL     1      10.948   3.479   3.402  0.00  0.00    +0.025 A 
ATOM     30  C   UNL     1      12.035   4.254   3.757  0.00  0.00    +0.023 A 
ATOM     31  C   UNL     1      13.314   3.732   3.680  0.00  0.00    +0.059 A 
ATOM     32  C   UNL     1      13.508   2.431   3.246  0.00  0.00    +0.061 A 
ATOM     33  C   UNL     1      12.423   1.650   2.895  0.00  0.00    +0.044 A 
ATOM     34 CL   UNL     1      15.114   1.780   3.149  0.00  0.00    -0.082 Cl
ATOM     35 CL   UNL     1      14.678   4.709   4.127  0.00  0.00    -0.082 Cl
ENDBRANCH  26  28
ENDBRANCH  23  24
ENDBRANCH  22  23
ENDBRANCH   4  22
TORSDOF 7
