REMARK  Name = ZINC28055226
REMARK  3 active torsions:
REMARK  status: ('A' for Active; 'I' for Inactive)
REMARK    1  A    between atoms: C_1  and  C_2
REMARK    2  A    between atoms: C_10  and  C_18
REMARK    3  A    between atoms: C_25  and  C_28
REMARK                            x       y       z     vdW  Elec       q    Type
REMARK                         _______ _______ _______ _____ _____    ______ ____
ROOT
ATOM      1  C   UNL     1       2.123  -6.101   0.925  0.00  0.00    +0.044 C 
ATOM      2  C   UNL     1       1.241  -4.977   0.447  0.00  0.00    -0.050 A 
ATOM      3  C   UNL     1       1.170  -4.685  -0.904  0.00  0.00    +0.007 A 
ATOM      4  C   UNL     1       0.364  -3.657  -1.359  0.00  0.00    +0.046 A 
ATOM      5  C   UNL     1      -0.376  -2.915  -0.458  0.00  0.00    +0.131 A 
ATOM      6  C   UNL     1      -0.305  -3.209   0.910  0.00  0.00    +0.038 A 
ATOM      7  C   UNL     1       0.506  -4.244   1.359  0.00  0.00    +0.016 A 
ATOM      8  C   UNL     1      -1.115  -2.395   1.847  0.00  0.00    +0.050 C 
ATOM      9  C   UNL     1      -1.596  -1.226   1.421  0.00  0.00    +0.025 C 
ATOM     10  C   UNL     1      -2.432  -0.328   2.299  0.00  0.00    +0.174 C 
ATOM     11  N   UNL     1      -2.857  -1.047   3.491  0.00  0.00    -0.201 N 
ATOM     12  C   UNL     1      -2.339  -2.241   3.881  0.00  0.00    +0.240 A 
ATOM     13  N   UNL     1      -2.937  -2.582   4.986  0.00  0.00    -0.092 NA
ATOM     14  N   UNL     1      -3.804  -1.688   5.318  0.00  0.00    -0.021 NA
ATOM     15  N   UNL     1      -3.812  -0.724   4.455  0.00  0.00    -0.042 NA
ATOM     16  N   UNL     1      -1.355  -2.875   3.141  0.00  0.00    -0.282 N 
ATOM     17  C   UNL     1      -1.293  -0.775   0.010  0.00  0.00    +0.234 C 
ATOM     18  O   UNL     1      -1.178  -1.897  -0.863  0.00  0.00    -0.479 OA
ATOM     19  H   UNL     1      -0.772  -3.723   3.530  0.00  0.00    +0.155 HD
ENDROOT
BRANCH  17  20
ATOM     20  C   UNL     1       0.002  -0.004   0.002  0.00  0.00    -0.002 A 
ATOM     21  C   UNL     1      -0.014   1.372  -0.128  0.00  0.00    +0.010 A 
ATOM     22  C   UNL     1       1.173   2.080  -0.135  0.00  0.00    +0.040 A 
ATOM     23  C   UNL     1       2.379   1.411  -0.013  0.00  0.00    +0.137 A 
ATOM     24  C   UNL     1       2.394   0.032   0.116  0.00  0.00    +0.053 A 
ATOM     25  C   UNL     1       1.205  -0.674   0.124  0.00  0.00    +0.025 A 
ATOM     26 BR   UNL     1       4.040  -0.884   0.284  0.00  0.00    -0.047 Br
ATOM     27  F   UNL     1       3.539   2.102  -0.021  0.00  0.00    -0.204 F 
ENDBRANCH  17  20
BRANCH  10  28
ATOM     28  C   UNL     1      -1.614   0.872   2.704  0.00  0.00    -0.019 A 
ATOM     29  C   UNL     1      -0.451   0.701   3.431  0.00  0.00    +0.009 A 
ATOM     30  C   UNL     1       0.302   1.800   3.799  0.00  0.00    +0.039 A 
ATOM     31  C   UNL     1      -0.115   3.073   3.447  0.00  0.00    +0.123 A 
ATOM     32  C   UNL     1      -1.282   3.243   2.723  0.00  0.00    +0.039 A 
ATOM     33  C   UNL     1      -2.031   2.142   2.352  0.00  0.00    +0.009 A 
ATOM     34  F   UNL     1       0.618   4.149   3.810  0.00  0.00    -0.205 F 
ENDBRANCH  10  28
TORSDOF 2
