REMARK  Name = ZINC57771182
REMARK  2 active torsions:
REMARK  status: ('A' for Active; 'I' for Inactive)
REMARK    1  A    between atoms: C_1  and  C_2
REMARK    2  A    between atoms: C_11  and  C_13
REMARK                            x       y       z     vdW  Elec       q    Type
REMARK                         _______ _______ _______ _____ _____    ______ ____
ROOT
ATOM      1  C   UNL     1      -6.530   1.021   0.073  0.00  0.00    +0.250 C 
ATOM      2  O   UNL     1      -7.397   0.169   0.077  0.00  0.00    -0.270 OA
ATOM      3  N   UNL     1      -6.867   2.326   0.085  0.00  0.00    -0.261 N 
ATOM      4  C   UNL     1      -8.202   2.695   0.101  0.00  0.00    +0.166 A 
ATOM      5  N   UNL     1      -9.268   1.930   0.113  0.00  0.00    -0.225 NA
ATOM      6  C   UNL     1     -10.522   2.432   0.128  0.00  0.00    +0.080 A 
ATOM      7  C   UNL     1     -11.746   1.723   0.142  0.00  0.00    +0.030 A 
ATOM      8  C   UNL     1     -12.942   2.391   0.156  0.00  0.00    +0.022 A 
ATOM      9  C   UNL     1     -12.998   3.779   0.157  0.00  0.00    +0.042 A 
ATOM     10  C   UNL     1     -11.819   4.504   0.144  0.00  0.00    +0.037 A 
ATOM     11  C   UNL     1     -10.617   3.842   0.130  0.00  0.00    +0.042 A 
ATOM     12  S   UNL     1      -8.910   4.336   0.118  0.00  0.00    -0.052 S 
ATOM     13 CL   UNL     1     -14.530   4.595   0.174  0.00  0.00    -0.084 Cl
ATOM     14  H   UNL     1      -6.176   3.006   0.082  0.00  0.00    +0.157 HD
ENDROOT
BRANCH   1  25
ATOM     15  C   UNL     1      -0.018   1.503   0.010  0.00  0.00    +0.109 C 
ATOM     16  C   UNL     1       0.002  -0.004   0.002  0.00  0.00    +0.217 C 
ATOM     17  O   UNL     1       1.060  -0.596  -0.011  0.00  0.00    -0.276 OA
ATOM     18  N   UNL     1      -1.156  -0.694   0.009  0.00  0.00    -0.271 N 
ATOM     19  C   UNL     1      -1.262  -2.155   0.008  0.00  0.00    +0.118 C 
ATOM     20  C   UNL     1      -2.770  -2.451   0.019  0.00  0.00    +0.056 C 
ATOM     21  C   UNL     1      -3.424  -1.087   0.025  0.00  0.00    -0.024 A 
ATOM     22  C   UNL     1      -2.426  -0.120   0.025  0.00  0.00    +0.040 A 
ATOM     23  C   UNL     1      -2.784   1.232   0.036  0.00  0.00    +0.024 A 
ATOM     24  C   UNL     1      -4.107   1.603   0.052  0.00  0.00    +0.015 A 
ATOM     25  C   UNL     1      -5.108   0.627   0.057  0.00  0.00    +0.037 A 
ATOM     26  C   UNL     1      -4.752  -0.724   0.035  0.00  0.00    +0.018 A 
ENDBRANCH   1  25
TORSDOF 1
