REMARK  Name = ZINC04520306
REMARK  5 active torsions:
REMARK  status: ('A' for Active; 'I' for Inactive)
REMARK    1  A    between atoms: C_1  and  C_2
REMARK    2  A    between atoms: C_10  and  C_19
REMARK    3  A    between atoms: C_12  and  N_51
REMARK    4  A    between atoms: N_21  and  C_22
REMARK    5  A    between atoms: C_22  and  C_23
REMARK                            x       y       z     vdW  Elec       q    Type
REMARK                         _______ _______ _______ _____ _____    ______ ____
ROOT
ATOM      1  C   UNL     1     -10.191  -2.554   0.628  0.00  0.00    +0.045 C 
ATOM      2  C   UNL     1      -8.713  -2.393   0.382  0.00  0.00    -0.034 A 
ATOM      3  C   UNL     1      -8.234  -2.248  -0.927  0.00  0.00    +0.008 A 
ATOM      4  C   UNL     1      -6.895  -2.106  -1.141  0.00  0.00    +0.047 A 
ATOM      5  C   UNL     1      -6.013  -2.108  -0.045  0.00  0.00    +0.143 A 
ATOM      6  N   UNL     1      -4.704  -1.978  -0.269  0.00  0.00    -0.212 NA
ATOM      7  C   UNL     1      -3.833  -1.958   0.727  0.00  0.00    +0.147 A 
ATOM      8  C   UNL     1      -4.292  -2.060   2.061  0.00  0.00    +0.083 A 
ATOM      9  C   UNL     1      -3.391  -1.978   3.133  0.00  0.00    +0.033 A 
ATOM     10  C   UNL     1      -2.067  -1.619   2.884  0.00  0.00    +0.078 A 
ATOM     11  C   UNL     1      -1.695  -1.296   1.490  0.00  0.00    +0.119 A 
ATOM     12  N   UNL     1      -2.480  -1.843   0.483  0.00  0.00    -0.325 N 
ATOM     13  H   UNL     1      -2.093  -2.132  -0.358  0.00  0.00    +0.169 HD
ATOM     14  C   UNL     1      -5.682  -2.228   2.288  0.00  0.00    +0.268 A 
ATOM     15  O   UNL     1      -6.118  -2.356   3.418  0.00  0.00    -0.267 OA
ATOM     16  N   UNL     1      -6.512  -2.242   1.221  0.00  0.00    -0.267 N 
ATOM     17  C   UNL     1      -7.852  -2.389   1.424  0.00  0.00    +0.099 A 
ATOM     18  N   UNL     1      -0.629  -0.506   1.271  0.00  0.00    -0.368 N 
ATOM     19  H   UNL     1      -0.092  -0.136   2.065  0.00  0.00    +0.161 HD
ENDROOT
BRANCH  18  20
ATOM     20  C   UNL     1      -0.222  -0.165  -0.136  0.00  0.00    +0.081 C 
ATOM     21  C   UNL     1      -0.265   1.363  -0.309  0.00  0.00    +0.024 C 
ATOM     22  C   UNL     1       1.179   1.812  -0.618  0.00  0.00    +0.002 C 
ATOM     23  C   UNL     1       2.062   0.685  -0.027  0.00  0.00    +0.002 C 
ATOM     24  C   UNL     1       1.245  -0.592  -0.345  0.00  0.00    +0.024 C 
ENDBRANCH  18  20
BRANCH  10  25
ATOM     25  C   UNL     1      -1.078  -1.560   3.966  0.00  0.00    +0.248 C 
ATOM     26  O   UNL     1       0.071  -1.240   3.723  0.00  0.00    -0.270 OA
ATOM     27  N   UNL     1      -1.442  -1.859   5.229  0.00  0.00    -0.308 N 
ATOM     28  H   UNL     1      -2.358  -2.114   5.422  0.00  0.00    +0.149 HD
BRANCH  27  29
ATOM     29  C   UNL     1      -0.455  -1.800   6.309  0.00  0.00    +0.131 C 
BRANCH  29  30
ATOM     30  C   UNL     1      -1.112  -2.178   7.612  0.00  0.00    -0.016 C 
ATOM     31  C   UNL     1      -0.616  -3.147   8.339  0.00  0.00    +0.005 C 
ENDBRANCH  29  30
ENDBRANCH  27  29
ENDBRANCH  10  25
TORSDOF 4
