REMARK  Name = ZINC43218814
REMARK  5 active torsions:
REMARK  status: ('A' for Active; 'I' for Inactive)
REMARK    1  A    between atoms: C_4  and  C_7
REMARK    2  A    between atoms: C_7  and  C_31
REMARK    3  A    between atoms: C_12  and  C_15
REMARK    4  A    between atoms: C_19  and  O_21
REMARK    5  A    between atoms: O_21  and  C_22
REMARK                            x       y       z     vdW  Elec       q    Type
REMARK                         _______ _______ _______ _____ _____    ______ ____
ROOT
ATOM      1  C   UNL     1       3.711  -0.707  -0.038  0.00  0.00    +0.074 C 
ATOM      2  C   UNL     1       3.581  -2.021  -0.835  0.00  0.00    +0.092 C 
ATOM      3  C   UNL     1       4.058  -1.664  -2.270  0.00  0.00    +0.079 C 
ATOM      4  C   UNL     1       4.413  -0.164  -2.207  0.00  0.00    -0.026 C 
ATOM      5  N   UNL     1       4.735   0.080  -0.771  0.00  0.00    +0.398 N 
ATOM      6  C   UNL     1       5.322  -2.483  -2.421  0.00  0.00    +0.242 C 
ATOM      7  O   UNL     1       6.100  -2.506  -3.513  0.00  0.00    -0.273 OA
ATOM      8  N   UNL     1       5.539  -3.160  -1.334  0.00  0.00    -0.145 NA
ATOM      9  C   UNL     1       4.630  -3.001  -0.353  0.00  0.00    +0.242 C 
ATOM     10  O   UNL     1       4.641  -3.541   0.734  0.00  0.00    -0.273 OA
ATOM     11  H   UNL     1       4.645   1.062  -0.556  0.00  0.00    -0.083 HD
ATOM     12  H   UNL     1       5.662  -0.249  -0.545  0.00  0.00    -0.083 HD
ENDROOT
BRANCH   1  16
ATOM     13  C   UNL     1      -0.017   1.378   0.010  0.00  0.00    +0.000 A 
ATOM     14  C   UNL     1       1.171   2.086   0.002  0.00  0.00    +0.000 A 
ATOM     15  C   UNL     1       2.377   1.411  -0.013  0.00  0.00    +0.003 A 
ATOM     16  C   UNL     1       2.396   0.029  -0.020  0.00  0.00    -0.047 A 
ATOM     17  C   UNL     1       1.208  -0.679  -0.012  0.00  0.00    +0.003 A 
ATOM     18  C   UNL     1       0.002  -0.004   0.002  0.00  0.00    +0.000 A 
ENDBRANCH   1  16
BRANCH   4  19
ATOM     19  C   UNL     1       5.622   0.126  -3.059  0.00  0.00    -0.057 A 
ATOM     20  C   UNL     1       6.888  -0.152  -2.578  0.00  0.00    +0.002 A 
ATOM     21  C   UNL     1       7.999   0.113  -3.357  0.00  0.00    +0.004 A 
ATOM     22  C   UNL     1       7.846   0.657  -4.618  0.00  0.00    +0.046 A 
ATOM     23  C   UNL     1       6.577   0.937  -5.102  0.00  0.00    +0.130 A 
ATOM     24  C   UNL     1       5.463   0.664  -4.321  0.00  0.00    +0.048 A 
BRANCH  23  25
ATOM     25  O   UNL     1       6.424   1.472  -6.342  0.00  0.00    -0.406 OA
BRANCH  25  26
ATOM     26  C   UNL     1       7.614   1.721  -7.093  0.00  0.00    +0.575 C 
ATOM     27  F   UNL     1       8.305   0.519  -7.284  0.00  0.00    -0.133 F 
ATOM     28  F   UNL     1       7.277   2.268  -8.335  0.00  0.00    -0.133 F 
ATOM     29  F   UNL     1       8.427   2.619  -6.393  0.00  0.00    -0.133 F 
ENDBRANCH  25  26
ENDBRANCH  23  25
ENDBRANCH   4  19
BRANCH   1  30
ATOM     30  C   UNL     1       4.173  -0.988   1.369  0.00  0.00    +0.350 C 
ATOM     31  O   UNL     1       3.488  -1.671   2.111  0.00  0.00    -0.248 OA
ATOM     32  O   UNL     1       5.232  -0.531   1.766  0.00  0.00    -0.248 OA
ENDBRANCH   1  30
TORSDOF 5
