REMARK  Name = ZINC08898647
REMARK  10 active torsions:
REMARK  status: ('A' for Active; 'I' for Inactive)
REMARK    1  A    between atoms: C_1  and  C_2
REMARK    2  A    between atoms: C_2  and  O_3
REMARK    3  A    between atoms: O_3  and  C_4
REMARK    4  A    between atoms: C_4  and  C_6
REMARK    5  A    between atoms: C_7  and  C_24
REMARK    6  A    between atoms: C_10  and  N_11
REMARK    7  A    between atoms: C_12  and  C_14
REMARK    8  A    between atoms: C_14  and  N_54
REMARK    9  A    between atoms: C_16  and  C_23
REMARK   10  A    between atoms: C_19  and  C_22
REMARK                            x       y       z     vdW  Elec       q    Type
REMARK                         _______ _______ _______ _____ _____    ______ ____
ROOT
ATOM      1  C   UNL     1      -0.017   2.216   7.259  0.00  0.00    +0.095 A 
ATOM      2  C   UNL     1      -0.655   3.099   8.217  0.00  0.00    +0.005 A 
ATOM      3  C   UNL     1      -1.614   3.930   7.737  0.00  0.00    +0.056 A 
ATOM      4  S   UNL     1      -1.662   3.541   6.000  0.00  0.00    -0.080 S 
ATOM      5  C   UNL     1      -0.441   2.315   5.941  0.00  0.00    +0.086 A 
ENDROOT
BRANCH   2   6
ATOM      6  C   UNL     1      -0.282   3.089   9.652  0.00  0.00    -0.016 A 
ATOM      7  C   UNL     1      -0.229   1.885  10.353  0.00  0.00    +0.009 A 
ATOM      8  C   UNL     1       0.123   1.881  11.687  0.00  0.00    +0.016 A 
ATOM      9  C   UNL     1       0.414   3.071  12.332  0.00  0.00    +0.018 A 
ATOM     10  C   UNL     1       0.358   4.270  11.642  0.00  0.00    +0.016 A 
ATOM     11  C   UNL     1       0.012   4.285  10.306  0.00  0.00    +0.009 A 
ATOM     12 BR   UNL     1       0.890   3.059  14.162  0.00  0.00    -0.050 Br
ENDBRANCH   2   6
BRANCH   5  13
ATOM     13  N   UNL     1       0.002   1.598   4.840  0.00  0.00    -0.281 N 
ATOM     14  C   UNL     1      -0.535   1.827   3.626  0.00  0.00    +0.201 C 
ATOM     15  O   UNL     1      -1.407   2.660   3.496  0.00  0.00    -0.278 OA
ATOM     16  H   UNL     1       0.700   0.932   4.945  0.00  0.00    +0.155 HD
BRANCH  14  17
ATOM     17  C   UNL     1      -0.053   1.047   2.430  0.00  0.00    +0.019 C 
BRANCH  17  25
ATOM     18  C   UNL     1      -2.265   0.891   1.455  0.00  0.00    -0.046 C 
ATOM     19  C   UNL     1      -3.114   1.299   0.248  0.00  0.00    +0.099 C 
ATOM     20  O   UNL     1      -2.519   0.780  -0.944  0.00  0.00    -0.378 OA
ATOM     21  C   UNL     1      -1.178   1.228  -1.161  0.00  0.00    +0.099 C 
ATOM     22  C   UNL     1      -0.310   0.819   0.031  0.00  0.00    -0.046 C 
ATOM     23  C   UNL     1      -1.166   2.751  -1.305  0.00  0.00    +0.036 C 
ATOM     24  C   UNL     1      -4.527   0.734   0.403  0.00  0.00    +0.036 C 
ATOM     25  N   UNL     1      -0.890   1.398   1.262  0.00  0.00    +0.389 N 
ATOM     26  H   UNL     1      -0.921   2.420   1.168  0.00  0.00    -0.081 HD
ENDBRANCH  17  25
ENDBRANCH  14  17
ENDBRANCH   5  13
BRANCH   1  27
ATOM     27  C   UNL     1       1.025   1.272   7.661  0.00  0.00    +0.342 C 
ATOM     28  O   UNL     1       2.193   1.612   7.647  0.00  0.00    -0.245 OA
BRANCH  27  29
ATOM     29  O   UNL     1       0.691   0.023   8.048  0.00  0.00    -0.461 OA
BRANCH  29  31
ATOM     30  C   UNL     1       1.208  -2.222   8.838  0.00  0.00    +0.048 C 
ATOM     31  C   UNL     1       1.777  -0.860   8.433  0.00  0.00    +0.229 C 
ENDBRANCH  29  31
ENDBRANCH  27  29
ENDBRANCH   1  27
TORSDOF 7
