REMARK  Name = ZINC23441998
REMARK  3 active torsions:
REMARK  status: ('A' for Active; 'I' for Inactive)
REMARK    1  A    between atoms: C_6  and  C_7
REMARK    2  A    between atoms: C_9  and  C_12
REMARK    3  A    between atoms: C_18  and  C_20
REMARK                            x       y       z     vdW  Elec       q    Type
REMARK                         _______ _______ _______ _____ _____    ______ ____
ROOT
ATOM      1  C   UNL     1       0.002  -0.004   0.002  0.00  0.00    +0.081 C 
ATOM      2  C   UNL     1      -0.019   1.526   0.010  0.00  0.00    +0.032 C 
ATOM      3  C   UNL     1       1.420   2.052  -0.001  0.00  0.00    +0.109 C 
ATOM      4  N   UNL     1       2.130   1.465  -1.145  0.00  0.00    -0.297 N 
ATOM      5  C   UNL     1       2.135   0.004  -1.299  0.00  0.00    +0.109 C 
ATOM      6  C   UNL     1       0.688  -0.500  -1.273  0.00  0.00    +0.032 C 
ATOM      7  C   UNL     1       2.765   2.251  -2.036  0.00  0.00    +0.252 C 
ATOM      8  O   UNL     1       3.349   1.753  -2.979  0.00  0.00    -0.270 OA
ENDROOT
BRANCH   7   9
ATOM      9  C   UNL     1       2.751   3.716  -1.869  0.00  0.00    +0.113 A 
ATOM     10  C   UNL     1       3.752   4.347  -1.122  0.00  0.00    +0.176 A 
ATOM     11  C   UNL     1       3.737   5.722  -0.974  0.00  0.00    +0.197 A 
ATOM     12  C   UNL     1       2.725   6.474  -1.553  0.00  0.00    +0.199 A 
ATOM     13  C   UNL     1       1.726   5.854  -2.289  0.00  0.00    +0.197 A 
ATOM     14  C   UNL     1       1.733   4.481  -2.450  0.00  0.00    +0.176 A 
ATOM     15  F   UNL     1       0.759   3.878  -3.167  0.00  0.00    -0.201 F 
ATOM     16  F   UNL     1       0.745   6.593  -2.851  0.00  0.00    -0.199 F 
ATOM     17  F   UNL     1       2.712   7.816  -1.399  0.00  0.00    -0.199 F 
ATOM     18  F   UNL     1       4.706   6.334  -0.259  0.00  0.00    -0.199 F 
ATOM     19  F   UNL     1       4.735   3.616  -0.553  0.00  0.00    -0.201 F 
ENDBRANCH   7   9
BRANCH   1  22
ATOM     20  C   UNL     1      -3.210  -1.502   0.599  0.00  0.00    +0.202 A 
ATOM     21  N   UNL     1      -1.928  -1.294   0.974  0.00  0.00    -0.191 NA
ATOM     22  C   UNL     1      -1.411  -0.526   0.047  0.00  0.00    +0.231 A 
ATOM     23  O   UNL     1      -2.374  -0.286  -0.848  0.00  0.00    -0.337 OA
ATOM     24  N   UNL     1      -3.395  -0.855  -0.522  0.00  0.00    -0.056 NA
BRANCH  20  30
ATOM     25  C   UNL     1      -3.874  -2.955   2.512  0.00  0.00    +0.015 A 
ATOM     26  C   UNL     1      -4.814  -3.705   3.189  0.00  0.00    +0.050 A 
ATOM     27  C   UNL     1      -6.100  -3.832   2.685  0.00  0.00    +0.166 A 
ATOM     28  C   UNL     1      -6.448  -3.197   1.493  0.00  0.00    +0.167 A 
ATOM     29  C   UNL     1      -5.510  -2.440   0.815  0.00  0.00    +0.061 A 
ATOM     30  C   UNL     1      -4.218  -2.314   1.324  0.00  0.00    +0.026 A 
ATOM     31  O   UNL     1      -7.755  -3.476   1.216  0.00  0.00    -0.453 OA
ATOM     32  C   UNL     1      -8.318  -3.949   2.454  0.00  0.00    +0.466 C 
ATOM     33  O   UNL     1      -7.190  -4.508   3.151  0.00  0.00    -0.453 OA
ENDBRANCH  20  30
ENDBRANCH   1  22
TORSDOF 3
